REMARK  Name = ZINC12166909
REMARK  12 active torsions:
REMARK  status: ('A' for Active; 'I' for Inactive)
REMARK    1  A    between atoms: C_1  and  C_2
REMARK    2  A    between atoms: C_2  and  O_3
REMARK    3  A    between atoms: O_3  and  C_4
REMARK    4  A    between atoms: C_8  and  C_11
REMARK    5  A    between atoms: C_9  and  O_10
REMARK    6  A    between atoms: C_11  and  N_68
REMARK    7  A    between atoms: C_14  and  C_17
REMARK    8  A    between atoms: C_17  and  C_19
REMARK    9  A    between atoms: C_17  and  N_27
REMARK   10  A    between atoms: C_19  and  C_20
REMARK   11  A    between atoms: N_27  and  C_28
REMARK   12  A    between atoms: C_29  and  C_31
REMARK                            x       y       z     vdW  Elec       q    Type
REMARK                         _______ _______ _______ _____ _____    ______ ____
ROOT
ATOM      1  C   UNL     1      -0.124   3.628  -0.546  0.00  0.00    -0.078 C 
ATOM      2  C   UNL     1       0.464   2.250  -0.236  0.00  0.00    -0.013 C 
ATOM      3  C   UNL     1      -0.672   1.233  -0.106  0.00  0.00    +0.006 C 
ATOM      4  C   UNL     1      -1.487   1.220  -1.403  0.00  0.00    -0.013 C 
ATOM      5  C   UNL     1      -2.019   2.628  -1.679  0.00  0.00    -0.078 C 
ATOM      6  N   UNL     1      -0.875   3.555  -1.817  0.00  0.00    +0.382 N 
ATOM      7  H   UNL     1      -0.251   3.205  -2.553  0.00  0.00    -0.081 HD
ENDROOT
BRANCH   6   8
ATOM      8  C   UNL     1      -1.358   4.899  -2.197  0.00  0.00    -0.039 C 
BRANCH   8  13
ATOM      9  C   UNL     1      -4.560   4.305  -4.127  0.00  0.00    +0.162 A 
ATOM     10  C   UNL     1      -4.138   4.530  -5.428  0.00  0.00    +0.049 A 
ATOM     11  C   UNL     1      -2.822   4.872  -5.678  0.00  0.00    +0.004 A 
ATOM     12  C   UNL     1      -1.924   4.991  -4.633  0.00  0.00    +0.005 A 
ATOM     13  C   UNL     1      -2.339   4.768  -3.333  0.00  0.00    -0.019 A 
ATOM     14  C   UNL     1      -3.655   4.420  -3.076  0.00  0.00    +0.160 A 
BRANCH  14  15
ATOM     15  O   UNL     1      -4.063   4.196  -1.798  0.00  0.00    -0.503 OA
ATOM     16  H   UNL     1      -4.391   4.985  -1.346  0.00  0.00    +0.292 HD
ENDBRANCH  14  15
BRANCH   9  17
ATOM     17  O   UNL     1      -5.854   3.969  -3.879  0.00  0.00    -0.489 OA
BRANCH  17  19
ATOM     18  C   UNL     1      -8.128   3.481  -4.534  0.00  0.00    +0.048 C 
ATOM     19  C   UNL     1      -6.725   3.865  -5.007  0.00  0.00    +0.226 C 
ENDBRANCH  17  19
ENDBRANCH   9  17
ENDBRANCH   8  13
ENDBRANCH   6   8
BRANCH   3  20
ATOM     20  C   UNL     1      -0.087  -0.159   0.143  0.00  0.00    +0.083 C 
BRANCH  20  21
ATOM     21  N   UNL     1       0.698  -0.144   1.380  0.00  0.00    -0.297 N 
ATOM     22  C   UNL     1       0.089   0.322   2.628  0.00  0.00    +0.132 C 
ATOM     23  C   UNL     1       1.980  -0.559   1.369  0.00  0.00    +0.247 C 
ATOM     24  O   UNL     1       2.508  -0.876   0.321  0.00  0.00    -0.270 OA
BRANCH  23  25
ATOM     25  C   UNL     1       2.742  -0.627   2.627  0.00  0.00    +0.044 A 
ATOM     26  C   UNL     1       3.787  -1.601   2.822  0.00  0.00    +0.020 A 
ATOM     27  C   UNL     1       4.430  -1.582   4.006  0.00  0.00    +0.046 A 
ATOM     28  S   UNL     1       3.625  -0.256   4.881  0.00  0.00    -0.104 S 
ATOM     29  C   UNL     1       2.484   0.233   3.674  0.00  0.00    +0.058 A 
ENDBRANCH  23  25
ENDBRANCH  20  21
BRANCH  20  30
ATOM     30  C   UNL     1      -1.224  -1.175   0.273  0.00  0.00    +0.060 C 
BRANCH  30  31
ATOM     31  C   UNL     1      -0.648  -2.564   0.369  0.00  0.00    -0.010 A 
ATOM     32  C   UNL     1      -0.466  -3.317  -0.776  0.00  0.00    +0.006 A 
ATOM     33  C   UNL     1       0.068  -4.589  -0.689  0.00  0.00    +0.000 A 
ATOM     34  C   UNL     1       0.410  -5.114   0.544  0.00  0.00    +0.003 A 
ATOM     35  C   UNL     1       0.224  -4.365   1.690  0.00  0.00    +0.038 A 
ATOM     36  C   UNL     1      -0.306  -3.088   1.604  0.00  0.00    +0.127 A 
ATOM     37  F   UNL     1      -0.489  -2.355   2.723  0.00  0.00    -0.205 F 
ENDBRANCH  30  31
ENDBRANCH  20  30
ENDBRANCH   3  20
TORSDOF 10
