REMARK  Name = ZINC36763663
REMARK  6 active torsions:
REMARK  status: ('A' for Active; 'I' for Inactive)
REMARK    1  A    between atoms: C_1  and  C_2
REMARK    2  A    between atoms: C_2  and  C_3
REMARK    3  A    between atoms: C_2  and  C_4
REMARK    4  A    between atoms: C_6  and  C_9
REMARK    5  A    between atoms: C_9  and  C_11
REMARK    6  A    between atoms: C_9  and  N_18
REMARK                            x       y       z     vdW  Elec       q    Type
REMARK                         _______ _______ _______ _____ _____    ______ ____
ROOT
ATOM      1  C   UNL     1      -4.169  -2.408  -1.382  0.00  0.00    +0.029 C 
ENDROOT
BRANCH   1   2
ATOM      2  C   UNL     1      -5.165  -1.520  -2.083  0.00  0.00    -0.054 A 
ATOM      3  C   UNL     1      -6.251  -1.019  -1.389  0.00  0.00    +0.004 A 
ATOM      4  C   UNL     1      -7.164  -0.204  -2.031  0.00  0.00    +0.020 A 
ATOM      5  C   UNL     1      -6.992   0.110  -3.368  0.00  0.00    +0.041 A 
ATOM      6  C   UNL     1      -5.905  -0.392  -4.061  0.00  0.00    +0.020 A 
ATOM      7  C   UNL     1      -4.989  -1.202  -3.417  0.00  0.00    +0.004 A 
ATOM      8 CL   UNL     1      -8.139   1.132  -4.175  0.00  0.00    -0.084 Cl
ENDBRANCH   1   2
BRANCH   1  11
ATOM      9  C   UNL     1      -1.412  -0.526   0.013  0.00  0.00    +0.230 A 
ATOM     10  N   UNL     1      -1.953  -1.285  -0.899  0.00  0.00    -0.197 NA
ATOM     11  C   UNL     1      -3.221  -1.560  -0.574  0.00  0.00    +0.162 A 
ATOM     12  N   UNL     1      -3.503  -0.976   0.555  0.00  0.00    -0.063 NA
ATOM     13  O   UNL     1      -2.326  -0.294   0.963  0.00  0.00    -0.338 OA
BRANCH   9  15
ATOM     14  C   UNL     1      -0.019   1.526   0.010  0.00  0.00    +0.017 C 
ATOM     15  C   UNL     1       0.002  -0.004   0.002  0.00  0.00    +0.072 C 
ATOM     16  C   UNL     1       0.742  -0.511   1.242  0.00  0.00    +0.017 C 
ENDBRANCH   9  15
ENDBRANCH   1  11
BRANCH   1  17
ATOM     17  N   UNL     1      -4.880  -3.333  -0.490  0.00  0.00    +0.387 N 
ATOM     18  H   UNL     1      -5.401  -2.807   0.195  0.00  0.00    -0.089 HD
ATOM     19  H   UNL     1      -5.515  -3.901  -1.032  0.00  0.00    -0.089 HD
ATOM     20  H   UNL     1      -4.214  -3.928  -0.021  0.00  0.00    -0.089 HD
ENDBRANCH   1  17
TORSDOF 4
