REMARK  Name = ZINC20504063
REMARK  7 active torsions:
REMARK  status: ('A' for Active; 'I' for Inactive)
REMARK    1  A    between atoms: C_1  and  O_2
REMARK    2  A    between atoms: O_2  and  C_3
REMARK    3  A    between atoms: C_3  and  C_5
REMARK    4  A    between atoms: C_21  and  C_34
REMARK    5  A    between atoms: C_24  and  N_27
REMARK    6  A    between atoms: N_27  and  C_28
REMARK    7  A    between atoms: C_28  and  C_29
REMARK                            x       y       z     vdW  Elec       q    Type
REMARK                         _______ _______ _______ _____ _____    ______ ____
ROOT
ATOM      1  C   UNL     1      -2.795   1.340   2.531  0.00  0.00    +0.172 C 
ATOM      2  C   UNL     1      -2.566   0.464   3.777  0.00  0.00    +0.068 C 
ATOM      3  C   UNL     1      -1.094   0.478   4.101  0.00  0.00    -0.016 A 
ATOM      4  C   UNL     1      -0.419   0.081   5.316  0.00  0.00    +0.003 A 
ATOM      5  C   UNL     1      -0.879  -0.424   6.537  0.00  0.00    +0.010 A 
ATOM      6  C   UNL     1       0.068  -0.695   7.493  0.00  0.00    +0.001 A 
ATOM      7  C   UNL     1       1.420  -0.484   7.271  0.00  0.00    +0.002 A 
ATOM      8  C   UNL     1       1.902   0.013   6.074  0.00  0.00    +0.026 A 
ATOM      9  C   UNL     1       0.964   0.299   5.084  0.00  0.00    +0.047 A 
ATOM     10  N   UNL     1       1.092   0.790   3.816  0.00  0.00    -0.356 N 
ATOM     11  H   UNL     1       2.089   1.031   3.418  0.00  0.00    +0.166 HD
ATOM     12  C   UNL     1      -0.142   0.898   3.235  0.00  0.00    +0.038 A 
ATOM     13  C   UNL     1      -0.461   1.398   1.848  0.00  0.00    +0.103 C 
ATOM     14  N   UNL     1      -1.825   0.974   1.493  0.00  0.00    -0.274 NA
ATOM     15  C   UNL     1      -2.212   1.496   0.177  0.00  0.00    +0.087 C 
ATOM     16  C   UNL     1      -1.275   0.922  -0.889  0.00  0.00    +0.008 C 
ATOM     17  C   UNL     1       0.170   1.309  -0.563  0.00  0.00    -0.068 C 
ATOM     18  C   UNL     1       0.526   0.807   0.840  0.00  0.00    +0.009 C 
ENDROOT
BRANCH  15  19
ATOM     19  C   UNL     1      -3.630   1.091  -0.128  0.00  0.00    -0.030 A 
ATOM     20  C   UNL     1      -4.074  -0.175   0.206  0.00  0.00    +0.008 A 
ATOM     21  C   UNL     1      -5.376  -0.547  -0.069  0.00  0.00    +0.038 A 
ATOM     22  C   UNL     1      -6.234   0.346  -0.688  0.00  0.00    +0.123 A 
ATOM     23  C   UNL     1      -5.787   1.612  -1.028  0.00  0.00    +0.038 A 
ATOM     24  C   UNL     1      -4.486   1.983  -0.748  0.00  0.00    +0.008 A 
ATOM     25  F   UNL     1      -7.506  -0.018  -0.962  0.00  0.00    -0.205 F 
ENDBRANCH  15  19
BRANCH  17  26
ATOM     26  N   UNL     1       0.308   2.771  -0.610  0.00  0.00    +0.384 N 
ATOM     27  H   UNL     1      -0.619   3.239  -0.247  0.00  0.00    -0.085 HD
ATOM     28  H   UNL     1       1.149   3.080   0.029  0.00  0.00    -0.085 HD
BRANCH  26  29
ATOM     29  C   UNL     1       0.564   3.232  -1.981  0.00  0.00    -0.039 C 
BRANCH  29  30
ATOM     30  C   UNL     1       0.700   4.733  -1.989  0.00  0.00    -0.027 A 
ATOM     31  C   UNL     1       1.813   5.490  -1.832  0.00  0.00    +0.009 A 
ATOM     32  C   UNL     1       1.700   6.867  -1.877  0.00  0.00    +0.008 A 
ATOM     33  C   UNL     1       0.478   7.419  -2.077  0.00  0.00    +0.045 A 
ATOM     34  S   UNL     1      -0.562   5.975  -2.216  0.00  0.00    -0.104 S 
ENDBRANCH  29  30
ENDBRANCH  26  29
ENDBRANCH  17  26
BRANCH   1  35
ATOM     35  C   UNL     1      -2.613   2.790   2.900  0.00  0.00    +0.325 C 
ATOM     36  O   UNL     1      -1.906   3.500   2.225  0.00  0.00    -0.249 OA
BRANCH  35  38
ATOM     37  C   UNL     1      -3.017   4.696   4.272  0.00  0.00    +0.280 C 
ATOM     38  O   UNL     1      -3.237   3.291   3.977  0.00  0.00    -0.467 OA
ENDBRANCH  35  38
ENDBRANCH   1  35
TORSDOF 6
