REMARK  Name = ZINC13501166
REMARK  10 active torsions:
REMARK  status: ('A' for Active; 'I' for Inactive)
REMARK    1  A    between atoms: C_1  and  C_2
REMARK    2  A    between atoms: C_2  and  C_3
REMARK    3  A    between atoms: C_3  and  C_5
REMARK    4  A    between atoms: C_3  and  N_70
REMARK    5  A    between atoms: N_9  and  C_10
REMARK    6  A    between atoms: C_10  and  C_11
REMARK    7  A    between atoms: C_17  and  C_18
REMARK    8  A    between atoms: C_17  and  N_70
REMARK    9  A    between atoms: C_22  and  C_30
REMARK   10  A    between atoms: C_31  and  N_70
REMARK                            x       y       z     vdW  Elec       q    Type
REMARK                         _______ _______ _______ _____ _____    ______ ____
ROOT
ATOM      1  N   UNL     1      -2.686   1.916   0.198  0.00  0.00    +0.391 N 
ATOM      2  H   UNL     1      -3.417   2.287   0.816  0.00  0.00    -0.080 HD
ENDROOT
BRANCH   1   3
ATOM      3  C   UNL     1      -3.032   0.528  -0.175  0.00  0.00    -0.067 C 
ATOM      4  C   UNL     1      -3.281  -0.279   1.100  0.00  0.00    -0.015 C 
ATOM      5  C   UNL     1      -3.662  -1.714   0.729  0.00  0.00    -0.002 C 
ATOM      6  C   UNL     1      -2.523  -2.355  -0.066  0.00  0.00    -0.000 C 
ATOM      7  C   UNL     1      -2.273  -1.548  -1.341  0.00  0.00    -0.002 C 
ATOM      8  C   UNL     1      -1.892  -0.113  -0.970  0.00  0.00    -0.015 C 
ENDBRANCH   1   3
BRANCH   1   9
ATOM      9  C   UNL     1      -1.394   1.939   0.915  0.00  0.00    +0.003 C 
BRANCH   9  10
ATOM     10  C   UNL     1      -0.250   1.797  -0.056  0.00  0.00    +0.138 A 
ATOM     11  N   UNL     1      -0.163   2.334  -1.248  0.00  0.00    -0.115 NA
ATOM     12  N   UNL     1       0.963   1.981  -1.764  0.00  0.00    -0.023 NA
ATOM     13  N   UNL     1       1.594   1.225  -0.934  0.00  0.00    -0.044 NA
ATOM     14  N   UNL     1       0.879   1.088   0.131  0.00  0.00    -0.228 N 
BRANCH  14  15
ATOM     15  C   UNL     1       1.230   0.307   1.320  0.00  0.00    +0.178 C 
BRANCH  15  16
ATOM     16  C   UNL     1       0.834  -1.155   1.105  0.00  0.00    +0.140 C 
ATOM     17  C   UNL     1       1.149  -1.975   2.375  0.00  0.00    +0.035 C 
ATOM     18  C   UNL     1       1.682  -3.308   1.783  0.00  0.00    +0.031 C 
ATOM     19  C   UNL     1       2.408  -2.796   0.514  0.00  0.00    +0.160 C 
ATOM     20  O   UNL     1       1.599  -1.712   0.030  0.00  0.00    -0.375 OA
ENDBRANCH  15  16
ENDBRANCH  14  15
ENDBRANCH   9  10
BRANCH   9  22
ATOM     21  C   UNL     1      -2.354   3.358   2.733  0.00  0.00    +0.002 C 
ATOM     22  C   UNL     1      -1.269   3.271   1.658  0.00  0.00    -0.011 C 
ENDBRANCH   9  22
ENDBRANCH   1   9
BRANCH   1  23
ATOM     23  C   UNL     1      -2.608   2.760  -1.013  0.00  0.00    -0.036 C 
BRANCH  23  24
ATOM     24  C   UNL     1      -4.007   3.051  -1.490  0.00  0.00    +0.001 A 
ATOM     25  C   UNL     1      -4.637   4.182  -1.087  0.00  0.00    +0.017 A 
ATOM     26  C   UNL     1      -5.994   4.438  -1.572  0.00  0.00    -0.001 A 
ATOM     27  C   UNL     1      -6.692   5.590  -1.195  0.00  0.00    +0.013 A 
ATOM     28  C   UNL     1      -7.959   5.798  -1.663  0.00  0.00    -0.050 A 
ATOM     29  C   UNL     1      -8.560   4.876  -2.509  0.00  0.00    +0.005 A 
ATOM     30  C   UNL     1      -7.891   3.734  -2.893  0.00  0.00    +0.026 A 
ATOM     31  C   UNL     1      -6.600   3.501  -2.430  0.00  0.00    +0.049 A 
ATOM     32  N   UNL     1      -5.907   2.368  -2.800  0.00  0.00    -0.322 N 
ATOM     33  H   UNL     1      -6.326   1.723  -3.391  0.00  0.00    +0.169 HD
ATOM     34  C   UNL     1      -4.660   2.143  -2.352  0.00  0.00    +0.251 A 
ATOM     35  O   UNL     1      -4.077   1.130  -2.699  0.00  0.00    -0.268 OA
ATOM     36  C   UNL     1      -8.711   7.039  -1.256  0.00  0.00    +0.044 C 
ENDBRANCH  23  24
ENDBRANCH   1  23
TORSDOF 8
