REMARK  Name = ZINC13064922
REMARK  15 active torsions:
REMARK  status: ('A' for Active; 'I' for Inactive)
REMARK    1  A    between atoms: C_1  and  C_2
REMARK    2  A    between atoms: C_2  and  C_3
REMARK    3  A    between atoms: C_3  and  C_5
REMARK    4  A    between atoms: C_3  and  N_69
REMARK    5  A    between atoms: N_9  and  C_10
REMARK    6  A    between atoms: C_10  and  C_11
REMARK    7  A    between atoms: C_11  and  O_12
REMARK    8  A    between atoms: O_12  and  C_13
REMARK    9  A    between atoms: C_14  and  C_15
REMARK   10  A    between atoms: C_14  and  N_69
REMARK   11  A    between atoms: C_18  and  C_21
REMARK   12  A    between atoms: C_22  and  C_23
REMARK   13  A    between atoms: C_22  and  N_69
REMARK   14  A    between atoms: C_26  and  C_36
REMARK   15  A    between atoms: C_28  and  C_35
REMARK                            x       y       z     vdW  Elec       q    Type
REMARK                         _______ _______ _______ _____ _____    ______ ____
ROOT
ATOM      1  N   UNL     1       5.158   4.676  -1.596  0.00  0.00    +0.392 N 
ATOM      2  H   UNL     1       5.381   4.065  -2.390  0.00  0.00    -0.080 HD
ENDROOT
BRANCH   1   3
ATOM      3  C   UNL     1       6.396   5.345  -1.143  0.00  0.00    +0.003 C 
BRANCH   3   4
ATOM      4  C   UNL     1       6.214   5.909   0.242  0.00  0.00    +0.138 A 
ATOM      5  N   UNL     1       5.839   5.251   1.312  0.00  0.00    -0.115 NA
ATOM      6  N   UNL     1       5.802   6.081   2.297  0.00  0.00    -0.023 NA
ATOM      7  N   UNL     1       6.145   7.251   1.884  0.00  0.00    -0.044 NA
ATOM      8  N   UNL     1       6.412   7.185   0.623  0.00  0.00    -0.229 N 
BRANCH   8   9
ATOM      9  C   UNL     1       6.845   8.291  -0.234  0.00  0.00    +0.175 C 
BRANCH   9  10
ATOM     10  C   UNL     1       5.627   9.113  -0.661  0.00  0.00    +0.183 C 
BRANCH  10  11
ATOM     11  O   UNL     1       6.032  10.114  -1.597  0.00  0.00    -0.381 OA
ATOM     12  C   UNL     1       4.963  10.941  -2.061  0.00  0.00    +0.194 C 
ENDBRANCH  10  11
ENDBRANCH   9  10
ENDBRANCH   8   9
ENDBRANCH   3   4
BRANCH   3  14
ATOM     13  C   UNL     1       7.756   3.791  -2.549  0.00  0.00    +0.002 C 
ATOM     14  C   UNL     1       7.531   4.319  -1.131  0.00  0.00    -0.011 C 
ENDBRANCH   3  14
ENDBRANCH   1   3
BRANCH   1  15
ATOM     15  C   UNL     1       4.168   5.685  -2.029  0.00  0.00    -0.042 C 
BRANCH  15  16
ATOM     16  C   UNL     1       4.579   6.218  -3.377  0.00  0.00    -0.064 A 
ATOM     17  C   UNL     1       5.436   7.300  -3.461  0.00  0.00    +0.002 A 
ATOM     18  C   UNL     1       5.816   7.786  -4.698  0.00  0.00    +0.003 A 
ATOM     19  C   UNL     1       5.332   7.196  -5.851  0.00  0.00    -0.050 A 
ATOM     20  C   UNL     1       4.472   6.117  -5.767  0.00  0.00    +0.003 A 
ATOM     21  C   UNL     1       4.095   5.628  -4.530  0.00  0.00    +0.002 A 
ATOM     22  C   UNL     1       5.743   7.729  -7.199  0.00  0.00    +0.044 C 
ENDBRANCH  15  16
ENDBRANCH   1  15
BRANCH   1  23
ATOM     23  C   UNL     1       4.598   3.856  -0.501  0.00  0.00    -0.036 C 
BRANCH  23  24
ATOM     24  C   UNL     1       3.676   2.823  -1.096  0.00  0.00    +0.001 A 
ATOM     25  C   UNL     1       4.145   1.583  -1.383  0.00  0.00    +0.017 A 
ATOM     26  C   UNL     1       3.224   0.603  -1.960  0.00  0.00    +0.002 A 
ATOM     27  C   UNL     1       3.649  -0.692  -2.275  0.00  0.00    -0.041 A 
ATOM     28  C   UNL     1       2.765  -1.583  -2.813  0.00  0.00    +0.007 A 
ATOM     29  C   UNL     1       1.447  -1.216  -3.049  0.00  0.00    -0.048 A 
ATOM     30  C   UNL     1       1.006   0.054  -2.746  0.00  0.00    +0.029 A 
ATOM     31  C   UNL     1       1.888   0.979  -2.197  0.00  0.00    +0.050 A 
ATOM     32  N   UNL     1       1.474   2.256  -1.885  0.00  0.00    -0.322 N 
ATOM     33  H   UNL     1       0.553   2.514  -2.050  0.00  0.00    +0.169 HD
ATOM     34  C   UNL     1       2.327   3.150  -1.355  0.00  0.00    +0.251 A 
ATOM     35  O   UNL     1       1.926   4.270  -1.091  0.00  0.00    -0.268 OA
ATOM     36  C   UNL     1       0.489  -2.216  -3.643  0.00  0.00    +0.044 C 
ATOM     37  C   UNL     1       5.077  -1.101  -2.023  0.00  0.00    +0.044 C 
ENDBRANCH  23  24
ENDBRANCH   1  23
TORSDOF 10
