REMARK  Name = ZINC47137322
REMARK  6 active torsions:
REMARK  status: ('A' for Active; 'I' for Inactive)
REMARK    1  A    between atoms: C_4  and  C_7
REMARK    2  A    between atoms: N_8  and  N_9
REMARK    3  A    between atoms: N_11  and  C_25
REMARK    4  A    between atoms: C_15  and  C_16
REMARK    5  A    between atoms: C_21  and  O_22
REMARK    6  A    between atoms: C_25  and  C_26
REMARK                            x       y       z     vdW  Elec       q    Type
REMARK                         _______ _______ _______ _____ _____    ______ ____
ROOT
ATOM      1  N   UNL     1       2.495  -2.707   1.344  0.00  0.00    -0.126 NA
ATOM      2  C   UNL     1       2.545  -4.012   1.152  0.00  0.00    +0.190 C 
ATOM      3  N   UNL     1       3.634  -4.849   1.242  0.00  0.00    -0.237 N 
ATOM      4  C   UNL     1       3.508  -6.146   1.016  0.00  0.00    +0.259 C 
ATOM      5  O   UNL     1       4.461  -6.900   1.092  0.00  0.00    -0.269 OA
ATOM      6  C   UNL     1       2.161  -6.637   0.670  0.00  0.00    +0.078 C 
ATOM      7  C   UNL     1       1.750  -7.902   0.392  0.00  0.00    +0.032 C 
ATOM      8  S   UNL     1       1.215  -5.122   0.721  0.00  0.00    -0.047 S 
ENDROOT
BRANCH   7   9
ATOM      9  C   UNL     1       0.319  -8.191   0.243  0.00  0.00    +0.019 A 
ATOM     10  C   UNL     1      -0.637  -7.296   0.739  0.00  0.00    +0.026 A 
ATOM     11  C   UNL     1      -1.979  -7.576   0.595  0.00  0.00    +0.019 A 
ATOM     12  C   UNL     1      -2.387  -8.740  -0.038  0.00  0.00    +0.019 A 
ATOM     13  C   UNL     1      -1.454  -9.632  -0.531  0.00  0.00    +0.047 A 
ATOM     14  C   UNL     1      -0.101  -9.366  -0.402  0.00  0.00    +0.124 A 
ATOM     15 BR   UNL     1      -3.269  -6.367   1.264  0.00  0.00    -0.050 Br
BRANCH  14  16
ATOM     16  O   UNL     1       0.816 -10.240  -0.892  0.00  0.00    -0.506 OA
ATOM     17  H   UNL     1       1.087 -10.920  -0.261  0.00  0.00    +0.292 HD
ENDBRANCH  14  16
ENDBRANCH   7   9
BRANCH   1  19
ATOM     18  C   UNL     1       3.517  -0.768   1.843  0.00  0.00    +0.143 C 
ATOM     19  N   UNL     1       3.566  -2.059   1.653  0.00  0.00    -0.155 NA
BRANCH  18  23
ATOM     20  C   UNL     1      -0.198   1.267   1.623  0.00  0.00    +0.000 A 
ATOM     21  C   UNL     1      -0.128  -0.076   1.295  0.00  0.00    +0.001 A 
ATOM     22  C   UNL     1       1.076  -0.745   1.363  0.00  0.00    +0.009 A 
ATOM     23  C   UNL     1       2.228  -0.062   1.766  0.00  0.00    -0.005 A 
ATOM     24  C   UNL     1       2.149   1.295   2.096  0.00  0.00    +0.009 A 
ATOM     25  C   UNL     1       0.938   1.949   2.022  0.00  0.00    +0.001 A 
ENDBRANCH  18  23
ENDBRANCH   1  19
BRANCH   3  26
ATOM     26  C   UNL     1       4.946  -4.298   1.591  0.00  0.00    +0.190 C 
BRANCH  26  27
ATOM     27  C   UNL     1       5.119  -4.321   3.087  0.00  0.00    +0.123 A 
ATOM     28  C   UNL     1       5.651  -5.329   3.802  0.00  0.00    +0.046 A 
ATOM     29  C   UNL     1       5.619  -4.931   5.158  0.00  0.00    +0.041 A 
ATOM     30  C   UNL     1       5.069  -3.704   5.192  0.00  0.00    +0.195 A 
ATOM     31  O   UNL     1       4.773  -3.337   3.934  0.00  0.00    -0.466 OA
ENDBRANCH  26  27
ENDBRANCH   3  26
TORSDOF 6
