REMARK  Name = ZINC34791137
REMARK  3 active torsions:
REMARK  status: ('A' for Active; 'I' for Inactive)
REMARK    1  A    between atoms: C_5  and  O_8
REMARK    2  A    between atoms: C_6  and  O_7
REMARK    3  A    between atoms: CA_16  and  C_18
REMARK                            x       y       z     vdW  Elec       q    Type
REMARK                         _______ _______ _______ _____ _____    ______ ____
ROOT
ATOM      1  C   UNL     1      -0.017   1.379   0.010  0.00  0.00    +0.052 A 
ATOM      2  C   UNL     1       1.170   2.097   0.002  0.00  0.00    -0.043 A 
ATOM      3  C   UNL     1       2.377   1.428  -0.017  0.00  0.00    -0.037 A 
ATOM      4  C   UNL     1       2.401   0.042  -0.021  0.00  0.00    +0.053 A 
ATOM      5  C   UNL     1       1.220  -0.678  -0.013  0.00  0.00    +0.159 A 
ATOM      6  C   UNL     1       0.002  -0.004   0.002  0.00  0.00    +0.158 A 
ATOM      7  C   UNL     1       3.682   2.177  -0.038  0.00  0.00    -0.019 C 
ATOM      8  C   UNL     1       4.681   1.510   0.925  0.00  0.00    +0.010 C 
ATOM      9  C   UNL     1       5.515   0.571   0.016  0.00  0.00    +0.001 C 
ATOM     10  C   UNL     1       5.664   1.398  -1.285  0.00  0.00    +0.001 C 
ATOM     11  C   UNL     1       4.302   2.106  -1.442  0.00  0.00    +0.010 C 
ATOM     12  C   UNL     1       3.469   3.633   0.364  0.00  0.00    -0.069 C 
ATOM     13  N   UNL     1       2.366   4.184  -0.439  0.00  0.00    +0.391 N 
ATOM     14  CA  UNL     1       1.102   3.601   0.018  0.00  0.00    +0.075 C 
ATOM     15  H1  UNL     1       2.335   5.187  -0.327  0.00  0.00    -0.084 HD
ATOM     16  H2  UNL     1       2.510   3.957  -1.411  0.00  0.00    -0.084 HD
ENDROOT
BRANCH  14  17
ATOM     17  C   UNL     1      -0.011   4.057  -0.890  0.00  0.00    +0.347 C 
ATOM     18  O   UNL     1      -1.173   3.860  -0.576  0.00  0.00    -0.248 OA
ATOM     19  OXT UNL     1       0.249   4.622  -1.938  0.00  0.00    -0.248 OA
ENDBRANCH  14  17
BRANCH   6  20
ATOM     20  O   UNL     1      -1.165  -0.703   0.008  0.00  0.00    -0.503 OA
ATOM     21  H   UNL     1      -1.510  -0.900  -0.873  0.00  0.00    +0.292 HD
ENDBRANCH   6  20
BRANCH   5  22
ATOM     22  O   UNL     1       1.248  -2.038  -0.019  0.00  0.00    -0.503 OA
ATOM     23  H   UNL     1       1.265  -2.435   0.863  0.00  0.00    +0.292 HD
ENDBRANCH   5  22
TORSDOF 3
