REMARK  Name = ZINC63784707
REMARK  10 active torsions:
REMARK  status: ('A' for Active; 'I' for Inactive)
REMARK    1  A    between atoms: C_1  and  C_2
REMARK    2  A    between atoms: C_2  and  O_3
REMARK    3  A    between atoms: O_3  and  C_4
REMARK    4  A    between atoms: C_6  and  N_19
REMARK    5  A    between atoms: C_7  and  O_16
REMARK    6  A    between atoms: C_9  and  N_10
REMARK    7  A    between atoms: O_16  and  C_17
REMARK    8  A    between atoms: C_17  and  C_18
REMARK    9  A    between atoms: C_20  and  C_22
REMARK   10  A    between atoms: C_22  and  C_23
REMARK                            x       y       z     vdW  Elec       q    Type
REMARK                         _______ _______ _______ _____ _____    ______ ____
ROOT
ATOM      1  C   UNL     1       0.795  -1.805  -1.314  0.00  0.00    +0.143 A 
ATOM      2  C   UNL     1       0.254  -2.665  -0.372  0.00  0.00    +0.074 A 
ATOM      3  C   UNL     1       0.359  -4.037  -0.545  0.00  0.00    +0.079 A 
ATOM      4  C   UNL     1       1.008  -4.551  -1.666  0.00  0.00    +0.144 A 
ATOM      5  C   UNL     1       1.548  -3.691  -2.607  0.00  0.00    +0.074 A 
ATOM      6  C   UNL     1       1.439  -2.318  -2.437  0.00  0.00    +0.076 A 
ENDROOT
BRANCH   6   7
ATOM      7  N   UNL     1       1.981  -1.448  -3.393  0.00  0.00    -0.323 N 
ATOM      8  C   UNL     1       3.371  -0.978  -3.287  0.00  0.00    +0.133 C 
ATOM      9  C   UNL     1       4.065  -1.212  -4.633  0.00  0.00    +0.178 C 
ATOM     10  O   UNL     1       3.276  -0.632  -5.676  0.00  0.00    -0.377 OA
ATOM     11  C   UNL     1       1.977  -1.211  -5.818  0.00  0.00    +0.178 C 
ATOM     12  C   UNL     1       1.179  -0.982  -4.535  0.00  0.00    +0.133 C 
ENDBRANCH   6   7
BRANCH   3  13
ATOM     13  N   UNL     1      -0.188  -4.909   0.409  0.00  0.00    -0.282 N 
ATOM     14  C   UNL     1      -1.206  -4.498   1.191  0.00  0.00    +0.221 C 
ATOM     15  O   UNL     1      -1.716  -3.413   1.003  0.00  0.00    -0.275 OA
ATOM     16  H   UNL     1       0.166  -5.806   0.506  0.00  0.00    +0.155 HD
BRANCH  14  17
ATOM     17  C   UNL     1      -1.711  -5.386   2.298  0.00  0.00    +0.129 C 
BRANCH  17  18
ATOM     18  C   UNL     1      -2.844  -4.699   3.017  0.00  0.00    -0.033 C 
ATOM     19  C   UNL     1      -4.167  -4.855   2.785  0.00  0.00    -0.001 A 
ATOM     20  C   UNL     1      -4.920  -5.678   1.830  0.00  0.00    +0.010 A 
ATOM     21  C   UNL     1      -6.271  -5.620   1.836  0.00  0.00    +0.001 A 
ATOM     22  C   UNL     1      -6.969  -4.794   2.728  0.00  0.00    +0.002 A 
ATOM     23  C   UNL     1      -6.348  -4.009   3.633  0.00  0.00    +0.026 A 
ATOM     24  C   UNL     1      -4.928  -3.992   3.716  0.00  0.00    +0.043 A 
ATOM     25  N   UNL     1      -4.107  -3.329   4.494  0.00  0.00    -0.380 N 
ATOM     26  C   UNL     1      -2.731  -3.701   4.147  0.00  0.00    +0.145 C 
ATOM     27  H   UNL     1      -4.367  -2.700   5.185  0.00  0.00    +0.160 HD
ENDBRANCH  17  18
ENDBRANCH  14  17
ENDBRANCH   3  13
BRANCH   1  28
ATOM     28  O   UNL     1       0.693  -0.459  -1.144  0.00  0.00    -0.490 OA
BRANCH  28  30
ATOM     29  C   UNL     1       0.004   1.527   0.048  0.00  0.00    +0.048 C 
ATOM     30  C   UNL     1       0.020  -0.002   0.031  0.00  0.00    +0.226 C 
ENDBRANCH  28  30
ENDBRANCH   1  28
BRANCH   4  31
ATOM     31  O   UNL     1       1.111  -5.896  -1.835  0.00  0.00    -0.490 OA
BRANCH  31  32
ATOM     32  C   UNL     1       1.789  -6.353  -3.007  0.00  0.00    +0.226 C 
ATOM     33  C   UNL     1       1.805  -7.883  -3.024  0.00  0.00    +0.048 C 
ENDBRANCH  31  32
ENDBRANCH   4  31
TORSDOF 8
