REMARK  Name = ZINC22852117
REMARK  6 active torsions:
REMARK  status: ('A' for Active; 'I' for Inactive)
REMARK    1  A    between atoms: C_4  and  C_7
REMARK    2  A    between atoms: C_7  and  C_8
REMARK    3  A    between atoms: N_11  and  C_14
REMARK    4  A    between atoms: C_14  and  C_16
REMARK    5  A    between atoms: C_14  and  C_23
REMARK    6  A    between atoms: C_29  and  C_31
REMARK                            x       y       z     vdW  Elec       q    Type
REMARK                         _______ _______ _______ _____ _____    ______ ____
ROOT
ATOM      1  C   UNL     1       2.515   3.328  -0.004  0.00  0.00    +0.008 C 
ENDROOT
BRANCH   1   2
ATOM      2  C   UNL     1       2.018   1.919  -0.198  0.00  0.00    +0.050 A 
ATOM      3  C   UNL     1       2.710   0.774  -0.207  0.00  0.00    +0.282 A 
ATOM      4  N   UNL     1       2.074  -0.428  -0.402  0.00  0.00    -0.169 N 
ATOM      5  C   UNL     1       0.719  -0.394  -0.583  0.00  0.00    +0.200 A 
ATOM      6  S   UNL     1       0.351   1.341  -0.477  0.00  0.00    -0.050 S 
ATOM      7  N   UNL     1       0.267  -1.605  -0.753  0.00  0.00    -0.197 NA
ATOM      8  C   UNL     1       1.288  -2.471  -0.692  0.00  0.00    +0.218 A 
ATOM      9  N   UNL     1       2.403  -1.807  -0.480  0.00  0.00    -0.138 NA
ATOM     10  O   UNL     1       4.058   0.800  -0.022  0.00  0.00    -0.265 OA
BRANCH   8  11
ATOM     11  C   UNL     1       1.178  -3.938  -0.839  0.00  0.00    +0.173 A 
ATOM     12  C   UNL     1       0.031  -4.634  -1.058  0.00  0.00    +0.053 A 
ATOM     13  C   UNL     1       0.390  -5.995  -1.132  0.00  0.00    +0.042 A 
ATOM     14  C   UNL     1       1.725  -6.061  -0.957  0.00  0.00    +0.196 A 
ATOM     15  O   UNL     1       2.198  -4.816  -0.786  0.00  0.00    -0.460 OA
ENDBRANCH   8  11
ENDBRANCH   1   2
BRANCH   1  19
ATOM     16  C   UNL     1       1.807   6.056  -3.219  0.00  0.00    -0.010 C 
ATOM     17  C   UNL     1       1.390   4.590  -3.368  0.00  0.00    -0.015 C 
ATOM     18  C   UNL     1       2.170   3.739  -2.365  0.00  0.00    -0.077 C 
ATOM     19  N   UNL     1       1.893   4.209  -1.002  0.00  0.00    +0.388 N 
ATOM     20  C   UNL     1       2.328   5.599  -0.821  0.00  0.00    -0.077 C 
ATOM     21  C   UNL     1       1.553   6.507  -1.778  0.00  0.00    -0.015 C 
ATOM     22  H   UNL     1       0.804   4.176  -0.851  0.00  0.00    -0.080 HD
BRANCH  16  23
ATOM     23  C   UNL     1       0.986   6.921  -4.178  0.00  0.00    +0.038 C 
BRANCH  23  27
ATOM     24  C   UNL     1       2.389  10.953  -4.013  0.00  0.00    +0.000 A 
ATOM     25  C   UNL     1       2.941  10.066  -4.918  0.00  0.00    +0.000 A 
ATOM     26  C   UNL     1       2.487   8.761  -4.971  0.00  0.00    +0.003 A 
ATOM     27  C   UNL     1       1.481   8.344  -4.120  0.00  0.00    -0.047 A 
ATOM     28  C   UNL     1       0.926   9.232  -3.218  0.00  0.00    +0.003 A 
ATOM     29  C   UNL     1       1.383  10.536  -3.162  0.00  0.00    +0.000 A 
ENDBRANCH  23  27
ENDBRANCH  16  23
ENDBRANCH   1  19
BRANCH   1  30
ATOM     30  C   UNL     1       2.153   3.802   1.380  0.00  0.00    -0.021 A 
ATOM     31  C   UNL     1       0.971   4.487   1.589  0.00  0.00    +0.005 A 
ATOM     32  C   UNL     1       0.639   4.921   2.859  0.00  0.00    +0.000 A 
ATOM     33  C   UNL     1       1.488   4.671   3.921  0.00  0.00    +0.003 A 
ATOM     34  C   UNL     1       2.671   3.988   3.714  0.00  0.00    +0.038 A 
ATOM     35  C   UNL     1       3.002   3.547   2.443  0.00  0.00    +0.125 A 
ATOM     36  F   UNL     1       4.156   2.873   2.241  0.00  0.00    -0.205 F 
ENDBRANCH   1  30
TORSDOF 6
