REMARK  Name = ZINC63350609
REMARK  12 active torsions:
REMARK  status: ('A' for Active; 'I' for Inactive)
REMARK    1  A    between atoms: C_1  and  C_2
REMARK    2  A    between atoms: C_3  and  O_16
REMARK    3  A    between atoms: O_16  and  C_17
REMARK    4  A    between atoms: C_17  and  C_19
REMARK    5  A    between atoms: C_19  and  C_21
REMARK    6  A    between atoms: C_19  and  N_31
REMARK    7  A    between atoms: C_21  and  C_22
REMARK    8  A    between atoms: C_32  and  O_34
REMARK    9  A    between atoms: O_34  and  C_35
REMARK   10  A    between atoms: C_35  and  C_36
REMARK   11  A    between atoms: C_35  and  C_37
REMARK   12  A    between atoms: C_35  and  C_38
REMARK                            x       y       z     vdW  Elec       q    Type
REMARK                         _______ _______ _______ _____ _____    ______ ____
ROOT
ATOM      1  C   UNL     1       0.200   0.023  -4.831  0.00  0.00    +0.189 C 
ENDROOT
BRANCH   1   2
ATOM      2  N   UNL     1       0.773  -0.873  -5.838  0.00  0.00    -0.268 N 
ATOM      3  C   UNL     1       0.147  -2.026  -6.148  0.00  0.00    +0.401 C 
ATOM      4  O   UNL     1      -0.892  -2.322  -5.592  0.00  0.00    -0.226 OA
ATOM      5  H   UNL     1       1.602  -0.637  -6.282  0.00  0.00    +0.153 HD
BRANCH   3   6
ATOM      6  O   UNL     1       0.674  -2.850  -7.073  0.00  0.00    -0.445 OA
BRANCH   6   7
ATOM      7  C   UNL     1      -0.042  -4.055  -7.352  0.00  0.00    +0.107 C 
ATOM      8  C   UNL     1      -1.444  -3.710  -7.859  0.00  0.00    +0.055 C 
ATOM      9  C   UNL     1       0.704  -4.856  -8.421  0.00  0.00    +0.055 C 
ATOM     10  C   UNL     1      -0.153  -4.890  -6.074  0.00  0.00    +0.055 C 
ENDBRANCH   6   7
ENDBRANCH   3   6
ENDBRANCH   1   2
BRANCH   1  11
ATOM     11  C   UNL     1       0.098  -0.701  -3.514  0.00  0.00    +0.333 C 
ATOM     12  O   UNL     1       0.113  -1.909  -3.485  0.00  0.00    -0.248 OA
BRANCH  11  13
ATOM     13  O   UNL     1      -0.009  -0.004  -2.371  0.00  0.00    -0.424 OA
BRANCH  13  16
ATOM     14  C   UNL     1       2.520  -0.716  -1.352  0.00  0.00    +0.051 C 
ATOM     15  C   UNL     1       1.233  -1.068  -0.651  0.00  0.00    +0.035 A 
ATOM     16  C   UNL     1       0.017  -0.692  -1.200  0.00  0.00    +0.138 A 
ATOM     17  C   UNL     1      -1.178  -1.012  -0.560  0.00  0.00    +0.047 A 
ATOM     18  C   UNL     1      -1.168  -1.703   0.618  0.00  0.00    +0.015 A 
ATOM     19  C   UNL     1       0.050  -2.091   1.186  0.00  0.00    +0.022 A 
ATOM     20  C   UNL     1       1.260  -1.774   0.541  0.00  0.00    +0.146 A 
ATOM     21  O   UNL     1       2.433  -2.155   1.092  0.00  0.00    -0.422 OA
ATOM     22  C   UNL     1       2.476  -2.833   2.249  0.00  0.00    +0.341 A 
ATOM     23  O   UNL     1       3.558  -3.147   2.711  0.00  0.00    -0.245 OA
ATOM     24  C   UNL     1       1.300  -3.192   2.947  0.00  0.00    +0.041 A 
ATOM     25  C   UNL     1       0.091  -2.832   2.449  0.00  0.00    -0.027 A 
ATOM     26  C   UNL     1      -1.016  -3.317   3.355  0.00  0.00    +0.036 C 
ATOM     27  C   UNL     1      -0.355  -4.378   4.263  0.00  0.00    +0.010 C 
ATOM     28  C   UNL     1       1.121  -3.949   4.246  0.00  0.00    +0.043 C 
ENDBRANCH  13  16
ENDBRANCH  11  13
ENDBRANCH   1  11
BRANCH   1  29
ATOM     29  C   UNL     1      -1.195   0.467  -5.278  0.00  0.00    +0.067 C 
BRANCH  29  30
ATOM     30  C   UNL     1      -1.080   1.297  -6.531  0.00  0.00    -0.039 C 
ATOM     31  C   UNL     1      -1.210   0.865  -7.806  0.00  0.00    -0.001 A 
ATOM     32  C   UNL     1      -1.484  -0.455  -8.386  0.00  0.00    +0.010 A 
ATOM     33  C   UNL     1      -1.556  -0.578  -9.731  0.00  0.00    +0.001 A 
ATOM     34  C   UNL     1      -1.375   0.520 -10.583  0.00  0.00    +0.002 A 
ATOM     35  C   UNL     1      -1.120   1.764 -10.125  0.00  0.00    +0.026 A 
ATOM     36  C   UNL     1      -1.023   2.009  -8.727  0.00  0.00    +0.043 A 
ATOM     37  N   UNL     1      -0.787   3.105  -8.047  0.00  0.00    -0.380 N 
ATOM     38  C   UNL     1      -0.804   2.781  -6.617  0.00  0.00    +0.144 C 
ATOM     39  H   UNL     1      -0.632   3.984  -8.427  0.00  0.00    +0.160 HD
ENDBRANCH  29  30
ENDBRANCH   1  29
TORSDOF 8
