REMARK  Name = ZINC63362468
REMARK  11 active torsions:
REMARK  status: ('A' for Active; 'I' for Inactive)
REMARK    1  A    between atoms: C_1  and  C_2
REMARK    2  A    between atoms: C_2  and  C_4
REMARK    3  A    between atoms: C_2  and  N_10
REMARK    4  A    between atoms: C_4  and  C_5
REMARK    5  A    between atoms: C_5  and  C_6
REMARK    6  A    between atoms: C_6  and  C_7
REMARK    7  A    between atoms: C_7  and  C_8
REMARK    8  A    between atoms: C_7  and  C_9
REMARK    9  A    between atoms: C_11  and  C_13
REMARK   10  A    between atoms: C_18  and  N_19
REMARK   11  A    between atoms: C_22  and  C_38
REMARK                            x       y       z     vdW  Elec       q    Type
REMARK                         _______ _______ _______ _____ _____    ______ ____
ROOT
ATOM      1  N   UNL     1      -3.167  -0.886   3.899  0.00  0.00    -0.192 N 
ATOM      2  C   UNL     1      -2.246  -1.624   4.553  0.00  0.00    +0.253 C 
ATOM      3  O   UNL     1      -1.902  -2.759   4.300  0.00  0.00    -0.272 OA
ATOM      4  C   UNL     1      -1.733  -0.741   5.668  0.00  0.00    +0.137 C 
ATOM      5  C   UNL     1      -1.975  -1.393   7.028  0.00  0.00    +0.139 C 
ATOM      6  C   UNL     1      -3.040  -0.572   7.742  0.00  0.00    -0.034 C 
ATOM      7  C   UNL     1      -4.015  -1.421   8.055  0.00  0.00    -0.001 A 
ATOM      8  C   UNL     1      -5.269  -1.234   8.802  0.00  0.00    +0.010 A 
ATOM      9  C   UNL     1      -6.058  -2.334   8.932  0.00  0.00    +0.001 A 
ATOM     10  C   UNL     1      -5.728  -3.584   8.400  0.00  0.00    +0.002 A 
ATOM     11  C   UNL     1      -4.593  -3.847   7.703  0.00  0.00    +0.026 A 
ATOM     12  C   UNL     1      -3.682  -2.769   7.505  0.00  0.00    +0.043 A 
ATOM     13  N   UNL     1      -2.517  -2.747   6.896  0.00  0.00    -0.375 N 
ATOM     14  C   UNL     1      -2.951   0.921   7.940  0.00  0.00    +0.052 C 
ATOM     15  C   UNL     1      -2.644   1.541   6.562  0.00  0.00    +0.115 C 
ATOM     16  N   UNL     1      -2.596   0.455   5.580  0.00  0.00    -0.268 N 
ATOM     17  C   UNL     1      -3.332   0.316   4.468  0.00  0.00    +0.317 C 
ATOM     18  O   UNL     1      -4.066   1.179   4.028  0.00  0.00    -0.252 OA
ATOM     19  C   UNL     1      -0.260  -0.382   5.461  0.00  0.00    +0.044 C 
ATOM     20  H   UNL     1      -2.089  -3.487   6.438  0.00  0.00    +0.160 HD
ENDROOT
BRANCH   1  26
ATOM     21  C   UNL     1      -3.320  -1.109   1.488  0.00  0.00    +0.059 A 
ATOM     22  C   UNL     1      -4.019  -1.552   0.363  0.00  0.00    +0.015 A 
ATOM     23  C   UNL     1      -5.233  -2.186   0.514  0.00  0.00    +0.001 A 
ATOM     24  C   UNL     1      -5.765  -2.387   1.777  0.00  0.00    +0.002 A 
ATOM     25  C   UNL     1      -5.085  -1.955   2.898  0.00  0.00    +0.025 A 
ATOM     26  C   UNL     1      -3.859  -1.319   2.766  0.00  0.00    +0.058 A 
BRANCH  21  28
ATOM     27  N   UNL     1      -1.456  -0.321   0.115  0.00  0.00    -0.309 N 
ATOM     28  C   UNL     1      -2.019  -0.430   1.335  0.00  0.00    +0.246 C 
ATOM     29  O   UNL     1      -1.454   0.031   2.308  0.00  0.00    -0.270 OA
ATOM     30  H   UNL     1      -1.939  -0.621  -0.671  0.00  0.00    +0.149 HD
BRANCH  27  32
ATOM     31  C   UNL     1      -0.219   1.776  -0.126  0.00  0.00    +0.028 C 
ATOM     32  C   UNL     1      -0.115   0.252  -0.024  0.00  0.00    +0.070 C 
BRANCH  32  33
ATOM     33  C   UNL     1       0.547  -0.299  -1.289  0.00  0.00    +0.022 C 
BRANCH  33  34
ATOM     34  C   UNL     1       0.764  -1.806  -1.135  0.00  0.00    +0.002 C 
BRANCH  34  35
ATOM     35  C   UNL     1       1.426  -2.357  -2.400  0.00  0.00    +0.003 C 
BRANCH  35  36
ATOM     36  C   UNL     1       1.643  -3.864  -2.246  0.00  0.00    -0.017 C 
ATOM     37  C   UNL     1       0.288  -4.569  -2.158  0.00  0.00    +0.007 C 
ATOM     38  C   UNL     1       2.416  -4.394  -3.455  0.00  0.00    +0.007 C 
ENDBRANCH  35  36
ENDBRANCH  34  35
ENDBRANCH  33  34
ENDBRANCH  32  33
ENDBRANCH  27  32
ENDBRANCH  21  28
ENDBRANCH   1  26
TORSDOF 7
