REMARK  Name = ZINC09409996
REMARK  10 active torsions:
REMARK  status: ('A' for Active; 'I' for Inactive)
REMARK    1  A    between atoms: C_1  and  C_2
REMARK    2  A    between atoms: C_2  and  C_3
REMARK    3  A    between atoms: C_5  and  C_20
REMARK    4  A    between atoms: C_6  and  O_19
REMARK    5  A    between atoms: C_8  and  O_9
REMARK    6  A    between atoms: O_9  and  C_10
REMARK    7  A    between atoms: C_10  and  C_11
REMARK    8  A    between atoms: C_14  and  O_17
REMARK    9  A    between atoms: O_17  and  C_18
REMARK   10  A    between atoms: C_21  and  C_26
REMARK                            x       y       z     vdW  Elec       q    Type
REMARK                         _______ _______ _______ _____ _____    ______ ____
ROOT
ATOM      1  C   UNL     1       1.417  -1.041  -1.393  0.00  0.00    -0.005 A 
ATOM      2  C   UNL     1       0.512  -1.236  -2.415  0.00  0.00    +0.020 A 
ATOM      3  C   UNL     1       0.966  -1.518  -3.704  0.00  0.00    +0.042 A 
ATOM      4  C   UNL     1       2.342  -1.603  -3.954  0.00  0.00    +0.129 A 
ATOM      5  C   UNL     1       3.242  -1.406  -2.921  0.00  0.00    +0.092 A 
ATOM      6  C   UNL     1       2.781  -1.120  -1.644  0.00  0.00    +0.128 A 
ENDROOT
BRANCH   3   7
ATOM      7  C   UNL     1      -0.001  -1.728  -4.800  0.00  0.00    +0.077 A 
ATOM      8  C   UNL     1      -0.175  -0.917  -5.914  0.00  0.00    +0.027 A 
ATOM      9  C   UNL     1      -1.196  -1.490  -6.693  0.00  0.00    +0.143 A 
ATOM     10  N   UNL     1      -1.614  -2.575  -6.096  0.00  0.00    -0.181 NA
ATOM     11  N   UNL     1      -0.887  -2.757  -4.915  0.00  0.00    -0.276 N 
ATOM     12  H   UNL     1      -0.996  -3.488  -4.285  0.00  0.00    +0.189 HD
BRANCH   8  13
ATOM     13  C   UNL     1       0.575   0.324  -6.224  0.00  0.00    -0.011 A 
ATOM     14  C   UNL     1       0.617   1.364  -5.298  0.00  0.00    +0.012 A 
ATOM     15  C   UNL     1       1.315   2.521  -5.586  0.00  0.00    +0.050 A 
ATOM     16  C   UNL     1       1.976   2.644  -6.798  0.00  0.00    +0.162 A 
ATOM     17  C   UNL     1       1.938   1.611  -7.724  0.00  0.00    +0.162 A 
ATOM     18  C   UNL     1       1.245   0.448  -7.441  0.00  0.00    +0.058 A 
ATOM     19  O   UNL     1       2.595   1.747  -8.913  0.00  0.00    -0.488 OA
ATOM     20  C   UNL     1       2.059   2.716  -9.816  0.00  0.00    +0.232 C 
ATOM     21  C   UNL     1       2.588   4.105  -9.493  0.00  0.00    +0.082 C 
ATOM     22  C   UNL     1       2.127   4.597  -8.131  0.00  0.00    +0.232 C 
ATOM     23  O   UNL     1       2.669   3.784  -7.088  0.00  0.00    -0.488 OA
ENDBRANCH   8  13
ENDBRANCH   3   7
BRANCH   1  25
ATOM     24  C   UNL     1       0.904   0.779   0.211  0.00  0.00    +0.009 C 
ATOM     25  C   UNL     1       0.926  -0.736  -0.002  0.00  0.00    +0.035 C 
ENDBRANCH   1  25
BRANCH   4  26
ATOM     26  O   UNL     1       2.792  -1.878  -5.206  0.00  0.00    -0.506 OA
ATOM     27  H   UNL     1       2.942  -1.093  -5.751  0.00  0.00    +0.292 HD
ENDBRANCH   4  26
BRANCH   6  28
ATOM     28  O   UNL     1       3.668  -0.921  -0.634  0.00  0.00    -0.487 OA
BRANCH  28  29
ATOM     29  C   UNL     1       5.056  -1.016  -0.961  0.00  0.00    +0.264 C 
BRANCH  29  30
ATOM     30  C   UNL     1       5.881  -0.768   0.276  0.00  0.00    -0.010 A 
ATOM     31  C   UNL     1       6.276   0.518   0.596  0.00  0.00    +0.010 A 
ATOM     32  C   UNL     1       7.032   0.748   1.728  0.00  0.00    +0.046 A 
ATOM     33  C   UNL     1       7.396  -0.312   2.545  0.00  0.00    +0.120 A 
ATOM     34  C   UNL     1       6.998  -1.601   2.223  0.00  0.00    +0.046 A 
ATOM     35  C   UNL     1       6.237  -1.826   1.092  0.00  0.00    +0.010 A 
BRANCH  33  36
ATOM     36  O   UNL     1       8.141  -0.088   3.660  0.00  0.00    -0.495 OA
ATOM     37  C   UNL     1       8.478  -1.228   4.454  0.00  0.00    +0.277 C 
ENDBRANCH  33  36
ENDBRANCH  29  30
ENDBRANCH  28  29
ENDBRANCH   6  28
TORSDOF 8
