REMARK  Name = ZINC39593743
REMARK  7 active torsions:
REMARK  status: ('A' for Active; 'I' for Inactive)
REMARK    1  A    between atoms: C_1  and  O_2
REMARK    2  A    between atoms: O_2  and  C_3
REMARK    3  A    between atoms: C_6  and  C_9
REMARK    4  A    between atoms: C_11  and  C_15
REMARK    5  A    between atoms: C_22  and  C_24
REMARK    6  A    between atoms: C_24  and  O_25
REMARK    7  A    between atoms: O_25  and  C_26
REMARK                            x       y       z     vdW  Elec       q    Type
REMARK                         _______ _______ _______ _____ _____    ______ ____
ROOT
ATOM      1  C   UNL     1       2.486  -4.704  -6.883  0.00  0.00    +0.230 C 
ATOM      2  N   UNL     1       2.100  -6.031  -6.380  0.00  0.00    -0.242 N 
ATOM      3  N   UNL     1       2.648  -6.959  -7.274  0.00  0.00    -0.161 NA
ATOM      4  C   UNL     1       3.292  -6.370  -8.218  0.00  0.00    +0.201 C 
ATOM      5  N   UNL     1       3.277  -4.983  -8.109  0.00  0.00    -0.175 N 
ATOM      6  N   UNL     1       3.954  -4.280  -9.099  0.00  0.00    -0.170 NA
ATOM      7  C   UNL     1       4.562  -4.885 -10.068  0.00  0.00    +0.137 C 
ATOM      8  S   UNL     1       4.254  -6.611  -9.699  0.00  0.00    -0.031 S 
ATOM      9  H   UNL     1       1.573  -6.224  -5.590  0.00  0.00    +0.170 HD
ENDROOT
BRANCH   1  12
ATOM     10  C   UNL     1       2.496  -2.494  -4.366  0.00  0.00    +0.091 C 
ATOM     11  C   UNL     1       2.595  -3.827  -4.537  0.00  0.00    +0.035 C 
ATOM     12  C   UNL     1       3.343  -3.970  -5.850  0.00  0.00    +0.194 C 
ATOM     13  N   UNL     1       3.575  -2.575  -6.259  0.00  0.00    -0.176 NA
ATOM     14  N   UNL     1       3.080  -1.838  -5.403  0.00  0.00    -0.154 NA
BRANCH  10  18
ATOM     15  C   UNL     1       0.606  -0.607  -1.056  0.00  0.00    +0.120 A 
ATOM     16  C   UNL     1       1.173   0.164  -2.062  0.00  0.00    +0.046 A 
ATOM     17  C   UNL     1       1.786  -0.445  -3.136  0.00  0.00    +0.013 A 
ATOM     18  C   UNL     1       1.837  -1.836  -3.211  0.00  0.00    +0.002 A 
ATOM     19  C   UNL     1       1.267  -2.607  -2.199  0.00  0.00    +0.013 A 
ATOM     20  C   UNL     1       0.659  -1.993  -1.125  0.00  0.00    +0.046 A 
BRANCH  15  22
ATOM     21  C   UNL     1      -0.017   1.425   0.010  0.00  0.00    +0.277 C 
ATOM     22  O   UNL     1       0.002  -0.004   0.002  0.00  0.00    -0.495 OA
ENDBRANCH  15  22
ENDBRANCH  10  18
ENDBRANCH   1  12
BRANCH   7  23
ATOM     23  C   UNL     1       5.336  -4.288 -11.214  0.00  0.00    +0.293 C 
BRANCH  23  24
ATOM     24  O   UNL     1       5.324  -2.863 -11.106  0.00  0.00    -0.485 OA
BRANCH  24  25
ATOM     25  C   UNL     1       5.983  -2.166 -12.069  0.00  0.00    +0.121 A 
ATOM     26  C   UNL     1       6.622  -2.839 -13.100  0.00  0.00    +0.047 A 
ATOM     27  C   UNL     1       7.291  -2.129 -14.078  0.00  0.00    +0.023 A 
ATOM     28  C   UNL     1       7.324  -0.747 -14.030  0.00  0.00    +0.041 A 
ATOM     29  C   UNL     1       6.688  -0.073 -13.002  0.00  0.00    +0.023 A 
ATOM     30  C   UNL     1       6.012  -0.780 -12.026  0.00  0.00    +0.047 A 
ATOM     31 CL   UNL     1       8.166   0.144 -15.259  0.00  0.00    -0.084 Cl
ENDBRANCH  24  25
ENDBRANCH  23  24
ENDBRANCH   7  23
TORSDOF 6
