REMARK  Name = ZINC41513584
REMARK  16 active torsions:
REMARK  status: ('A' for Active; 'I' for Inactive)
REMARK    1  A    between atoms: C_1  and  C_2
REMARK    2  A    between atoms: C_2  and  O_3
REMARK    3  A    between atoms: O_3  and  C_4
REMARK    4  A    between atoms: C_7  and  C_10
REMARK    5  A    between atoms: C_15  and  C_32
REMARK    6  A    between atoms: C_17  and  O_31
REMARK    7  A    between atoms: C_18  and  C_21
REMARK    8  A    between atoms: C_21  and  N_22
REMARK    9  A    between atoms: N_22  and  C_23
REMARK   10  A    between atoms: N_22  and  C_27
REMARK   11  A    between atoms: C_23  and  C_24
REMARK   12  A    between atoms: C_24  and  C_25
REMARK   13  A    between atoms: C_24  and  C_26
REMARK   14  A    between atoms: C_27  and  C_28
REMARK   15  A    between atoms: C_28  and  C_29
REMARK   16  A    between atoms: C_28  and  C_30
REMARK                            x       y       z     vdW  Elec       q    Type
REMARK                         _______ _______ _______ _____ _____    ______ ____
ROOT
ATOM      1  C   UNL     1      -0.963  -7.179   1.127  0.00  0.00    +0.058 C 
ATOM      2  C   UNL     1      -0.017  -7.249   2.099  0.00  0.00    +0.176 C 
ATOM      3  C   UNL     1       0.349  -6.174   3.033  0.00  0.00    +0.232 C 
ATOM      4  O   UNL     1      -0.122  -5.052   3.100  0.00  0.00    -0.283 OA
ATOM      5  C   UNL     1       1.413  -6.758   3.869  0.00  0.00    +0.071 A 
ATOM      6  C   UNL     1       2.174  -6.263   4.929  0.00  0.00    -0.033 A 
ATOM      7  C   UNL     1       3.112  -7.058   5.524  0.00  0.00    +0.050 A 
ATOM      8  C   UNL     1       3.311  -8.361   5.075  0.00  0.00    +0.122 A 
ATOM      9  C   UNL     1       2.563  -8.866   4.023  0.00  0.00    +0.020 A 
ATOM     10  C   UNL     1       1.604  -8.070   3.408  0.00  0.00    +0.145 A 
ATOM     11  O   UNL     1       0.756  -8.322   2.387  0.00  0.00    -0.451 OA
ATOM     12  C   UNL     1       1.961  -4.853   5.416  0.00  0.00    +0.045 C 
ENDROOT
BRANCH   1  16
ATOM     13  C   UNL     1      -2.827  -3.476   0.242  0.00  0.00    +0.121 A 
ATOM     14  C   UNL     1      -1.460  -3.521   0.488  0.00  0.00    +0.046 A 
ATOM     15  C   UNL     1      -0.849  -4.721   0.776  0.00  0.00    +0.011 A 
ATOM     16  C   UNL     1      -1.609  -5.897   0.821  0.00  0.00    -0.021 A 
ATOM     17  C   UNL     1      -2.986  -5.845   0.573  0.00  0.00    +0.011 A 
ATOM     18  C   UNL     1      -3.587  -4.639   0.291  0.00  0.00    +0.046 A 
BRANCH  13  19
ATOM     19  O   UNL     1      -3.424  -2.290  -0.041  0.00  0.00    -0.492 OA
BRANCH  19  21
ATOM     20  C   UNL     1      -3.429   0.099  -0.407  0.00  0.00    +0.048 C 
ATOM     21  C   UNL     1      -2.586  -1.133  -0.075  0.00  0.00    +0.225 C 
ENDBRANCH  19  21
ENDBRANCH  13  19
ENDBRANCH   1  16
BRANCH   8  22
ATOM     22  O   UNL     1       4.245  -9.143   5.672  0.00  0.00    -0.506 OA
ATOM     23  H   UNL     1       3.909  -9.660   6.417  0.00  0.00    +0.292 HD
ENDBRANCH   8  22
BRANCH   9  24
ATOM     24  C   UNL     1       2.789 -10.277   3.547  0.00  0.00    -0.036 C 
BRANCH  24  25
ATOM     25  N   UNL     1       1.910 -11.191   4.289  0.00  0.00    +0.383 N 
ATOM     26  H   UNL     1       2.056 -11.068   5.280  0.00  0.00    -0.081 HD
BRANCH  25  27
ATOM     27  C   UNL     1       0.509 -10.896   3.960  0.00  0.00    -0.075 C 
BRANCH  27  28
ATOM     28  C   UNL     1      -0.411 -11.725   4.859  0.00  0.00    -0.034 C 
ATOM     29  C   UNL     1      -0.207 -11.312   6.317  0.00  0.00    +0.005 C 
ATOM     30  C   UNL     1      -1.868 -11.483   4.459  0.00  0.00    +0.005 C 
ENDBRANCH  27  28
ENDBRANCH  25  27
BRANCH  25  31
ATOM     31  C   UNL     1       2.219 -12.578   3.917  0.00  0.00    -0.075 C 
BRANCH  31  32
ATOM     32  C   UNL     1       3.315 -13.121   4.836  0.00  0.00    -0.034 C 
ATOM     33  C   UNL     1       3.549 -14.602   4.531  0.00  0.00    +0.005 C 
ATOM     34  C   UNL     1       4.610 -12.341   4.601  0.00  0.00    +0.005 C 
ENDBRANCH  31  32
ENDBRANCH  25  31
ENDBRANCH  24  25
ENDBRANCH   9  24
TORSDOF 10
