REMARK  Name = ZINC39993800
REMARK  10 active torsions:
REMARK  status: ('A' for Active; 'I' for Inactive)
REMARK    1  A    between atoms: C_1  and  C_2
REMARK    2  A    between atoms: C_2  and  O_3
REMARK    3  A    between atoms: O_3  and  C_4
REMARK    4  A    between atoms: C_4  and  C_6
REMARK    5  A    between atoms: N_11  and  C_13
REMARK    6  A    between atoms: C_14  and  C_24
REMARK    7  A    between atoms: C_25  and  C_26
REMARK    8  A    between atoms: C_25  and  C_28
REMARK    9  A    between atoms: N_30  and  C_31
REMARK   10  A    between atoms: C_36  and  C_37
REMARK                            x       y       z     vdW  Elec       q    Type
REMARK                         _______ _______ _______ _____ _____    ______ ____
ROOT
ATOM      1  C   UNL     1      -4.552  -5.293   0.852  0.00  0.00    +0.136 A 
ATOM      2  C   UNL     1      -5.870  -5.803   0.722  0.00  0.00    +0.081 A 
ATOM      3  C   UNL     1      -6.284  -6.827   1.612  0.00  0.00    +0.267 A 
ATOM      4  O   UNL     1      -7.406  -7.296   1.538  0.00  0.00    -0.267 OA
ATOM      5  N   UNL     1      -5.413  -7.273   2.543  0.00  0.00    -0.268 N 
ATOM      6  C   UNL     1      -5.803  -8.257   3.402  0.00  0.00    +0.096 A 
ATOM      7  C   UNL     1      -4.956  -8.727   4.346  0.00  0.00    +0.018 A 
ATOM      8  C   UNL     1      -3.661  -8.204   4.451  0.00  0.00    +0.005 A 
ATOM      9  C   UNL     1      -3.262  -7.219   3.596  0.00  0.00    +0.047 A 
ATOM     10  C   UNL     1      -4.156  -6.744   2.620  0.00  0.00    +0.142 A 
ATOM     11  N   UNL     1      -3.753  -5.784   1.786  0.00  0.00    -0.214 NA
ENDROOT
BRANCH   1  16
ATOM     12  C   UNL     1      -2.075  -2.963  -0.182  0.00  0.00    +0.115 C 
ATOM     13  C   UNL     1      -2.942  -1.835  -0.744  0.00  0.00    +0.018 C 
ATOM     14  C   UNL     1      -4.321  -1.870  -0.080  0.00  0.00    +0.020 C 
ATOM     15  C   UNL     1      -5.001  -3.206  -0.395  0.00  0.00    +0.106 C 
ATOM     16  N   UNL     1      -4.107  -4.299   0.011  0.00  0.00    -0.314 N 
ATOM     17  C   UNL     1      -2.729  -4.312  -0.498  0.00  0.00    +0.121 C 
BRANCH  12  18
ATOM     18  C   UNL     1      -0.707  -2.908  -0.813  0.00  0.00    +0.312 C 
ATOM     19  O   UNL     1      -0.297  -3.849  -1.449  0.00  0.00    -0.250 OA
BRANCH  18  20
ATOM     20  O   UNL     1       0.055  -1.812  -0.668  0.00  0.00    -0.465 OA
BRANCH  20  22
ATOM     21  C   UNL     1       2.056  -0.504  -1.020  0.00  0.00    +0.048 C 
ATOM     22  C   UNL     1       1.340  -1.828  -1.293  0.00  0.00    +0.229 C 
ENDBRANCH  20  22
ENDBRANCH  18  20
ENDBRANCH  12  18
ENDBRANCH   1  16
BRANCH   2  23
ATOM     23  C   UNL     1      -6.742  -5.306  -0.263  0.00  0.00    +0.040 C 
ATOM     24  C   UNL     1      -7.891  -4.621   0.109  0.00  0.00    +0.114 C 
BRANCH  24  25
ATOM     25  C   UNL     1      -8.869  -4.225  -0.908  0.00  0.00    +0.259 C 
ATOM     26  O   UNL     1      -8.675  -4.497  -2.079  0.00  0.00    -0.269 OA
ATOM     27  N   UNL     1      -9.984  -3.559  -0.547  0.00  0.00    -0.281 N 
ATOM     28  H   UNL     1     -10.178  -3.411   0.392  0.00  0.00    +0.155 HD
BRANCH  27  29
ATOM     29  C   UNL     1     -10.862  -3.083  -1.526  0.00  0.00    +0.037 A 
ATOM     30  C   UNL     1     -10.412  -2.877  -2.824  0.00  0.00    +0.023 A 
ATOM     31  C   UNL     1     -11.281  -2.407  -3.788  0.00  0.00    +0.002 A 
ATOM     32  C   UNL     1     -12.598  -2.140  -3.463  0.00  0.00    +0.000 A 
ATOM     33  C   UNL     1     -13.050  -2.343  -2.172  0.00  0.00    +0.005 A 
ATOM     34  C   UNL     1     -12.187  -2.819  -1.204  0.00  0.00    -0.029 A 
ATOM     35  C   UNL     1     -12.681  -3.046   0.201  0.00  0.00    +0.045 C 
ENDBRANCH  27  29
ENDBRANCH  24  25
BRANCH  24  36
ATOM     36  C   UNL     1      -8.119  -4.301   1.486  0.00  0.00    +0.104 C 
ATOM     37  N   UNL     1      -8.301  -4.047   2.578  0.00  0.00    -0.191 NA
ENDBRANCH  24  36
ENDBRANCH   2  23
TORSDOF 8
