REMARK  Name = ZINC11866242
REMARK  12 active torsions:
REMARK  status: ('A' for Active; 'I' for Inactive)
REMARK    1  A    between atoms: C_1  and  C_2
REMARK    2  A    between atoms: C_5  and  C_34
REMARK    3  A    between atoms: C_9  and  C_10
REMARK    4  A    between atoms: C_9  and  N_64
REMARK    5  A    between atoms: C_11  and  O_33
REMARK    6  A    between atoms: C_18  and  C_19
REMARK    7  A    between atoms: C_22  and  O_29
REMARK    8  A    between atoms: C_23  and  O_27
REMARK    9  A    between atoms: C_24  and  O_25
REMARK   10  A    between atoms: O_25  and  C_26
REMARK   11  A    between atoms: O_27  and  C_28
REMARK   12  A    between atoms: O_29  and  C_30
REMARK                            x       y       z     vdW  Elec       q    Type
REMARK                         _______ _______ _______ _____ _____    ______ ____
ROOT
ATOM      1  C   UNL     1      -0.126   1.597  -1.210  0.00  0.00    +0.020 A 
ATOM      2  C   UNL     1       1.020   2.328  -1.476  0.00  0.00    +0.122 A 
ATOM      3  C   UNL     1       0.994   3.720  -1.457  0.00  0.00    +0.046 A 
ATOM      4  C   UNL     1      -0.169   4.380  -1.175  0.00  0.00    +0.019 A 
ATOM      5  C   UNL     1      -1.331   3.657  -0.905  0.00  0.00    +0.068 A 
ATOM      6  C   UNL     1      -1.318   2.253  -0.926  0.00  0.00    +0.144 A 
ATOM      7  O   UNL     1      -2.551   1.783  -0.643  0.00  0.00    -0.451 OA
ATOM      8  C   UNL     1      -3.436   2.786  -0.428  0.00  0.00    +0.176 C 
ATOM      9  C   UNL     1      -4.753   2.643  -0.122  0.00  0.00    +0.062 C 
ATOM     10  C   UNL     1      -2.712   4.054  -0.573  0.00  0.00    +0.231 C 
ATOM     11  O   UNL     1      -3.156   5.184  -0.457  0.00  0.00    -0.283 OA
ENDROOT
BRANCH   9  12
ATOM     12  C   UNL     1      -5.373   1.316  -0.154  0.00  0.00    +0.024 A 
ATOM     13  C   UNL     1      -4.573   0.164  -0.143  0.00  0.00    +0.015 A 
ATOM     14  C   UNL     1      -5.158  -1.080  -0.168  0.00  0.00    +0.050 A 
ATOM     15  C   UNL     1      -6.543  -1.203  -0.215  0.00  0.00    +0.165 A 
ATOM     16  C   UNL     1      -7.349  -0.070  -0.232  0.00  0.00    +0.204 A 
ATOM     17  C   UNL     1      -6.772   1.191  -0.201  0.00  0.00    +0.172 A 
BRANCH  17  18
ATOM     18  O   UNL     1      -7.555   2.300  -0.218  0.00  0.00    -0.491 OA
ATOM     19  C   UNL     1      -7.931   2.848   1.047  0.00  0.00    +0.277 C 
ENDBRANCH  17  18
BRANCH  16  20
ATOM     20  O   UNL     1      -8.703  -0.198  -0.278  0.00  0.00    -0.488 OA
ATOM     21  C   UNL     1      -9.297  -0.337  -1.570  0.00  0.00    +0.277 C 
ENDBRANCH  16  20
BRANCH  15  22
ATOM     22  O   UNL     1      -7.111  -2.437  -0.245  0.00  0.00    -0.491 OA
ATOM     23  C   UNL     1      -6.227  -3.559  -0.226  0.00  0.00    +0.277 C 
ENDBRANCH  15  22
ENDBRANCH   9  12
BRANCH   2  24
ATOM     24  O   UNL     1       2.180   1.681  -1.758  0.00  0.00    -0.506 OA
ATOM     25  H   UNL     1       2.312   1.502  -2.699  0.00  0.00    +0.292 HD
ENDBRANCH   2  24
BRANCH   1  26
ATOM     26  C   UNL     1      -0.083   0.091  -1.235  0.00  0.00    -0.036 C 
BRANCH  26  34
ATOM     27  C   UNL     1       0.887   0.279   2.858  0.00  0.00    +0.005 C 
ATOM     28  C   UNL     1       1.878  -0.435   1.937  0.00  0.00    -0.031 C 
ATOM     29  C   UNL     1       1.702  -1.950   2.071  0.00  0.00    +0.003 C 
ATOM     30  C   UNL     1       0.289  -2.333   1.622  0.00  0.00    -0.031 C 
ATOM     31  C   UNL     1       0.073  -1.866   0.181  0.00  0.00    -0.075 C 
ATOM     32  C   UNL     1       1.616  -0.023   0.486  0.00  0.00    -0.075 C 
ATOM     33  C   UNL     1       0.123  -3.853   1.697  0.00  0.00    +0.005 C 
ATOM     34  N   UNL     1       0.233  -0.398   0.123  0.00  0.00    +0.383 N 
ATOM     35  H   UNL     1      -0.415   0.034   0.792  0.00  0.00    -0.081 HD
ENDBRANCH  26  34
ENDBRANCH   1  26
TORSDOF 7
