REMARK  Name = ZINC38857814
REMARK  8 active torsions:
REMARK  status: ('A' for Active; 'I' for Inactive)
REMARK    1  A    between atoms: C_1  and  C_2
REMARK    2  A    between atoms: C_2  and  O_3
REMARK    3  A    between atoms: O_3  and  C_4
REMARK    4  A    between atoms: C_4  and  C_6
REMARK    5  A    between atoms: C_10  and  N_11
REMARK    6  A    between atoms: C_12  and  C_14
REMARK    7  A    between atoms: N_19  and  C_21
REMARK    8  A    between atoms: C_21  and  C_22
REMARK                            x       y       z     vdW  Elec       q    Type
REMARK                         _______ _______ _______ _____ _____    ______ ____
ROOT
ATOM      1  N   UNL     1       3.744  -2.426   1.392  0.00  0.00    -0.279 N 
ATOM      2  C   UNL     1       5.047  -2.736   1.540  0.00  0.00    +0.219 C 
ATOM      3  O   UNL     1       5.445  -3.193   2.591  0.00  0.00    -0.275 OA
ATOM      4  H   UNL     1       3.425  -2.060   0.551  0.00  0.00    +0.155 HD
ENDROOT
BRANCH   1   9
ATOM      5  C   UNL     1       1.496  -2.371   2.467  0.00  0.00    +0.091 A 
ATOM      6  C   UNL     1       0.787  -2.682   3.696  0.00  0.00    -0.021 A 
ATOM      7  C   UNL     1       1.570  -3.187   4.673  0.00  0.00    -0.004 A 
ATOM      8  S   UNL     1       3.191  -3.243   3.966  0.00  0.00    -0.077 S 
ATOM      9  C   UNL     1       2.859  -2.629   2.439  0.00  0.00    +0.086 A 
ATOM     10  C   UNL     1       1.140  -3.603   6.046  0.00  0.00    +0.043 C 
ATOM     11  C   UNL     1      -0.255  -3.018   6.312  0.00  0.00    +0.005 C 
ATOM     12  C   UNL     1      -1.153  -3.312   5.107  0.00  0.00    +0.005 C 
ATOM     13  C   UNL     1      -0.705  -2.473   3.907  0.00  0.00    +0.037 C 
BRANCH   5  14
ATOM     14  C   UNL     1       0.801  -1.814   1.305  0.00  0.00    +0.342 C 
ATOM     15  O   UNL     1       0.321  -2.557   0.470  0.00  0.00    -0.245 OA
BRANCH  14  16
ATOM     16  O   UNL     1       0.693  -0.477   1.160  0.00  0.00    -0.461 OA
BRANCH  16  18
ATOM     17  C   UNL     1      -0.019   1.526   0.010  0.00  0.00    +0.048 C 
ATOM     18  C   UNL     1       0.002  -0.004   0.002  0.00  0.00    +0.229 C 
ENDBRANCH  16  18
ENDBRANCH  14  16
ENDBRANCH   5  14
ENDBRANCH   1   9
BRANCH   2  19
ATOM     19  C   UNL     1       6.009  -2.515   0.401  0.00  0.00    +0.059 C 
ATOM     20  C   UNL     1       5.569  -3.345  -0.808  0.00  0.00    +0.009 C 
ATOM     21  C   UNL     1       6.595  -3.174  -1.932  0.00  0.00    -0.018 C 
ATOM     22  C   UNL     1       7.977  -3.583  -1.420  0.00  0.00    -0.078 C 
ATOM     23  N   UNL     1       8.352  -2.736  -0.281  0.00  0.00    +0.383 N 
ATOM     24  C   UNL     1       7.413  -2.947   0.828  0.00  0.00    -0.066 C 
ATOM     25  H   UNL     1       8.326  -1.767  -0.561  0.00  0.00    -0.081 HD
BRANCH  23  26
ATOM     26  C   UNL     1       9.711  -3.080   0.157  0.00  0.00    -0.043 C 
BRANCH  26  27
ATOM     27  C   UNL     1      10.692  -2.739  -0.934  0.00  0.00    -0.064 A 
ATOM     28  C   UNL     1      11.008  -3.679  -1.898  0.00  0.00    +0.004 A 
ATOM     29  C   UNL     1      11.908  -3.367  -2.899  0.00  0.00    +0.038 A 
ATOM     30  C   UNL     1      12.493  -2.112  -2.938  0.00  0.00    +0.123 A 
ATOM     31  C   UNL     1      12.176  -1.172  -1.972  0.00  0.00    +0.038 A 
ATOM     32  C   UNL     1      11.272  -1.484  -0.974  0.00  0.00    +0.004 A 
ATOM     33  F   UNL     1      13.373  -1.806  -3.916  0.00  0.00    -0.205 F 
ENDBRANCH  26  27
ENDBRANCH  23  26
ENDBRANCH   2  19
TORSDOF 7
