REMARK  Name = ZINC57608626
REMARK  15 active torsions:
REMARK  status: ('A' for Active; 'I' for Inactive)
REMARK    1  A    between atoms: C_1  and  C_2
REMARK    2  A    between atoms: C_5  and  C_41
REMARK    3  A    between atoms: C_9  and  C_14
REMARK    4  A    between atoms: C_14  and  C_16
REMARK    5  A    between atoms: C_14  and  N_25
REMARK    6  A    between atoms: N_20  and  C_21
REMARK    7  A    between atoms: C_21  and  C_22
REMARK    8  A    between atoms: C_21  and  C_23
REMARK    9  A    between atoms: C_21  and  C_24
REMARK   10  A    between atoms: N_25  and  C_26
REMARK   11  A    between atoms: N_25  and  C_35
REMARK   12  A    between atoms: C_26  and  C_27
REMARK   13  A    between atoms: C_30  and  O_33
REMARK   14  A    between atoms: O_33  and  C_34
REMARK   15  A    between atoms: C_35  and  C_36
REMARK                            x       y       z     vdW  Elec       q    Type
REMARK                         _______ _______ _______ _____ _____    ______ ____
ROOT
ATOM      1  C   UNL     1       0.013  -0.324   4.027  0.00  0.00    +0.163 C 
ENDROOT
BRANCH   1  10
ATOM      2  C   UNL     1       1.341   1.056  -0.815  0.00  0.00    +0.044 C 
ATOM      3  C   UNL     1       1.168  -0.441  -0.808  0.00  0.00    -0.041 A 
ATOM      4  C   UNL     1       1.368  -1.161  -1.952  0.00  0.00    +0.004 A 
ATOM      5  C   UNL     1       1.212  -2.540  -1.955  0.00  0.00    +0.005 A 
ATOM      6  C   UNL     1       0.853  -3.210  -0.806  0.00  0.00    -0.026 A 
ATOM      7  C   UNL     1       0.644  -2.499   0.371  0.00  0.00    +0.052 A 
ATOM      8  C   UNL     1       0.809  -1.101   0.372  0.00  0.00    +0.002 A 
ATOM      9  C   UNL     1       0.592  -0.362   1.617  0.00  0.00    +0.021 A 
ATOM     10  C   UNL     1       0.244  -1.055   2.729  0.00  0.00    +0.042 A 
ATOM     11  C   UNL     1       0.098  -2.458   2.676  0.00  0.00    +0.254 A 
ATOM     12  O   UNL     1      -0.215  -3.061   3.688  0.00  0.00    -0.268 OA
ATOM     13  N   UNL     1       0.285  -3.144   1.536  0.00  0.00    -0.322 N 
ATOM     14  H   UNL     1       0.176  -4.108   1.534  0.00  0.00    +0.169 HD
ATOM     15  C   UNL     1       0.687  -4.708  -0.824  0.00  0.00    +0.046 C 
ENDBRANCH   1  10
BRANCH   1  16
ATOM     16  C   UNL     1      -1.433  -0.461   4.430  0.00  0.00    +0.174 A 
ATOM     17  N   UNL     1      -2.010  -1.529   4.923  0.00  0.00    -0.111 NA
ATOM     18  N   UNL     1      -3.249  -1.248   5.138  0.00  0.00    -0.023 NA
ATOM     19  N   UNL     1      -3.477  -0.028   4.796  0.00  0.00    -0.043 NA
ATOM     20  N   UNL     1      -2.380   0.493   4.359  0.00  0.00    -0.222 N 
BRANCH  20  21
ATOM     21  C   UNL     1      -2.201   1.863   3.874  0.00  0.00    +0.059 C 
ATOM     22  C   UNL     1      -1.659   1.831   2.443  0.00  0.00    +0.036 C 
ATOM     23  C   UNL     1      -3.546   2.591   3.893  0.00  0.00    +0.036 C 
ATOM     24  C   UNL     1      -1.210   2.599   4.778  0.00  0.00    +0.036 C 
ENDBRANCH  20  21
ENDBRANCH   1  16
BRANCH   1  25
ATOM     25  N   UNL     1       0.869  -0.901   5.073  0.00  0.00    -0.277 NA
BRANCH  25  26
ATOM     26  C   UNL     1       0.781  -0.121   6.314  0.00  0.00    +0.121 C 
BRANCH  26  27
ATOM     27  C   UNL     1      -0.424  -0.566   7.103  0.00  0.00    -0.033 A 
ATOM     28  C   UNL     1      -1.613   0.132   6.999  0.00  0.00    +0.008 A 
ATOM     29  C   UNL     1      -2.719  -0.273   7.721  0.00  0.00    +0.046 A 
ATOM     30  C   UNL     1      -2.636  -1.383   8.550  0.00  0.00    +0.120 A 
ATOM     31  C   UNL     1      -1.442  -2.082   8.652  0.00  0.00    +0.046 A 
ATOM     32  C   UNL     1      -0.341  -1.675   7.924  0.00  0.00    +0.008 A 
BRANCH  30  33
ATOM     33  O   UNL     1      -3.722  -1.783   9.261  0.00  0.00    -0.495 OA
ATOM     34  C   UNL     1      -3.564  -2.933  10.094  0.00  0.00    +0.277 C 
ENDBRANCH  30  33
ENDBRANCH  26  27
ENDBRANCH  25  26
BRANCH  25  35
ATOM     35  C   UNL     1       2.261  -1.006   4.614  0.00  0.00    +0.160 C 
BRANCH  35  36
ATOM     36  C   UNL     1       3.021  -1.933   5.527  0.00  0.00    +0.119 A 
ATOM     37  C   UNL     1       3.221  -3.248   5.324  0.00  0.00    +0.046 A 
ATOM     38  C   UNL     1       3.979  -3.721   6.420  0.00  0.00    +0.041 A 
ATOM     39  C   UNL     1       4.197  -2.667   7.227  0.00  0.00    +0.195 A 
ATOM     40  O   UNL     1       3.619  -1.586   6.679  0.00  0.00    -0.467 OA
ENDBRANCH  35  36
ENDBRANCH  25  35
ENDBRANCH   1  25
TORSDOF 9
