REMARK  Name = ZINC38733816
REMARK  9 active torsions:
REMARK  status: ('A' for Active; 'I' for Inactive)
REMARK    1  A    between atoms: C_1  and  C_2
REMARK    2  A    between atoms: C_2  and  O_3
REMARK    3  A    between atoms: O_3  and  C_4
REMARK    4  A    between atoms: C_4  and  C_6
REMARK    5  A    between atoms: N_12  and  C_13
REMARK    6  A    between atoms: C_13  and  C_14
REMARK    7  A    between atoms: C_14  and  N_15
REMARK    8  A    between atoms: N_22  and  C_25
REMARK    9  A    between atoms: C_25  and  C_26
REMARK                            x       y       z     vdW  Elec       q    Type
REMARK                         _______ _______ _______ _____ _____    ______ ____
ROOT
ATOM      1  N   UNL     1       3.044  -6.031   0.179  0.00  0.00    -0.278 N 
ATOM      2  C   UNL     1       4.415  -6.201   0.320  0.00  0.00    +0.161 A 
ATOM      3  C   UNL     1       4.642  -6.522   1.662  0.00  0.00    +0.089 A 
ATOM      4  C   UNL     1       5.939  -6.750   2.096  0.00  0.00    +0.031 A 
ATOM      5  C   UNL     1       6.968  -6.650   1.171  0.00  0.00    +0.022 A 
ATOM      6  C   UNL     1       6.671  -6.328  -0.140  0.00  0.00    +0.113 A 
ATOM      7  N   UNL     1       5.428  -6.117  -0.526  0.00  0.00    -0.236 NA
ATOM      8  N   UNL     1       3.401  -6.536   2.292  0.00  0.00    -0.286 N 
ATOM      9  C   UNL     1       2.462  -6.232   1.376  0.00  0.00    +0.332 A 
ATOM     10  O   UNL     1       1.268  -6.153   1.597  0.00  0.00    -0.246 OA
ENDROOT
BRANCH   1  11
ATOM     11  C   UNL     1       2.348  -5.684  -1.063  0.00  0.00    +0.110 C 
BRANCH  11  12
ATOM     12  C   UNL     1       2.255  -4.162  -1.187  0.00  0.00    -0.056 C 
BRANCH  12  18
ATOM     13  C   UNL     1       1.342  -2.363  -2.482  0.00  0.00    +0.042 C 
ATOM     14  C   UNL     1       0.544  -2.005  -3.737  0.00  0.00    -0.004 C 
ATOM     15  C   UNL     1       1.327  -2.449  -4.977  0.00  0.00    -0.003 C 
ATOM     16  C   UNL     1       1.611  -3.951  -4.878  0.00  0.00    -0.019 C 
ATOM     17  C   UNL     1       2.369  -4.236  -3.580  0.00  0.00    -0.078 C 
ATOM     18  N   UNL     1       1.557  -3.814  -2.432  0.00  0.00    +0.390 N 
ATOM     19  H   UNL     1       0.666  -4.286  -2.459  0.00  0.00    -0.081 HD
BRANCH  13  20
ATOM     20  C   UNL     1       0.576  -1.927  -1.259  0.00  0.00    +0.293 C 
ATOM     21  O   UNL     1      -0.186  -2.694  -0.719  0.00  0.00    -0.253 OA
BRANCH  20  22
ATOM     22  O   UNL     1       0.739  -0.688  -0.771  0.00  0.00    -0.466 OA
BRANCH  22  24
ATOM     23  C   UNL     1       0.298   1.098   0.796  0.00  0.00    +0.048 C 
ATOM     24  C   UNL     1      -0.019  -0.342   0.390  0.00  0.00    +0.228 C 
ENDBRANCH  22  24
ENDBRANCH  20  22
ENDBRANCH  13  20
ENDBRANCH  12  18
ENDBRANCH  11  12
ENDBRANCH   1  11
BRANCH   8  25
ATOM     25  C   UNL     1       3.159  -6.826   3.707  0.00  0.00    +0.165 C 
BRANCH  25  26
ATOM     26  C   UNL     1       3.217  -5.545   4.499  0.00  0.00    +0.008 A 
ATOM     27  C   UNL     1       4.363  -5.215   5.198  0.00  0.00    +0.009 A 
ATOM     28  C   UNL     1       4.416  -4.040   5.924  0.00  0.00    +0.016 A 
ATOM     29  C   UNL     1       3.322  -3.193   5.952  0.00  0.00    +0.021 A 
ATOM     30  C   UNL     1       2.175  -3.522   5.254  0.00  0.00    +0.054 A 
ATOM     31  C   UNL     1       2.124  -4.696   4.522  0.00  0.00    +0.129 A 
ATOM     32  F   UNL     1       1.005  -5.015   3.834  0.00  0.00    -0.205 F 
ATOM     33 BR   UNL     1       3.397  -1.587   6.947  0.00  0.00    -0.050 Br
ENDBRANCH  25  26
ENDBRANCH   8  25
TORSDOF 8
