REMARK  Name = ZINC35532789
REMARK  9 active torsions:
REMARK  status: ('A' for Active; 'I' for Inactive)
REMARK    1  A    between atoms: C_1  and  C_2
REMARK    2  A    between atoms: C_5  and  N_9
REMARK    3  A    between atoms: C_10  and  C_12
REMARK    4  A    between atoms: C_15  and  C_36
REMARK    5  A    between atoms: C_16  and  C_17
REMARK    6  A    between atoms: C_16  and  C_18
REMARK    7  A    between atoms: N_20  and  O_21
REMARK    8  A    between atoms: O_21  and  C_22
REMARK    9  A    between atoms: C_22  and  C_24
REMARK                            x       y       z     vdW  Elec       q    Type
REMARK                         _______ _______ _______ _____ _____    ______ ____
ROOT
ATOM      1  C   UNL     1       0.310  -6.351   1.119  0.00  0.00    +0.058 C 
ATOM      2  C   UNL     1       1.568  -6.919   0.391  0.00  0.00    +0.018 C 
ATOM      3  C   UNL     1       1.712  -8.358   0.937  0.00  0.00    +0.014 C 
ATOM      4  C   UNL     1       0.534  -8.516   1.946  0.00  0.00    +0.015 C 
ATOM      5  C   UNL     1       0.441  -7.057   2.515  0.00  0.00    -0.010 C 
ATOM      6  C   UNL     1      -0.797  -6.839   3.388  0.00  0.00    +0.013 C 
ATOM      7  C   UNL     1       1.727  -6.659   3.243  0.00  0.00    +0.013 C 
ATOM      8  C   UNL     1      -0.724  -8.563   1.066  0.00  0.00    +0.066 C 
ATOM      9  N   UNL     1      -1.478  -9.573   0.846  0.00  0.00    -0.083 NA
ATOM     10  C   UNL     1      -0.895  -7.141   0.521  0.00  0.00    +0.071 C 
ATOM     11  C   UNL     1       0.685  -9.634   2.979  0.00  0.00    +0.018 C 
ENDROOT
BRANCH   1  13
ATOM     12  N   UNL     1       0.059  -4.170  -0.022  0.00  0.00    -0.285 N 
ATOM     13  C   UNL     1       0.176  -4.850   1.136  0.00  0.00    +0.224 C 
ATOM     14  O   UNL     1       0.174  -4.254   2.192  0.00  0.00    -0.275 OA
ATOM     15  H   UNL     1      -0.015  -4.651  -0.861  0.00  0.00    +0.155 HD
BRANCH  12  20
ATOM     16  C   UNL     1       0.008   1.503   0.012  0.00  0.00    +0.045 C 
ATOM     17  C   UNL     1       0.022  -0.004   0.003  0.00  0.00    -0.032 A 
ATOM     18  C   UNL     1       0.777  -0.693   0.934  0.00  0.00    +0.006 A 
ATOM     19  C   UNL     1       0.792  -2.074   0.928  0.00  0.00    +0.023 A 
ATOM     20  C   UNL     1       0.046  -2.771  -0.014  0.00  0.00    +0.035 A 
ATOM     21  C   UNL     1      -0.712  -2.078  -0.948  0.00  0.00    +0.043 A 
ATOM     22  C   UNL     1      -0.726  -0.695  -0.934  0.00  0.00    +0.046 A 
ATOM     23 CL   UNL     1      -1.678   0.174  -2.096  0.00  0.00    -0.083 Cl
ENDBRANCH  12  20
ENDBRANCH   1  13
BRANCH   9  24
ATOM     24  O   UNL     1      -1.185 -10.821   1.446  0.00  0.00    -0.312 OA
BRANCH  24  25
ATOM     25  C   UNL     1      -2.057 -11.799   1.131  0.00  0.00    +0.373 C 
ATOM     26  O   UNL     1      -2.993 -11.565   0.392  0.00  0.00    -0.242 OA
BRANCH  25  27
ATOM     27  C   UNL     1      -1.877 -13.151   1.683  0.00  0.00    +0.146 A 
ATOM     28  C   UNL     1      -2.756 -14.181   1.373  0.00  0.00    +0.033 A 
ATOM     29  C   UNL     1      -2.535 -15.449   1.968  0.00  0.00    +0.018 A 
ATOM     30  C   UNL     1      -3.261 -16.571   1.544  0.00  0.00    +0.011 A 
ATOM     31  C   UNL     1      -3.007 -17.793   2.098  0.00  0.00    +0.001 A 
ATOM     32  C   UNL     1      -2.040 -17.934   3.084  0.00  0.00    +0.004 A 
ATOM     33  C   UNL     1      -1.328 -16.840   3.531  0.00  0.00    +0.047 A 
ATOM     34  C   UNL     1      -1.574 -15.587   2.988  0.00  0.00    +0.139 A 
ATOM     35  O   UNL     1      -0.911 -14.498   3.448  0.00  0.00    -0.422 OA
ATOM     36  C   UNL     1      -0.752 -13.468   2.582  0.00  0.00    +0.352 A 
ATOM     37  O   UNL     1       0.280 -12.825   2.550  0.00  0.00    -0.244 OA
ENDBRANCH  25  27
ENDBRANCH  24  25
ENDBRANCH   9  24
TORSDOF 5
