REMARK  Name = ZINC58986944
REMARK  10 active torsions:
REMARK  status: ('A' for Active; 'I' for Inactive)
REMARK    1  A    between atoms: C_5  and  C_7
REMARK    2  A    between atoms: C_10  and  S_13
REMARK    3  A    between atoms: N_11  and  N_12
REMARK    4  A    between atoms: S_13  and  C_14
REMARK    5  A    between atoms: C_14  and  C_15
REMARK    6  A    between atoms: C_15  and  C_16
REMARK    7  A    between atoms: C_16  and  C_17
REMARK    8  A    between atoms: N_19  and  N_20
REMARK    9  A    between atoms: C_21  and  C_22
REMARK   10  A    between atoms: C_25  and  N_28
REMARK                            x       y       z     vdW  Elec       q    Type
REMARK                         _______ _______ _______ _____ _____    ______ ____
ROOT
ATOM      1  C   UNL     1       1.006  -7.064  -0.044  0.00  0.00    +0.078 C 
ENDROOT
BRANCH   1   2
ATOM      2  S   UNL     1      -0.260  -5.764  -0.032  0.00  0.00    -0.084 S 
BRANCH   2   6
ATOM      3  C   UNL     1       1.249  -2.160  -0.021  0.00  0.00    +0.183 A 
ATOM      4  N   UNL     1       2.319  -2.921  -0.030  0.00  0.00    -0.127 NA
ATOM      5  N   UNL     1       1.977  -4.160  -0.035  0.00  0.00    -0.121 NA
ATOM      6  C   UNL     1       0.667  -4.266  -0.029  0.00  0.00    +0.209 A 
ATOM      7  N   UNL     1       0.158  -2.999  -0.015  0.00  0.00    -0.224 N 
BRANCH   3  12
ATOM      8  C   UNL     1      -0.017   1.375   0.010  0.00  0.00    +0.001 A 
ATOM      9  C   UNL     1       1.170   2.087   0.002  0.00  0.00    +0.001 A 
ATOM     10  C   UNL     1       2.383   1.421  -0.013  0.00  0.00    +0.016 A 
ATOM     11  C   UNL     1       2.416   0.041  -0.021  0.00  0.00    +0.029 A 
ATOM     12  C   UNL     1       1.222  -0.682  -0.013  0.00  0.00    +0.035 A 
ATOM     13  C   UNL     1       0.002  -0.004   0.002  0.00  0.00    +0.013 A 
ATOM     14 BR   UNL     1       4.075  -0.867  -0.043  0.00  0.00    -0.050 Br
ENDBRANCH   3  12
BRANCH   7  15
ATOM     15  N   UNL     1      -1.159  -2.638  -0.001  0.00  0.00    -0.295 N 
ATOM     16  H   UNL     1      -1.517  -2.538  -0.939  0.00  0.00    +0.163 HD
ATOM     17  H   UNL     1      -1.709  -3.299   0.528  0.00  0.00    +0.163 HD
ENDBRANCH   7  15
ENDBRANCH   2   6
ENDBRANCH   1   2
BRANCH   1  18
ATOM     18  C   UNL     1       0.329  -8.436  -0.047  0.00  0.00    +0.020 C 
BRANCH  18  19
ATOM     19  C   UNL     1       1.397  -9.531  -0.057  0.00  0.00    +0.098 C 
BRANCH  19  20
ATOM     20  C   UNL     1       0.730 -10.883  -0.060  0.00  0.00    +0.232 C 
ATOM     21  O   UNL     1      -0.481 -10.962  -0.055  0.00  0.00    -0.274 OA
ATOM     22  N   UNL     1       1.478 -12.004  -0.069  0.00  0.00    -0.207 N 
ATOM     23  H   UNL     1       2.446 -11.941  -0.073  0.00  0.00    +0.177 HD
BRANCH  22  24
ATOM     24  N   UNL     1       0.858 -13.260  -0.072  0.00  0.00    -0.188 NA
ATOM     25  C   UNL     1       1.579 -14.339  -0.081  0.00  0.00    +0.138 C 
BRANCH  25  26
ATOM     26  C   UNL     1       0.926 -15.662  -0.084  0.00  0.00    -0.005 A 
ATOM     27  C   UNL     1      -0.468 -15.756  -0.084  0.00  0.00    +0.012 A 
ATOM     28  C   UNL     1      -1.071 -16.996  -0.087  0.00  0.00    +0.033 A 
ATOM     29  C   UNL     1      -0.300 -18.145  -0.090  0.00  0.00    +0.126 A 
ATOM     30  C   UNL     1       1.081 -18.059  -0.089  0.00  0.00    +0.033 A 
ATOM     31  C   UNL     1       1.698 -16.825  -0.093  0.00  0.00    +0.012 A 
BRANCH  29  32
ATOM     32  N   UNL     1      -0.955 -19.472  -0.092  0.00  0.00    +0.056 N 
ATOM     33  O   UNL     1      -2.162 -19.551  -0.092  0.00  0.00    -0.126 OA
ATOM     34  O   UNL     1      -0.284 -20.478  -0.095  0.00  0.00    -0.126 OA
ENDBRANCH  29  32
ENDBRANCH  25  26
ENDBRANCH  22  24
ENDBRANCH  19  20
ENDBRANCH  18  19
ENDBRANCH   1  18
TORSDOF 10
