REMARK  Name = ZINC52855664
REMARK  3 active torsions:
REMARK  status: ('A' for Active; 'I' for Inactive)
REMARK    1  A    between atoms: C_3  and  N_12
REMARK    2  A    between atoms: C_10  and  N_11
REMARK    3  A    between atoms: C_15  and  C_17
REMARK                            x       y       z     vdW  Elec       q    Type
REMARK                         _______ _______ _______ _____ _____    ______ ____
ROOT
ATOM      1  C   UNL     1      -0.013   1.367  -0.150  0.00  0.00    +0.025 A 
ATOM      2  C   UNL     1       1.170   2.098  -0.155  0.00  0.00    +0.030 A 
ATOM      3  C   UNL     1       2.390   1.472  -0.013  0.00  0.00    +0.073 A 
ATOM      4  C   UNL     1       2.439   0.074   0.139  0.00  0.00    +0.012 A 
ATOM      5  C   UNL     1       3.654  -0.619   0.289  0.00  0.00    +0.030 A 
ATOM      6  C   UNL     1       3.620  -1.973   0.432  0.00  0.00    +0.111 A 
ATOM      7  N   UNL     1       2.478  -2.648   0.433  0.00  0.00    -0.263 NA
ATOM      8  C   UNL     1       1.309  -2.066   0.299  0.00  0.00    +0.121 A 
ATOM      9  C   UNL     1       1.234  -0.674   0.145  0.00  0.00    +0.023 A 
ATOM     10  C   UNL     1       0.002  -0.004  -0.002  0.00  0.00    +0.034 A 
ENDROOT
BRANCH   3  11
ATOM     11  N   UNL     1       3.574   2.222  -0.021  0.00  0.00    -0.239 N 
ATOM     12  C   UNL     1       3.806   3.349   0.689  0.00  0.00    +0.115 A 
ATOM     13  C   UNL     1       5.062   3.764   0.403  0.00  0.00    +0.045 A 
ATOM     14  C   UNL     1       5.616   2.862  -0.512  0.00  0.00    +0.066 A 
ATOM     15  N   UNL     1       4.727   1.935  -0.762  0.00  0.00    -0.171 NA
BRANCH  14  16
ATOM     16  C   UNL     1       7.000   2.942  -1.103  0.00  0.00    +0.040 C 
ATOM     17  C   UNL     1       7.742   4.275  -0.988  0.00  0.00    +0.010 C 
ATOM     18  C   UNL     1       7.190   3.821  -2.341  0.00  0.00    +0.010 C 
ENDBRANCH  14  16
ENDBRANCH   3  11
BRANCH  10  19
ATOM     19  N   UNL     1      -1.192  -0.723   0.001  0.00  0.00    -0.357 N 
ATOM     20  H   UNL     1      -2.037  -0.258  -0.100  0.00  0.00    +0.142 HD
ATOM     21  H   UNL     1      -1.177  -1.687   0.105  0.00  0.00    +0.142 HD
ENDBRANCH  10  19
TORSDOF 3
