REMARK  Name = ZINC06149341
REMARK  14 active torsions:
REMARK  status: ('A' for Active; 'I' for Inactive)
REMARK    1  A    between atoms: C_1  and  C_2
REMARK    2  A    between atoms: C_2  and  C_3
REMARK    3  A    between atoms: C_3  and  C_4
REMARK    4  A    between atoms: C_3  and  C_5
REMARK    5  A    between atoms: C_3  and  N_6
REMARK    6  A    between atoms: C_7  and  C_11
REMARK    7  A    between atoms: C_11  and  C_13
REMARK    8  A    between atoms: C_11  and  N_68
REMARK    9  A    between atoms: C_16  and  C_26
REMARK   10  A    between atoms: C_19  and  C_25
REMARK   11  A    between atoms: C_27  and  C_28
REMARK   12  A    between atoms: C_27  and  N_68
REMARK   13  A    between atoms: C_29  and  C_30
REMARK   14  A    between atoms: C_29  and  N_68
REMARK                            x       y       z     vdW  Elec       q    Type
REMARK                         _______ _______ _______ _____ _____    ______ ____
ROOT
ATOM      1  C   UNL     1       2.058   0.063   1.264  0.00  0.00    +0.039 C 
ENDROOT
BRANCH   1   2
ATOM      2  C   UNL     1       2.006   1.548   1.518  0.00  0.00    +0.011 A 
ATOM      3  C   UNL     1       2.877   2.372   0.885  0.00  0.00    +0.018 A 
ATOM      4  C   UNL     1       2.798   3.810   1.150  0.00  0.00    +0.002 A 
ATOM      5  C   UNL     1       3.667   4.710   0.524  0.00  0.00    -0.041 A 
ATOM      6  C   UNL     1       3.569   6.045   0.796  0.00  0.00    +0.004 A 
ATOM      7  C   UNL     1       2.616   6.517   1.689  0.00  0.00    +0.005 A 
ATOM      8  C   UNL     1       1.750   5.648   2.317  0.00  0.00    -0.026 A 
ATOM      9  C   UNL     1       1.831   4.284   2.056  0.00  0.00    +0.052 A 
ATOM     10  N   UNL     1       0.977   3.393   2.670  0.00  0.00    -0.322 N 
ATOM     11  H   UNL     1       0.290   3.731   3.313  0.00  0.00    +0.169 HD
ATOM     12  C   UNL     1       1.055   2.074   2.417  0.00  0.00    +0.251 A 
ATOM     13  O   UNL     1       0.284   1.315   2.978  0.00  0.00    -0.268 OA
ATOM     14  C   UNL     1       0.721   6.174   3.285  0.00  0.00    +0.046 C 
ATOM     15  C   UNL     1       4.706   4.209  -0.445  0.00  0.00    +0.044 C 
ENDBRANCH   1   2
BRANCH   1  17
ATOM     16  N   UNL     1       3.594  -1.320   2.759  0.00  0.00    -0.225 N 
ATOM     17  C   UNL     1       2.449  -0.650   2.533  0.00  0.00    +0.143 A 
ATOM     18  N   UNL     1       1.742  -0.733   3.634  0.00  0.00    -0.115 NA
ATOM     19  N   UNL     1       2.414  -1.425   4.487  0.00  0.00    -0.023 NA
ATOM     20  N   UNL     1       3.535  -1.778   3.963  0.00  0.00    -0.043 NA
BRANCH  16  21
ATOM     21  C   UNL     1       4.700  -1.496   1.814  0.00  0.00    +0.061 C 
ATOM     22  C   UNL     1       4.207  -2.272   0.591  0.00  0.00    +0.036 C 
ATOM     23  C   UNL     1       5.218  -0.125   1.373  0.00  0.00    +0.036 C 
BRANCH  21  25
ATOM     24  C   UNL     1       6.985  -2.458   1.504  0.00  0.00    +0.006 C 
ATOM     25  C   UNL     1       5.830  -2.274   2.490  0.00  0.00    +0.026 C 
ENDBRANCH  21  25
ENDBRANCH  16  21
ENDBRANCH   1  17
BRANCH   1  26
ATOM     26  N   UNL     1       0.718  -0.399   0.847  0.00  0.00    +0.392 N 
ATOM     27  H   UNL     1       0.043  -0.177   1.588  0.00  0.00    -0.080 HD
BRANCH  26  28
ATOM     28  C   UNL     1       0.311   0.289  -0.397  0.00  0.00    -0.080 C 
ATOM     29  C   UNL     1       1.307  -0.002  -1.521  0.00  0.00    -0.017 C 
ENDBRANCH  26  28
BRANCH  26  30
ATOM     30  C   UNL     1       0.732  -1.862   0.633  0.00  0.00    -0.042 C 
BRANCH  30  31
ATOM     31  C   UNL     1      -0.683  -2.336   0.426  0.00  0.00    -0.064 A 
ATOM     32  C   UNL     1      -1.451  -2.715   1.512  0.00  0.00    +0.002 A 
ATOM     33  C   UNL     1      -2.751  -3.146   1.323  0.00  0.00    +0.000 A 
ATOM     34  C   UNL     1      -3.279  -3.208   0.047  0.00  0.00    +0.000 A 
ATOM     35  C   UNL     1      -2.510  -2.834  -1.039  0.00  0.00    +0.000 A 
ATOM     36  C   UNL     1      -1.212  -2.398  -0.849  0.00  0.00    +0.002 A 
ENDBRANCH  30  31
ENDBRANCH  26  30
ENDBRANCH   1  26
TORSDOF 8
