REMARK  Name = ZINC35921841
REMARK  15 active torsions:
REMARK  status: ('A' for Active; 'I' for Inactive)
REMARK    1  A    between atoms: C_1  and  C_2
REMARK    2  A    between atoms: C_2  and  C_3
REMARK    3  A    between atoms: C_2  and  C_4
REMARK    4  A    between atoms: C_4  and  N_5
REMARK    5  A    between atoms: N_5  and  C_6
REMARK    6  A    between atoms: C_6  and  C_7
REMARK    7  A    between atoms: N_10  and  C_12
REMARK    8  A    between atoms: C_17  and  O_18
REMARK    9  A    between atoms: O_18  and  C_19
REMARK   10  A    between atoms: N_22  and  C_24
REMARK   11  A    between atoms: C_24  and  C_25
REMARK   12  A    between atoms: N_29  and  C_30
REMARK   13  A    between atoms: C_30  and  C_31
REMARK   14  A    between atoms: C_30  and  C_32
REMARK   15  A    between atoms: C_30  and  C_33
REMARK                            x       y       z     vdW  Elec       q    Type
REMARK                         _______ _______ _______ _____ _____    ______ ____
ROOT
ATOM      1  C   UNL     1      -2.741  -2.938   1.363  0.00  0.00    +0.082 A 
ATOM      2  C   UNL     1      -3.436  -2.148   2.272  0.00  0.00    -0.018 A 
ATOM      3  C   UNL     1      -4.657  -2.715   2.473  0.00  0.00    +0.045 A 
ATOM      4  N   UNL     1      -4.728  -3.820   1.714  0.00  0.00    -0.233 N 
ATOM      5  N   UNL     1      -3.514  -3.942   1.021  0.00  0.00    -0.169 NA
ATOM      6  C   UNL     1      -5.687  -2.134   3.410  0.00  0.00    +0.037 C 
ATOM      7  C   UNL     1      -4.974  -1.112   4.308  0.00  0.00    -0.072 C 
ATOM      8  N   UNL     1      -4.182  -0.193   3.482  0.00  0.00    +0.385 N 
ATOM      9  C   UNL     1      -2.991  -0.879   2.954  0.00  0.00    -0.039 C 
ATOM     10  H   UNL     1      -4.746   0.136   2.713  0.00  0.00    -0.081 HD
ENDROOT
BRANCH   4  11
ATOM     11  C   UNL     1      -5.822  -4.694   1.627  0.00  0.00    +0.107 A 
ATOM     12  C   UNL     1      -7.101  -4.190   1.438  0.00  0.00    +0.031 A 
ATOM     13  C   UNL     1      -8.177  -5.052   1.352  0.00  0.00    +0.002 A 
ATOM     14  C   UNL     1      -7.983  -6.418   1.453  0.00  0.00    +0.004 A 
ATOM     15  C   UNL     1      -6.712  -6.927   1.641  0.00  0.00    +0.048 A 
ATOM     16  C   UNL     1      -5.627  -6.069   1.723  0.00  0.00    +0.145 A 
BRANCH  16  17
ATOM     17  O   UNL     1      -4.375  -6.569   1.902  0.00  0.00    -0.493 OA
ATOM     18  C   UNL     1      -4.250  -7.990   1.992  0.00  0.00    +0.277 C 
ENDBRANCH  16  17
ENDBRANCH   4  11
BRANCH   1  19
ATOM     19  C   UNL     1      -1.345  -2.683   0.856  0.00  0.00    +0.166 C 
BRANCH  19  20
ATOM     20  N   UNL     1      -0.389  -3.467   1.642  0.00  0.00    -0.280 N 
ATOM     21  C   UNL     1       0.249  -2.901   2.686  0.00  0.00    +0.303 C 
ATOM     22  O   UNL     1       0.030  -1.741   2.976  0.00  0.00    -0.253 OA
ATOM     23  N   UNL     1       1.129  -3.622   3.409  0.00  0.00    -0.294 N 
ATOM     24  H   UNL     1       1.303  -4.548   3.178  0.00  0.00    +0.151 HD
BRANCH  23  25
ATOM     25  C   UNL     1       1.821  -3.008   4.545  0.00  0.00    +0.028 C 
ATOM     26  C   UNL     1       0.793  -2.537   5.575  0.00  0.00    +0.031 C 
ATOM     27  C   UNL     1       2.756  -4.034   5.188  0.00  0.00    +0.031 C 
ATOM     28  C   UNL     1       2.638  -1.810   4.056  0.00  0.00    +0.031 C 
ENDBRANCH  23  25
BRANCH  20  29
ATOM     29  C   UNL     1      -0.125  -4.865   1.293  0.00  0.00    +0.112 C 
BRANCH  29  31
ATOM     30  C   UNL     1       1.469  -6.410   0.147  0.00  0.00    +0.009 C 
ATOM     31  C   UNL     1       1.122  -4.944   0.409  0.00  0.00    +0.000 C 
ATOM     32  C   UNL     1       0.849  -4.239  -0.921  0.00  0.00    +0.009 C 
ENDBRANCH  29  31
ENDBRANCH  20  29
ENDBRANCH  19  20
ENDBRANCH   1  19
BRANCH   8  33
ATOM     33  C   UNL     1      -3.761   0.955   4.297  0.00  0.00    -0.051 C 
BRANCH  33  34
ATOM     34  C   UNL     1      -4.974   1.742   4.721  0.00  0.00    -0.053 C 
ATOM     35  C   UNL     1      -5.188   1.982   5.991  0.00  0.00    +0.002 C 
ENDBRANCH  33  34
ENDBRANCH   8  33
TORSDOF 9
