REMARK  Name = ZINC63529261
REMARK  13 active torsions:
REMARK  status: ('A' for Active; 'I' for Inactive)
REMARK    1  A    between atoms: C_1  and  C_2
REMARK    2  A    between atoms: C_2  and  C_33
REMARK    3  A    between atoms: C_3  and  C_4
REMARK    4  A    between atoms: C_4  and  C_5
REMARK    5  A    between atoms: C_5  and  C_6
REMARK    6  A    between atoms: C_6  and  C_32
REMARK    7  A    between atoms: C_10  and  C_31
REMARK    8  A    between atoms: C_11  and  C_30
REMARK    9  A    between atoms: N_13  and  C_17
REMARK   10  A    between atoms: C_17  and  C_18
REMARK   11  A    between atoms: C_18  and  C_19
REMARK   12  A    between atoms: C_22  and  O_28
REMARK   13  A    between atoms: O_28  and  C_29
REMARK                            x       y       z     vdW  Elec       q    Type
REMARK                         _______ _______ _______ _____ _____    ______ ____
ROOT
ATOM      1  C   UNL     1      -0.829   0.174   4.680  0.00  0.00    +0.070 C 
ATOM      2  C   UNL     1      -1.987  -0.331   5.532  0.00  0.00    +0.035 C 
ATOM      3  C   UNL     1      -2.120   0.224   6.840  0.00  0.00    +0.007 C 
ATOM      4  C   UNL     1      -1.385  -0.389   7.979  0.00  0.00    +0.052 C 
ATOM      5  C   UNL     1       0.086  -0.132   7.811  0.00  0.00    +0.158 C 
ATOM      6  C   UNL     1       0.721  -0.631   6.473  0.00  0.00    +0.178 C 
ATOM      7  O   UNL     1       0.451   0.148   5.326  0.00  0.00    -0.346 OA
ATOM      8  N   UNL     1       2.100  -0.561   6.942  0.00  0.00    -0.235 N 
ATOM      9  C   UNL     1       2.194  -0.881   8.243  0.00  0.00    +0.406 C 
ATOM     10  O   UNL     1       3.138  -1.034   8.882  0.00  0.00    -0.226 OA
ATOM     11  O   UNL     1       0.962  -0.902   8.737  0.00  0.00    -0.439 OA
ATOM     12  C   UNL     1       0.334  -2.101   6.310  0.00  0.00    +0.068 C 
ATOM     13  C   UNL     1       0.397   1.331   8.011  0.00  0.00    +0.060 C 
ATOM     14  C   UNL     1      -1.056   1.647   4.352  0.00  0.00    +0.041 C 
ENDROOT
BRANCH   1  15
ATOM     15  C   UNL     1      -0.799  -0.588   3.355  0.00  0.00    +0.039 C 
BRANCH  15  16
ATOM     16  C   UNL     1       0.229   0.053   2.421  0.00  0.00    +0.030 C 
BRANCH  16  19
ATOM     17  C   UNL     1      -0.463   1.363   0.021  0.00  0.00    +0.038 C 
ATOM     18  C   UNL     1      -0.009  -0.074  -0.006  0.00  0.00    -0.080 C 
ATOM     19  C   UNL     1       0.258  -0.698   1.114  0.00  0.00    -0.028 C 
ATOM     20  C   UNL     1       0.139  -0.793  -1.323  0.00  0.00    +0.038 C 
ENDBRANCH  16  19
ENDBRANCH  15  16
ENDBRANCH   1  15
BRANCH   8  21
ATOM     21  C   UNL     1       3.243  -0.246   6.036  0.00  0.00    +0.118 C 
BRANCH  21  22
ATOM     22  C   UNL     1       3.467   1.267   6.005  0.00  0.00    +0.052 C 
BRANCH  22  23
ATOM     23  C   UNL     1       4.622   1.585   5.090  0.00  0.00    -0.040 C 
ATOM     24  C   UNL     1       4.552   1.938   3.787  0.00  0.00    +0.002 A 
ATOM     25  C   UNL     1       3.427   2.123   2.864  0.00  0.00    +0.055 A 
ATOM     26  C   UNL     1       3.668   2.487   1.582  0.00  0.00    +0.121 A 
ATOM     27  C   UNL     1       4.970   2.697   1.094  0.00  0.00    +0.047 A 
ATOM     28  C   UNL     1       6.068   2.551   1.865  0.00  0.00    +0.029 A 
ATOM     29  C   UNL     1       5.923   2.159   3.271  0.00  0.00    +0.043 A 
ATOM     30  N   UNL     1       6.804   1.952   4.218  0.00  0.00    -0.380 N 
ATOM     31  C   UNL     1       6.091   1.581   5.446  0.00  0.00    +0.144 C 
ATOM     32  H   UNL     1       7.766   2.034   4.124  0.00  0.00    +0.160 HD
BRANCH  26  33
ATOM     33  O   UNL     1       2.615   2.655   0.738  0.00  0.00    -0.495 OA
ATOM     34  C   UNL     1       2.916   3.040  -0.605  0.00  0.00    +0.277 C 
ENDBRANCH  26  33
ENDBRANCH  22  23
ENDBRANCH  21  22
ENDBRANCH   8  21
TORSDOF 7
