REMARK  Name = ZINC09001610
REMARK  10 active torsions:
REMARK  status: ('A' for Active; 'I' for Inactive)
REMARK    1  A    between atoms: C_1  and  C_2
REMARK    2  A    between atoms: C_5  and  S_8
REMARK    3  A    between atoms: S_8  and  N_11
REMARK    4  A    between atoms: N_11  and  C_12
REMARK    5  A    between atoms: C_17  and  C_18
REMARK    6  A    between atoms: C_18  and  N_20
REMARK    7  A    between atoms: N_22  and  C_31
REMARK    8  A    between atoms: C_31  and  C_32
REMARK    9  A    between atoms: C_32  and  O_33
REMARK   10  A    between atoms: O_33  and  C_34
REMARK                            x       y       z     vdW  Elec       q    Type
REMARK                         _______ _______ _______ _____ _____    ______ ____
ROOT
ATOM      1  C   UNL     1       0.089   1.374  -0.159  0.00  0.00    +0.060 A 
ATOM      2  C   UNL     1      -1.065   2.144  -0.220  0.00  0.00    +0.025 A 
ATOM      3  C   UNL     1      -0.976   3.512  -0.375  0.00  0.00    +0.002 A 
ATOM      4  C   UNL     1       0.261   4.126  -0.482  0.00  0.00    +0.001 A 
ATOM      5  C   UNL     1       1.417   3.377  -0.429  0.00  0.00    +0.015 A 
ATOM      6  C   UNL     1       1.343   1.993  -0.267  0.00  0.00    +0.061 A 
ENDROOT
BRANCH   1   7
ATOM      7  N   UNL     1       0.002  -0.004   0.002  0.00  0.00    -0.216 N 
ATOM      8  H   UNL     1       0.664  -0.473   0.534  0.00  0.00    +0.174 HD
BRANCH   7   9
ATOM      9  S   UNL     1      -1.232  -0.845  -0.714  0.00  0.00    +0.072 S 
ATOM     10  O   UNL     1      -0.974  -2.223  -0.479  0.00  0.00    -0.150 OA
ATOM     11  O   UNL     1      -2.440  -0.216  -0.309  0.00  0.00    -0.150 OA
BRANCH   9  16
ATOM     12  C   UNL     1      -0.756   0.009  -6.668  0.00  0.00    +0.044 C 
ATOM     13  C   UNL     1      -0.874  -0.204  -5.181  0.00  0.00    -0.050 A 
ATOM     14  C   UNL     1      -0.224  -1.266  -4.580  0.00  0.00    +0.005 A 
ATOM     15  C   UNL     1      -0.333  -1.462  -3.216  0.00  0.00    +0.029 A 
ATOM     16  C   UNL     1      -1.093  -0.595  -2.453  0.00  0.00    +0.109 A 
ATOM     17  C   UNL     1      -1.747   0.464  -3.053  0.00  0.00    +0.029 A 
ATOM     18  C   UNL     1      -1.634   0.662  -4.417  0.00  0.00    +0.005 A 
ENDBRANCH   9  16
ENDBRANCH   7   9
ENDBRANCH   1   7
BRANCH   6  19
ATOM     19  C   UNL     1       2.579   1.184  -0.209  0.00  0.00    +0.271 C 
ATOM     20  O   UNL     1       2.510  -0.025  -0.067  0.00  0.00    -0.268 OA
BRANCH  19  21
ATOM     21  N   UNL     1       3.773   1.779  -0.312  0.00  0.00    -0.152 NA
ATOM     22  C   UNL     1       4.883   1.052  -0.260  0.00  0.00    +0.167 A 
ATOM     23  N   UNL     1       6.179   1.465  -0.346  0.00  0.00    -0.317 N 
ATOM     24  C   UNL     1       7.211   0.546  -0.269  0.00  0.00    +0.093 A 
ATOM     25  C   UNL     1       8.594   0.801  -0.337  0.00  0.00    +0.148 A 
ATOM     26  C   UNL     1       9.506  -0.224  -0.244  0.00  0.00    +0.040 A 
ATOM     27  C   UNL     1       9.097  -1.537  -0.081  0.00  0.00    +0.004 A 
ATOM     28  C   UNL     1       7.744  -1.817  -0.010  0.00  0.00    +0.017 A 
ATOM     29  C   UNL     1       6.830  -0.793  -0.103  0.00  0.00    +0.042 A 
ATOM     30  S   UNL     1       5.056  -0.713  -0.053  0.00  0.00    -0.052 S 
ATOM     31  F   UNL     1       9.030   2.070  -0.496  0.00  0.00    -0.203 F 
BRANCH  23  32
ATOM     32  C   UNL     1       6.480   2.888  -0.519  0.00  0.00    +0.152 C 
BRANCH  32  33
ATOM     33  C   UNL     1       6.626   3.549   0.853  0.00  0.00    +0.181 C 
BRANCH  33  34
ATOM     34  O   UNL     1       6.921   4.937   0.684  0.00  0.00    -0.381 OA
ATOM     35  C   UNL     1       7.077   5.652   1.911  0.00  0.00    +0.194 C 
ENDBRANCH  33  34
ENDBRANCH  32  33
ENDBRANCH  23  32
ENDBRANCH  19  21
ENDBRANCH   6  19
TORSDOF 8
