REMARK  Name = ZINC40564485
REMARK  7 active torsions:
REMARK  status: ('A' for Active; 'I' for Inactive)
REMARK    1  A    between atoms: C_4  and  C_29
REMARK    2  A    between atoms: C_6  and  C_7
REMARK    3  A    between atoms: C_10  and  C_12
REMARK    4  A    between atoms: N_16  and  C_20
REMARK    5  A    between atoms: C_20  and  C_22
REMARK    6  A    between atoms: C_20  and  C_26
REMARK    7  A    between atoms: C_22  and  C_23
REMARK                            x       y       z     vdW  Elec       q    Type
REMARK                         _______ _______ _______ _____ _____    ______ ____
ROOT
ATOM      1  C   UNL     1      -1.264  -0.762   0.011  0.00  0.00    +0.136 A 
ATOM      2  C   UNL     1      -2.517  -0.218   0.020  0.00  0.00    +0.050 A 
ATOM      3  C   UNL     1      -3.426  -1.279   0.026  0.00  0.00    +0.050 A 
ATOM      4  C   UNL     1      -2.680  -2.444   0.019  0.00  0.00    +0.130 A 
ATOM      5  O   UNL     1      -1.374  -2.103   0.004  0.00  0.00    -0.455 OA
ENDROOT
BRANCH   4   6
ATOM      6  C   UNL     1      -3.194  -3.759   0.021  0.00  0.00    +0.066 C 
ATOM      7  C   UNL     1      -2.341  -4.825   0.014  0.00  0.00    +0.080 C 
ATOM      8  C   UNL     1      -2.635  -6.223   0.009  0.00  0.00    +0.259 C 
ATOM      9  O   UNL     1      -3.785  -6.622   0.011  0.00  0.00    -0.269 OA
ATOM     10  N   UNL     1      -1.620  -7.070   0.001  0.00  0.00    -0.241 N 
ATOM     11  C   UNL     1      -0.344  -6.626  -0.002  0.00  0.00    +0.121 C 
ATOM     12  S   UNL     1       1.108  -7.534  -0.013  0.00  0.00    -0.027 S 
ATOM     13  S   UNL     1      -0.554  -4.852   0.000  0.00  0.00    -0.061 S 
BRANCH  10  14
ATOM     14  C   UNL     1      -1.883  -8.511  -0.004  0.00  0.00    +0.206 C 
BRANCH  14  15
ATOM     15  C   UNL     1      -1.279  -9.127  -1.240  0.00  0.00    +0.377 C 
ATOM     16  O   UNL     1      -0.281  -8.638  -1.740  0.00  0.00    -0.244 OA
ATOM     17  O   UNL     1      -1.789 -10.115  -1.740  0.00  0.00    -0.244 OA
ENDBRANCH  14  15
BRANCH  14  18
ATOM     18  C   UNL     1      -1.260  -9.147   1.240  0.00  0.00    +0.159 C 
BRANCH  18  19
ATOM     19  C   UNL     1      -1.949  -8.621   2.472  0.00  0.00    +0.358 C 
ATOM     20  O   UNL     1      -2.854  -7.811   2.365  0.00  0.00    -0.246 OA
ATOM     21  O   UNL     1      -1.601  -9.004   3.576  0.00  0.00    -0.246 OA
ENDBRANCH  18  19
ENDBRANCH  14  18
ENDBRANCH  10  14
ENDBRANCH   4   6
BRANCH   1  27
ATOM     22  C   UNL     1      -0.017   1.393   0.010  0.00  0.00    +0.013 A 
ATOM     23  C   UNL     1       1.170   2.095   0.002  0.00  0.00    +0.021 A 
ATOM     24  C   UNL     1       2.378   1.419  -0.013  0.00  0.00    +0.053 A 
ATOM     25  C   UNL     1       2.404   0.034  -0.021  0.00  0.00    +0.074 A 
ATOM     26  C   UNL     1       1.225  -0.680  -0.013  0.00  0.00    +0.025 A 
ATOM     27  C   UNL     1       0.002  -0.004   0.002  0.00  0.00    +0.018 A 
ATOM     28 CL   UNL     1       3.868   2.312  -0.023  0.00  0.00    -0.083 Cl
BRANCH  25  29
ATOM     29  C   UNL     1       3.724  -0.693  -0.038  0.00  0.00    +0.419 C 
ATOM     30  F   UNL     1       3.496  -2.073  -0.043  0.00  0.00    -0.166 F 
ATOM     31  F   UNL     1       4.439  -0.334  -1.185  0.00  0.00    -0.166 F 
ATOM     32  F   UNL     1       4.462  -0.347   1.099  0.00  0.00    -0.166 F 
ENDBRANCH  25  29
ENDBRANCH   1  27
TORSDOF 7
