REMARK  Name = ZINC66638087
REMARK  7 active torsions:
REMARK  status: ('A' for Active; 'I' for Inactive)
REMARK    1  A    between atoms: C_1  and  C_2
REMARK    2  A    between atoms: C_2  and  C_17
REMARK    3  A    between atoms: C_3  and  C_4
REMARK    4  A    between atoms: N_6  and  C_7
REMARK    5  A    between atoms: C_7  and  C_8
REMARK    6  A    between atoms: N_12  and  C_13
REMARK    7  A    between atoms: C_20  and  C_23
REMARK                            x       y       z     vdW  Elec       q    Type
REMARK                         _______ _______ _______ _____ _____    ______ ____
ROOT
ATOM      1  C   UNL     1      -0.994  -2.233   1.257  0.00  0.00    +0.238 C 
ATOM      2  O   UNL     1      -1.094  -2.844   0.209  0.00  0.00    -0.271 OA
ATOM      3  N   UNL     1      -0.684  -2.890   2.393  0.00  0.00    -0.305 N 
ATOM      4  H   UNL     1      -0.604  -2.403   3.228  0.00  0.00    +0.149 HD
ENDROOT
BRANCH   1   7
ATOM      5  C   UNL     1      -1.741   1.362   0.176  0.00  0.00    +0.044 C 
ATOM      6  C   UNL     1      -1.519  -0.129   0.148  0.00  0.00    -0.038 C 
ATOM      7  C   UNL     1      -1.210  -0.785   1.284  0.00  0.00    +0.071 C 
BRANCH   6   8
ATOM      8  C   UNL     1      -1.641  -0.867  -1.119  0.00  0.00    -0.022 A 
ATOM      9  C   UNL     1      -0.523  -1.498  -1.675  0.00  0.00    +0.009 A 
ATOM     10  C   UNL     1      -0.645  -2.188  -2.862  0.00  0.00    +0.013 A 
ATOM     11  C   UNL     1      -1.869  -2.257  -3.505  0.00  0.00    +0.055 A 
ATOM     12  C   UNL     1      -2.980  -1.635  -2.961  0.00  0.00    +0.013 A 
ATOM     13  C   UNL     1      -2.875  -0.947  -1.771  0.00  0.00    +0.009 A 
BRANCH  11  14
ATOM     14  C   UNL     1      -1.993  -3.013  -4.803  0.00  0.00    +0.417 C 
ATOM     15  F   UNL     1      -2.320  -4.346  -4.536  0.00  0.00    -0.166 F 
ATOM     16  F   UNL     1      -2.998  -2.433  -5.585  0.00  0.00    -0.166 F 
ATOM     17  F   UNL     1      -0.777  -2.959  -5.492  0.00  0.00    -0.166 F 
ENDBRANCH  11  14
ENDBRANCH   6   8
ENDBRANCH   1   7
BRANCH   3  18
ATOM     18  C   UNL     1      -0.469  -4.338   2.366  0.00  0.00    +0.181 C 
BRANCH  18  19
ATOM     19  C   UNL     1      -0.139  -4.823   3.754  0.00  0.00    +0.149 A 
ATOM     20  N   UNL     1      -0.062  -4.082   4.812  0.00  0.00    -0.157 NA
ATOM     21  N   UNL     1       0.266  -4.904   5.899  0.00  0.00    -0.254 N 
ATOM     22  C   UNL     1       0.379  -6.164   5.428  0.00  0.00    +0.176 A 
ATOM     23  N   UNL     1       0.124  -6.124   4.105  0.00  0.00    -0.303 N 
ATOM     24  S   UNL     1       0.765  -7.558   6.345  0.00  0.00    -0.011 S 
ATOM     25  H   UNL     1       0.390  -4.621   6.818  0.00  0.00    +0.191 HD
BRANCH  23  26
ATOM     26  C   UNL     1       0.131  -7.273   3.195  0.00  0.00    +0.091 C 
ATOM     27  C   UNL     1       0.070  -8.668   3.819  0.00  0.00    +0.027 C 
ATOM     28  C   UNL     1       1.373  -8.166   3.194  0.00  0.00    +0.027 C 
ENDBRANCH  23  26
ENDBRANCH  18  19
ENDBRANCH   3  18
TORSDOF 6
