REMARK  Name = ZINC12810720
REMARK  5 active torsions:
REMARK  status: ('A' for Active; 'I' for Inactive)
REMARK    1  A    between atoms: C_1  and  C_2
REMARK    2  A    between atoms: C_5  and  C_8
REMARK    3  A    between atoms: C_12  and  C_13
REMARK    4  A    between atoms: N_15  and  N_16
REMARK    5  A    between atoms: C_17  and  C_19
REMARK                            x       y       z     vdW  Elec       q    Type
REMARK                         _______ _______ _______ _____ _____    ______ ____
ROOT
ATOM      1  C   UNL     1       7.185  -3.102   3.881  0.00  0.00    +0.267 C 
ATOM      2  O   UNL     1       6.443  -4.067   3.881  0.00  0.00    -0.268 OA
ATOM      3  N   UNL     1       6.772  -1.935   3.349  0.00  0.00    -0.230 N 
ATOM      4  H   UNL     1       7.364  -1.166   3.349  0.00  0.00    +0.173 HD
ENDROOT
BRANCH   1   9
ATOM      5  C   UNL     1       9.140  -4.313   5.058  0.00  0.00    +0.001 A 
ATOM      6  C   UNL     1      10.432  -4.127   5.517  0.00  0.00    +0.017 A 
ATOM      7  C   UNL     1      11.016  -2.913   5.375  0.00  0.00    +0.046 A 
ATOM      8  S   UNL     1       9.797  -1.966   4.586  0.00  0.00    -0.091 S 
ATOM      9  C   UNL     1       8.525  -3.210   4.458  0.00  0.00    +0.083 A 
BRANCH   5  14
ATOM     10  C   UNL     1       6.443  -9.373   5.574  0.00  0.00    +0.044 C 
ATOM     11  C   UNL     1       7.149  -8.049   5.438  0.00  0.00    -0.050 A 
ATOM     12  C   UNL     1       8.425  -7.999   4.906  0.00  0.00    +0.004 A 
ATOM     13  C   UNL     1       9.076  -6.790   4.780  0.00  0.00    +0.009 A 
ATOM     14  C   UNL     1       8.446  -5.615   5.190  0.00  0.00    -0.017 A 
ATOM     15  C   UNL     1       7.162  -5.672   5.732  0.00  0.00    +0.009 A 
ATOM     16  C   UNL     1       6.519  -6.887   5.848  0.00  0.00    +0.004 A 
ENDBRANCH   5  14
ENDBRANCH   1   9
BRANCH   3  17
ATOM     17  N   UNL     1       5.489  -1.831   2.797  0.00  0.00    -0.230 N 
ATOM     18  C   UNL     1       5.076  -0.664   2.265  0.00  0.00    +0.260 C 
ATOM     19  O   UNL     1       5.817   0.300   2.265  0.00  0.00    -0.269 OA
ATOM     20  H   UNL     1       4.897  -2.600   2.797  0.00  0.00    +0.173 HD
BRANCH  18  21
ATOM     21  C   UNL     1       3.724  -0.555   1.684  0.00  0.00    +0.042 A 
ATOM     22  C   UNL     1       2.870  -1.661   1.683  0.00  0.00    +0.017 A 
ATOM     23  C   UNL     1       1.609  -1.558   1.139  0.00  0.00    +0.050 A 
ATOM     24  C   UNL     1       1.181  -0.356   0.590  0.00  0.00    +0.166 A 
ATOM     25  C   UNL     1       2.028   0.752   0.588  0.00  0.00    +0.167 A 
ATOM     26  C   UNL     1       3.294   0.655   1.132  0.00  0.00    +0.062 A 
ATOM     27  O   UNL     1       1.376   1.797  -0.001  0.00  0.00    -0.453 OA
ATOM     28  C   UNL     1      -0.017   1.435   0.010  0.00  0.00    +0.466 C 
ATOM     29  O   UNL     1       0.002  -0.004   0.002  0.00  0.00    -0.453 OA
ENDBRANCH  18  21
ENDBRANCH   3  17
TORSDOF 4
