REMARK  Name = ZINC02918300
REMARK  8 active torsions:
REMARK  status: ('A' for Active; 'I' for Inactive)
REMARK    1  A    between atoms: C_1  and  C_2
REMARK    2  A    between atoms: C_2  and  O_3
REMARK    3  A    between atoms: O_3  and  C_4
REMARK    4  A    between atoms: C_6  and  C_14
REMARK    5  A    between atoms: C_9  and  O_10
REMARK    6  A    between atoms: O_10  and  C_11
REMARK    7  A    between atoms: C_17  and  C_24
REMARK    8  A    between atoms: C_28  and  N_30
REMARK                            x       y       z     vdW  Elec       q    Type
REMARK                         _______ _______ _______ _____ _____    ______ ____
ROOT
ATOM      1  C   UNL     1       0.654  -4.954  -0.018  0.00  0.00    +0.152 C 
ATOM      2  C   UNL     1       0.938  -5.379   1.411  0.00  0.00    +0.030 C 
ATOM      3  C   UNL     1       0.941  -6.699   1.676  0.00  0.00    +0.073 C 
ATOM      4  N   UNL     1       0.702  -7.625   0.715  0.00  0.00    -0.213 NA
ATOM      5  C   UNL     1       0.449  -7.342  -0.541  0.00  0.00    +0.237 C 
ATOM      6  N   UNL     1       0.407  -6.036  -0.977  0.00  0.00    -0.208 N 
ATOM      7  N   UNL     1       0.115  -6.083  -2.342  0.00  0.00    -0.251 N 
ATOM      8  C   UNL     1      -0.006  -7.400  -2.666  0.00  0.00    +0.203 C 
ATOM      9  N   UNL     1       0.192  -8.125  -1.611  0.00  0.00    -0.205 NA
ATOM     10  H   UNL     1       0.018  -5.326  -2.941  0.00  0.00    +0.171 HD
ENDROOT
BRANCH   1  13
ATOM     11  C   UNL     1      -1.498  -1.849   0.006  0.00  0.00    +0.162 A 
ATOM     12  C   UNL     1      -0.389  -2.680  -0.003  0.00  0.00    +0.055 A 
ATOM     13  C   UNL     1      -0.553  -4.052  -0.008  0.00  0.00    -0.018 A 
ATOM     14  C   UNL     1      -1.823  -4.600  -0.005  0.00  0.00    +0.009 A 
ATOM     15  C   UNL     1      -2.934  -3.777   0.004  0.00  0.00    +0.050 A 
ATOM     16  C   UNL     1      -2.776  -2.400   0.016  0.00  0.00    +0.168 A 
BRANCH  11  17
ATOM     17  O   UNL     1      -1.339  -0.499   0.012  0.00  0.00    -0.489 OA
BRANCH  17  19
ATOM     18  C   UNL     1      -0.019   1.526   0.010  0.00  0.00    +0.048 C 
ATOM     19  C   UNL     1       0.002  -0.004   0.002  0.00  0.00    +0.226 C 
ENDBRANCH  17  19
ENDBRANCH  11  17
BRANCH  16  20
ATOM     20  O   UNL     1      -3.868  -1.589   0.030  0.00  0.00    -0.431 OA
BRANCH  20  21
ATOM     21  C   UNL     1      -5.148  -2.225   0.039  0.00  0.00    +0.541 C 
ATOM     22  F   UNL     1      -5.283  -3.017  -1.106  0.00  0.00    -0.166 F 
ATOM     23  F   UNL     1      -5.261  -3.029   1.178  0.00  0.00    -0.166 F 
ENDBRANCH  20  21
ENDBRANCH  16  20
ENDBRANCH   1  13
BRANCH   3  24
ATOM     24  C   UNL     1       1.214  -7.154   3.062  0.00  0.00    +0.002 A 
ATOM     25  C   UNL     1       1.457  -6.222   4.069  0.00  0.00    +0.010 A 
ATOM     26  C   UNL     1       1.711  -6.651   5.356  0.00  0.00    +0.003 A 
ATOM     27  C   UNL     1       1.725  -8.003   5.647  0.00  0.00    +0.033 A 
ATOM     28  C   UNL     1       1.485  -8.932   4.651  0.00  0.00    +0.127 A 
ATOM     29  C   UNL     1       1.224  -8.514   3.362  0.00  0.00    +0.042 A 
BRANCH  28  30
ATOM     30  N   UNL     1       1.503 -10.378   4.970  0.00  0.00    +0.056 N 
ATOM     31  O   UNL     1       1.727 -10.745   6.100  0.00  0.00    -0.126 OA
ATOM     32  O   UNL     1       1.293 -11.191   4.100  0.00  0.00    -0.126 OA
ENDBRANCH  28  30
ENDBRANCH   3  24
TORSDOF 7
