REMARK  Name = ZINC40149135
REMARK  10 active torsions:
REMARK  status: ('A' for Active; 'I' for Inactive)
REMARK    1  A    between atoms: C_1  and  O_2
REMARK    2  A    between atoms: O_2  and  C_3
REMARK    3  A    between atoms: C_8  and  N_9
REMARK    4  A    between atoms: C_10  and  C_29
REMARK    5  A    between atoms: N_12  and  C_15
REMARK    6  A    between atoms: C_15  and  N_16
REMARK    7  A    between atoms: C_21  and  C_23
REMARK    8  A    between atoms: C_23  and  N_24
REMARK    9  A    between atoms: N_24  and  S_25
REMARK   10  A    between atoms: S_25  and  C_28
REMARK                            x       y       z     vdW  Elec       q    Type
REMARK                         _______ _______ _______ _____ _____    ______ ____
ROOT
ATOM      1  N   UNL     1      -0.405  -3.719   0.412  0.00  0.00    -0.267 N 
ATOM      2  C   UNL     1       0.406  -4.168   1.439  0.00  0.00    +0.174 A 
ATOM      3  N   UNL     1       1.512  -4.632   0.921  0.00  0.00    -0.151 NA
ATOM      4  N   UNL     1       1.432  -4.488  -0.471  0.00  0.00    -0.257 N 
ATOM      5  C   UNL     1       0.238  -3.928  -0.754  0.00  0.00    +0.181 A 
ATOM      6  S   UNL     1      -0.353  -3.547  -2.315  0.00  0.00    -0.011 S 
ENDROOT
BRANCH   1  12
ATOM      7  C   UNL     1      -1.814  -1.772   0.710  0.00  0.00    +0.144 A 
ATOM      8  C   UNL     1      -3.075  -1.215   0.848  0.00  0.00    +0.048 A 
ATOM      9  C   UNL     1      -4.194  -2.027   0.841  0.00  0.00    +0.004 A 
ATOM     10  C   UNL     1      -4.059  -3.396   0.697  0.00  0.00    +0.002 A 
ATOM     11  C   UNL     1      -2.805  -3.959   0.559  0.00  0.00    +0.030 A 
ATOM     12  C   UNL     1      -1.678  -3.150   0.558  0.00  0.00    +0.092 A 
BRANCH   7  14
ATOM     13  C   UNL     1      -0.929   0.428   0.876  0.00  0.00    +0.277 C 
ATOM     14  O   UNL     1      -0.713  -0.975   0.716  0.00  0.00    -0.493 OA
ENDBRANCH   7  14
ENDBRANCH   1  12
BRANCH   2  15
ATOM     15  C   UNL     1       0.078  -4.128   2.874  0.00  0.00    +0.057 A 
ATOM     16  C   UNL     1       0.828  -4.546   3.944  0.00  0.00    +0.019 A 
ATOM     17  C   UNL     1       0.307  -4.407   5.211  0.00  0.00    +0.008 A 
ATOM     18  C   UNL     1      -0.928  -3.863   5.363  0.00  0.00    +0.046 A 
ATOM     19  S   UNL     1      -1.396  -3.517   3.675  0.00  0.00    -0.094 S 
ENDBRANCH   2  15
BRANCH   4  20
ATOM     20  C   UNL     1       2.456  -4.880  -1.442  0.00  0.00    +0.072 C 
BRANCH  20  21
ATOM     21  N   UNL     1       2.454  -6.341  -1.593  0.00  0.00    +0.395 N 
ATOM     22  C   UNL     1       1.160  -6.773  -2.136  0.00  0.00    -0.076 C 
ATOM     23  C   UNL     1       1.122  -8.300  -2.220  0.00  0.00    -0.019 C 
ATOM     24  C   UNL     1       2.249  -8.784  -3.137  0.00  0.00    -0.003 C 
ATOM     25  C   UNL     1       3.587  -8.265  -2.602  0.00  0.00    -0.014 C 
ATOM     26  C   UNL     1       3.534  -6.739  -2.504  0.00  0.00    -0.050 C 
ATOM     27  H   UNL     1       2.599  -6.772  -0.692  0.00  0.00    -0.079 HD
BRANCH  26  28
ATOM     28  C   UNL     1       4.869  -6.216  -1.970  0.00  0.00    +0.090 C 
BRANCH  28  29
ATOM     29  N   UNL     1       5.058  -6.676  -0.592  0.00  0.00    -0.196 NA
ATOM     30  H   UNL     1       4.303  -7.013  -0.086  0.00  0.00    +0.148 HD
BRANCH  29  31
ATOM     31  S   UNL     1       6.561  -6.620   0.100  0.00  0.00    +0.026 S 
ATOM     32  O   UNL     1       6.380  -7.156   1.404  0.00  0.00    -0.158 OA
ATOM     33  O   UNL     1       7.415  -7.265  -0.835  0.00  0.00    -0.158 OA
ATOM     34  C   UNL     1       6.964  -4.854   0.200  0.00  0.00    +0.214 C 
ENDBRANCH  29  31
ENDBRANCH  28  29
ENDBRANCH  26  28
ENDBRANCH  20  21
ENDBRANCH   4  20
TORSDOF 8
