REMARK  Name = ZINC00084324
REMARK  4 active torsions:
REMARK  status: ('A' for Active; 'I' for Inactive)
REMARK    1  A    between atoms: C_4  and  N_11
REMARK    2  A    between atoms: C_5  and  C_7
REMARK    3  A    between atoms: C_12  and  C_14
REMARK    4  A    between atoms: C_14  and  C_15
REMARK                            x       y       z     vdW  Elec       q    Type
REMARK                         _______ _______ _______ _____ _____    ______ ____
ROOT
ATOM      1  N   UNL     1       2.397   1.533  -0.013  0.00  0.00    -0.285 N 
ATOM      2  C   UNL     1       3.550   2.222  -0.122  0.00  0.00    +0.219 C 
ATOM      3  O   UNL     1       3.535   3.435  -0.115  0.00  0.00    -0.275 OA
ATOM      4  H   UNL     1       2.413   0.565   0.047  0.00  0.00    +0.155 HD
ENDROOT
BRANCH   1   8
ATOM      5  C   UNL     1      -1.241   3.563   0.064  0.00  0.00    +0.001 A 
ATOM      6  C   UNL     1      -0.123   4.128   0.651  0.00  0.00    +0.002 A 
ATOM      7  C   UNL     1       1.084   3.457   0.627  0.00  0.00    +0.024 A 
ATOM      8  C   UNL     1       1.175   2.215   0.013  0.00  0.00    +0.045 A 
ATOM      9  C   UNL     1       0.050   1.650  -0.575  0.00  0.00    +0.076 A 
ATOM     10  C   UNL     1      -1.153   2.329  -0.552  0.00  0.00    +0.014 A 
BRANCH   9  11
ATOM     11  C   UNL     1       0.144   0.302  -1.242  0.00  0.00    +0.419 C 
ATOM     12  F   UNL     1      -1.108  -0.052  -1.756  0.00  0.00    -0.166 F 
ATOM     13  F   UNL     1       1.076   0.361  -2.283  0.00  0.00    -0.166 F 
ATOM     14  F   UNL     1       0.552  -0.654  -0.305  0.00  0.00    -0.166 F 
ENDBRANCH   9  11
ENDBRANCH   1   8
BRANCH   2  15
ATOM     15  C   UNL     1       4.858   1.485  -0.253  0.00  0.00    +0.127 C 
BRANCH  15  16
ATOM     16  C   UNL     1       6.003   2.494  -0.359  0.00  0.00    +0.166 C 
ATOM     17  C   UNL     1       7.321   1.761  -0.371  0.00  0.00    +0.238 C 
ATOM     18  O   UNL     1       7.898   1.547   0.674  0.00  0.00    -0.273 OA
ATOM     19  N   UNL     1       7.863   1.343  -1.532  0.00  0.00    -0.282 N 
ATOM     20  C   UNL     1       7.294   1.699  -2.760  0.00  0.00    +0.055 A 
ATOM     21  C   UNL     1       7.721   1.100  -3.935  0.00  0.00    +0.025 A 
ATOM     22  C   UNL     1       7.134   1.446  -5.138  0.00  0.00    +0.002 A 
ATOM     23  C   UNL     1       6.122   2.388  -5.176  0.00  0.00    +0.002 A 
ATOM     24  C   UNL     1       5.692   2.994  -4.009  0.00  0.00    +0.025 A 
ATOM     25  C   UNL     1       6.279   2.655  -2.802  0.00  0.00    +0.049 A 
ATOM     26  N   UNL     1       5.868   3.261  -1.606  0.00  0.00    -0.331 N 
ATOM     27  H   UNL     1       8.659   0.789  -1.515  0.00  0.00    +0.155 HD
ATOM     28  H   UNL     1       5.506   4.160  -1.602  0.00  0.00    +0.147 HD
ENDBRANCH  15  16
ENDBRANCH   2  15
TORSDOF 4
