REMARK  Name = ZINC59472855
REMARK  14 active torsions:
REMARK  status: ('A' for Active; 'I' for Inactive)
REMARK    1  A    between atoms: C_1  and  C_2
REMARK    2  A    between atoms: C_5  and  C_36
REMARK    3  A    between atoms: C_6  and  N_8
REMARK    4  A    between atoms: N_8  and  C_9
REMARK    5  A    between atoms: N_8  and  S_27
REMARK    6  A    between atoms: C_9  and  C_10
REMARK    7  A    between atoms: N_12  and  N_13
REMARK    8  A    between atoms: C_14  and  C_15
REMARK    9  A    between atoms: C_19  and  O_21
REMARK   10  A    between atoms: O_21  and  C_22
REMARK   11  A    between atoms: C_22  and  C_23
REMARK   12  A    between atoms: C_23  and  O_25
REMARK   13  A    between atoms: O_25  and  C_26
REMARK   14  A    between atoms: S_27  and  C_30
REMARK                            x       y       z     vdW  Elec       q    Type
REMARK                         _______ _______ _______ _____ _____    ______ ____
ROOT
ATOM      1  C   UNL     1      -1.301  -3.454   3.549  0.00  0.00    +0.228 C 
ENDROOT
BRANCH   1   2
ATOM      2  C   UNL     1      -1.673  -4.862   3.163  0.00  0.00    +0.251 C 
ATOM      3  O   UNL     1      -1.060  -5.433   2.286  0.00  0.00    -0.272 OA
ATOM      4  N   UNL     1      -2.688  -5.487   3.793  0.00  0.00    -0.206 N 
ATOM      5  H   UNL     1      -3.178  -5.031   4.494  0.00  0.00    +0.177 HD
BRANCH   4   6
ATOM      6  N   UNL     1      -3.034  -6.797   3.434  0.00  0.00    -0.188 NA
ATOM      7  C   UNL     1      -4.010  -7.399   4.040  0.00  0.00    +0.138 C 
BRANCH   7   8
ATOM      8  C   UNL     1      -4.375  -8.777   3.663  0.00  0.00    -0.002 A 
ATOM      9  C   UNL     1      -3.666  -9.440   2.657  0.00  0.00    +0.010 A 
ATOM     10  C   UNL     1      -4.010 -10.729   2.307  0.00  0.00    +0.004 A 
ATOM     11  C   UNL     1      -5.055 -11.369   2.948  0.00  0.00    +0.046 A 
ATOM     12  C   UNL     1      -5.765 -10.719   3.949  0.00  0.00    +0.122 A 
ATOM     13  C   UNL     1      -5.425  -9.428   4.313  0.00  0.00    +0.055 A 
BRANCH  12  14
ATOM     14  O   UNL     1      -6.790 -11.354   4.575  0.00  0.00    -0.481 OA
BRANCH  14  15
ATOM     15  C   UNL     1      -7.082 -12.688   4.153  0.00  0.00    +0.349 C 
BRANCH  15  16
ATOM     16  C   UNL     1      -8.240 -13.226   4.954  0.00  0.00    +0.345 C 
ATOM     17  O   UNL     1      -8.762 -12.537   5.799  0.00  0.00    -0.247 OA
BRANCH  16  18
ATOM     18  O   UNL     1      -8.692 -14.469   4.728  0.00  0.00    -0.466 OA
ATOM     19  C   UNL     1      -9.793 -14.914   5.523  0.00  0.00    +0.280 C 
ENDBRANCH  16  18
ENDBRANCH  15  16
ENDBRANCH  14  15
ENDBRANCH  12  14
ENDBRANCH   7   8
ENDBRANCH   4   6
ENDBRANCH   1   2
BRANCH   1  20
ATOM     20  N   UNL     1      -0.274  -2.952   2.633  0.00  0.00    -0.194 N 
BRANCH  20  26
ATOM     21  C   UNL     1      -1.441  -3.420  -2.118  0.00  0.00    +0.044 C 
ATOM     22  C   UNL     1      -1.217  -2.565  -0.897  0.00  0.00    -0.049 A 
ATOM     23  C   UNL     1      -1.380  -1.193  -0.975  0.00  0.00    +0.004 A 
ATOM     24  C   UNL     1      -1.176  -0.405   0.142  0.00  0.00    +0.005 A 
ATOM     25  C   UNL     1      -0.809  -0.985   1.341  0.00  0.00    -0.028 A 
ATOM     26  C   UNL     1      -0.645  -2.362   1.423  0.00  0.00    +0.055 A 
ATOM     27  C   UNL     1      -0.856  -3.152   0.299  0.00  0.00    +0.028 A 
ATOM     28  C   UNL     1      -0.586  -0.125   2.558  0.00  0.00    +0.046 C 
ENDBRANCH  20  26
BRANCH  20  29
ATOM     29  S   UNL     1       1.328  -3.084   3.033  0.00  0.00    +0.075 S 
ATOM     30  O   UNL     1       1.431  -4.171   3.942  0.00  0.00    -0.150 OA
ATOM     31  O   UNL     1       2.056  -3.040   1.813  0.00  0.00    -0.150 OA
BRANCH  29  32
ATOM     32  C   UNL     1       1.762  -1.632   3.931  0.00  0.00    +0.109 A 
ATOM     33  C   UNL     1       2.378  -0.577   3.284  0.00  0.00    +0.029 A 
ATOM     34  C   UNL     1       2.718   0.562   3.989  0.00  0.00    +0.002 A 
ATOM     35  C   UNL     1       2.443   0.647   5.341  0.00  0.00    +0.000 A 
ATOM     36  C   UNL     1       1.827  -0.408   5.988  0.00  0.00    +0.002 A 
ATOM     37  C   UNL     1       1.482  -1.546   5.282  0.00  0.00    +0.029 A 
ENDBRANCH  29  32
ENDBRANCH  20  29
ENDBRANCH   1  20
TORSDOF 11
