REMARK  Name = ZINC40993681
REMARK  10 active torsions:
REMARK  status: ('A' for Active; 'I' for Inactive)
REMARK    1  A    between atoms: C_1  and  C_2
REMARK    2  A    between atoms: C_2  and  C_4
REMARK    3  A    between atoms: C_2  and  O_27
REMARK    4  A    between atoms: N_6  and  C_7
REMARK    5  A    between atoms: C_8  and  C_16
REMARK    6  A    between atoms: C_18  and  C_21
REMARK    7  A    between atoms: O_27  and  C_28
REMARK    8  A    between atoms: C_31  and  C_34
REMARK    9  A    between atoms: C_34  and  C_35
REMARK   10  A    between atoms: C_34  and  C_36
REMARK                            x       y       z     vdW  Elec       q    Type
REMARK                         _______ _______ _______ _____ _____    ______ ____
ROOT
ATOM      1  C   UNL     1       0.977  -1.119  -3.551  0.00  0.00    +0.085 A 
ATOM      2  C   UNL     1       0.618  -1.157  -4.890  0.00  0.00    +0.071 A 
ATOM      3  C   UNL     1       1.587  -1.676  -5.839  0.00  0.00    -0.023 A 
ATOM      4  C   UNL     1       2.770  -2.081  -5.323  0.00  0.00    -0.004 A 
ATOM      5  S   UNL     1       2.633  -1.781  -3.582  0.00  0.00    -0.077 S 
ATOM      6  C   UNL     1       3.936  -2.653  -6.069  0.00  0.00    +0.043 C 
ATOM      7  C   UNL     1       3.461  -3.061  -7.471  0.00  0.00    +0.005 C 
ATOM      8  C   UNL     1       2.653  -1.908  -8.071  0.00  0.00    +0.005 C 
ATOM      9  C   UNL     1       1.318  -1.771  -7.338  0.00  0.00    +0.037 C 
ENDROOT
BRANCH   2  10
ATOM     10  C   UNL     1      -0.702  -0.687  -5.335  0.00  0.00    +0.261 A 
ATOM     11  N   UNL     1      -1.648  -0.196  -4.562  0.00  0.00    -0.187 NA
ATOM     12  C   UNL     1      -2.718   0.131  -5.303  0.00  0.00    +0.202 A 
ATOM     13  N   UNL     1      -2.467  -0.148  -6.559  0.00  0.00    -0.056 NA
ATOM     14  O   UNL     1      -1.151  -0.679  -6.604  0.00  0.00    -0.332 OA
BRANCH  12  15
ATOM     15  C   UNL     1      -3.981   0.714  -4.784  0.00  0.00    +0.022 A 
ATOM     16  C   UNL     1      -4.125   0.971  -3.423  0.00  0.00    +0.012 A 
ATOM     17  C   UNL     1      -5.301   1.513  -2.946  0.00  0.00    +0.001 A 
ATOM     18  C   UNL     1      -6.336   1.801  -3.817  0.00  0.00    +0.000 A 
ATOM     19  C   UNL     1      -6.199   1.548  -5.170  0.00  0.00    +0.001 A 
ATOM     20  C   UNL     1      -5.024   1.011  -5.659  0.00  0.00    +0.012 A 
ENDBRANCH  12  15
ENDBRANCH   2  10
BRANCH   1  23
ATOM     21  C   UNL     1       0.768  -0.712  -1.225  0.00  0.00    +0.258 C 
ATOM     22  O   UNL     1       1.893  -1.136  -1.061  0.00  0.00    -0.271 OA
ATOM     23  N   UNL     1       0.237  -0.673  -2.463  0.00  0.00    -0.276 N 
ATOM     24  H   UNL     1      -0.662  -0.334  -2.594  0.00  0.00    +0.155 HD
BRANCH  21  26
ATOM     25  C   UNL     1      -0.292   1.273  -0.184  0.00  0.00    +0.062 C 
ATOM     26  C   UNL     1      -0.034  -0.229  -0.045  0.00  0.00    +0.256 C 
BRANCH  26  27
ATOM     27  O   UNL     1       0.693  -0.477   1.160  0.00  0.00    -0.480 OA
BRANCH  27  28
ATOM     28  C   UNL     1      -0.031  -0.600   2.303  0.00  0.00    +0.122 A 
ATOM     29  C   UNL     1      -1.400  -0.376   2.286  0.00  0.00    +0.046 A 
ATOM     30  C   UNL     1      -2.133  -0.502   3.450  0.00  0.00    +0.007 A 
ATOM     31  C   UNL     1      -1.504  -0.849   4.631  0.00  0.00    -0.045 A 
ATOM     32  C   UNL     1      -0.140  -1.072   4.651  0.00  0.00    +0.007 A 
ATOM     33  C   UNL     1       0.598  -0.954   3.489  0.00  0.00    +0.046 A 
BRANCH  31  34
ATOM     34  C   UNL     1      -2.307  -0.985   5.900  0.00  0.00    +0.013 C 
ATOM     35  C   UNL     1      -2.172  -2.410   6.438  0.00  0.00    +0.012 C 
ATOM     36  C   UNL     1      -1.784   0.006   6.942  0.00  0.00    +0.012 C 
ENDBRANCH  31  34
ENDBRANCH  27  28
ENDBRANCH  26  27
ENDBRANCH  21  26
ENDBRANCH   1  23
TORSDOF 7
