REMARK  Name = ZINC20694004
REMARK  5 active torsions:
REMARK  status: ('A' for Active; 'I' for Inactive)
REMARK    1  A    between atoms: C_1  and  O_2
REMARK    2  A    between atoms: O_2  and  C_3
REMARK    3  A    between atoms: C_7  and  C_10
REMARK    4  A    between atoms: C_8  and  O_9
REMARK    5  A    between atoms: C_23  and  O_26
REMARK                            x       y       z     vdW  Elec       q    Type
REMARK                         _______ _______ _______ _____ _____    ______ ____
ROOT
ATOM      1  C   UNL     1      -0.016   1.546  -0.002  0.00  0.00    +0.109 C 
ATOM      2  C   UNL     1       0.072   0.034   0.004  0.00  0.00    +0.029 C 
ATOM      3  C   UNL     1      -1.232  -0.762   0.129  0.00  0.00    +0.033 C 
ATOM      4  C   UNL     1      -0.749  -2.030   0.837  0.00  0.00    -0.030 C 
ATOM      5  C   UNL     1       0.344  -1.765   1.545  0.00  0.00    -0.023 C 
ATOM      6  C   UNL     1       0.656  -0.321   1.407  0.00  0.00    +0.049 C 
ATOM      7  C   UNL     1       2.040   0.201   1.435  0.00  0.00    -0.016 A 
ATOM      8  C   UNL     1       3.041  -0.434   2.142  0.00  0.00    +0.006 A 
ATOM      9  C   UNL     1       4.322   0.081   2.164  0.00  0.00    +0.004 A 
ATOM     10  C   UNL     1       4.604   1.245   1.471  0.00  0.00    +0.047 A 
ATOM     11  C   UNL     1       3.611   1.885   0.756  0.00  0.00    +0.138 A 
ATOM     12  C   UNL     1       2.310   1.369   0.720  0.00  0.00    +0.073 A 
ATOM     13  N   UNL     1       1.363   2.058  -0.041  0.00  0.00    -0.334 N 
ATOM     14  H   UNL     1       1.605   2.942  -0.649  0.00  0.00    +0.147 HD
ENDROOT
BRANCH   1  19
ATOM     15  C   UNL     1      -2.725   2.564   2.438  0.00  0.00    +0.162 A 
ATOM     16  C   UNL     1      -1.973   2.906   3.551  0.00  0.00    +0.049 A 
ATOM     17  C   UNL     1      -0.595   2.808   3.510  0.00  0.00    +0.004 A 
ATOM     18  C   UNL     1       0.036   2.363   2.363  0.00  0.00    +0.009 A 
ATOM     19  C   UNL     1      -0.708   2.025   1.248  0.00  0.00    +0.018 A 
ATOM     20  C   UNL     1      -2.089   2.122   1.282  0.00  0.00    +0.163 A 
BRANCH  15  22
ATOM     21  C   UNL     1      -4.664   3.122   3.696  0.00  0.00    +0.277 C 
ATOM     22  O   UNL     1      -4.081   2.661   2.476  0.00  0.00    -0.491 OA
ENDBRANCH  15  22
BRANCH  20  23
ATOM     23  O   UNL     1      -2.823   1.786   0.187  0.00  0.00    -0.503 OA
ATOM     24  H   UNL     1      -2.320   1.436  -0.726  0.00  0.00    +0.292 HD
ENDBRANCH  20  23
ENDBRANCH   1  19
BRANCH  11  25
ATOM     25  O   UNL     1       3.901   3.028   0.079  0.00  0.00    -0.505 OA
ATOM     26  H   UNL     1       3.115   3.543  -0.493  0.00  0.00    +0.292 HD
ENDBRANCH  11  25
TORSDOF 4
