REMARK  Name = ZINC01148973
REMARK  9 active torsions:
REMARK  status: ('A' for Active; 'I' for Inactive)
REMARK    1  A    between atoms: C_1  and  C_2
REMARK    2  A    between atoms: C_2  and  O_3
REMARK    3  A    between atoms: O_3  and  C_4
REMARK    4  A    between atoms: C_4  and  C_6
REMARK    5  A    between atoms: C_7  and  C_33
REMARK    6  A    between atoms: C_11  and  C_13
REMARK    7  A    between atoms: C_16  and  O_20
REMARK    8  A    between atoms: O_20  and  C_21
REMARK    9  A    between atoms: C_25  and  C_28
REMARK                            x       y       z     vdW  Elec       q    Type
REMARK                         _______ _______ _______ _____ _____    ______ ____
ROOT
ATOM      1  C   UNL     1      -5.670   7.634  -1.200  0.00  0.00    +0.065 C 
ATOM      2  C   UNL     1      -5.178   7.144  -2.351  0.00  0.00    +0.016 C 
ATOM      3  N   UNL     1      -4.010   6.434  -2.358  0.00  0.00    -0.321 N 
ATOM      4  C   UNL     1      -3.529   5.870  -1.207  0.00  0.00    +0.016 C 
ATOM      5  C   UNL     1      -3.957   6.301  -0.002  0.00  0.00    +0.024 C 
ATOM      6  C   UNL     1      -4.956   7.426   0.103  0.00  0.00    +0.092 C 
ATOM      7  C   UNL     1      -3.482   5.721   1.187  0.00  0.00    +0.162 C 
ATOM      8  O   UNL     1      -3.880   6.139   2.256  0.00  0.00    -0.292 OA
ATOM      9  C   UNL     1      -2.490   4.590   1.160  0.00  0.00    +0.088 C 
ATOM     10  C   UNL     1      -2.668   3.800  -0.140  0.00  0.00    +0.039 C 
ATOM     11  C   UNL     1      -2.511   4.762  -1.319  0.00  0.00    +0.060 C 
ATOM     12  C   UNL     1      -5.919   7.379  -3.642  0.00  0.00    +0.061 C 
ATOM     13  H   UNL     1      -3.447   6.311  -3.295  0.00  0.00    +0.152 HD
ENDROOT
BRANCH   6  14
ATOM     14  C   UNL     1      -4.236   8.695   0.480  0.00  0.00    -0.034 A 
ATOM     15  C   UNL     1      -4.567   9.355   1.649  0.00  0.00    +0.008 A 
ATOM     16  C   UNL     1      -3.908  10.518   1.998  0.00  0.00    +0.047 A 
ATOM     17  C   UNL     1      -2.914  11.024   1.173  0.00  0.00    +0.134 A 
ATOM     18  C   UNL     1      -2.584  10.360   0.000  0.00  0.00    +0.060 A 
ATOM     19  C   UNL     1      -3.242   9.194  -0.341  0.00  0.00    +0.023 A 
ATOM     20 BR   UNL     1      -1.229  11.047  -1.126  0.00  0.00    -0.047 Br
BRANCH  17  21
ATOM     21  O   UNL     1      -2.265  12.169   1.514  0.00  0.00    -0.494 OA
ATOM     22  C   UNL     1      -2.657  12.799   2.735  0.00  0.00    +0.277 C 
ENDBRANCH  17  21
ENDBRANCH   6  14
BRANCH  10  23
ATOM     23  C   UNL     1      -1.620   2.720  -0.224  0.00  0.00    -0.006 A 
ATOM     24  C   UNL     1      -1.783   1.377  -0.313  0.00  0.00    +0.011 A 
ATOM     25  C   UNL     1      -0.664   0.569  -0.375  0.00  0.00    +0.008 A 
ATOM     26  C   UNL     1       0.564   1.143  -0.356  0.00  0.00    +0.045 A 
ATOM     27  S   UNL     1       0.158   2.878  -0.240  0.00  0.00    -0.101 S 
ENDBRANCH  10  23
BRANCH   1  28
ATOM     28  C   UNL     1      -6.884   8.360  -1.218  0.00  0.00    +0.338 C 
ATOM     29  O   UNL     1      -7.905   7.849  -0.798  0.00  0.00    -0.245 OA
BRANCH  28  30
ATOM     30  O   UNL     1      -6.909   9.620  -1.700  0.00  0.00    -0.462 OA
BRANCH  30  32
ATOM     31  C   UNL     1      -8.001  11.700  -2.268  0.00  0.00    +0.048 C 
ATOM     32  C   UNL     1      -8.169  10.295  -1.688  0.00  0.00    +0.229 C 
ENDBRANCH  30  32
ENDBRANCH  28  30
ENDBRANCH   1  28
TORSDOF 6
