REMARK  Name = ZINC43384410
REMARK  3 active torsions:
REMARK  status: ('A' for Active; 'I' for Inactive)
REMARK    1  A    between atoms: C_1  and  C_2
REMARK    2  A    between atoms: N_7  and  C_8
REMARK    3  A    between atoms: N_10  and  C_11
REMARK                            x       y       z     vdW  Elec       q    Type
REMARK                         _______ _______ _______ _____ _____    ______ ____
ROOT
ATOM      1  C   UNL     1       0.256  -4.858  -0.027  0.00  0.00    +0.326 C 
ATOM      2  O   UNL     1      -0.952  -4.691  -0.021  0.00  0.00    -0.251 OA
ATOM      3  N   UNL     1       0.763  -6.107  -0.036  0.00  0.00    -0.291 N 
ATOM      4  H   UNL     1       1.724  -6.240  -0.041  0.00  0.00    +0.151 HD
ENDROOT
BRANCH   3   5
ATOM      5  C   UNL     1      -0.137  -7.263  -0.040  0.00  0.00    +0.111 C 
ATOM      6  C   UNL     1       0.584  -8.472   0.562  0.00  0.00    +0.068 C 
ATOM      7  C   UNL     1      -0.256  -9.724   0.280  0.00  0.00    +0.231 C 
ATOM      8  O   UNL     1      -0.293  -9.933  -1.132  0.00  0.00    -0.492 OA
ATOM      9  C   UNL     1      -0.610  -8.874  -1.922  0.00  0.00    +0.125 A 
ATOM     10  C   UNL     1      -0.551  -7.573  -1.456  0.00  0.00    +0.015 A 
ATOM     11  C   UNL     1      -0.878  -6.525  -2.299  0.00  0.00    +0.009 A 
ATOM     12  C   UNL     1      -1.264  -6.772  -3.602  0.00  0.00    +0.001 A 
ATOM     13  C   UNL     1      -1.326  -8.072  -4.069  0.00  0.00    +0.004 A 
ATOM     14  C   UNL     1      -1.002  -9.119  -3.234  0.00  0.00    +0.046 A 
ENDBRANCH   3   5
BRANCH   1  21
ATOM     15  C   UNL     1      -0.018   1.503   0.010  0.00  0.00    +0.053 C 
ATOM     16  C   UNL     1       0.002  -0.004   0.002  0.00  0.00    +0.006 A 
ATOM     17  C   UNL     1      -1.025  -0.859   0.002  0.00  0.00    +0.095 A 
ATOM     18  N   UNL     1      -0.732  -2.188  -0.007  0.00  0.00    -0.342 N 
ATOM     19  H   UNL     1      -1.440  -2.851  -0.008  0.00  0.00    +0.167 HD
ATOM     20  C   UNL     1       0.575  -2.571  -0.014  0.00  0.00    +0.165 A 
ATOM     21  N   UNL     1       1.076  -3.804  -0.024  0.00  0.00    -0.139 NA
ATOM     22  S   UNL     1       1.403  -1.107  -0.018  0.00  0.00    -0.058 S 
ENDBRANCH   1  21
TORSDOF 2
