REMARK  Name = ZINC01460991
REMARK  11 active torsions:
REMARK  status: ('A' for Active; 'I' for Inactive)
REMARK    1  A    between atoms: C_1  and  C_2
REMARK    2  A    between atoms: C_7  and  N_8
REMARK    3  A    between atoms: C_9  and  C_11
REMARK    4  A    between atoms: C_12  and  C_41
REMARK    5  A    between atoms: C_16  and  C_18
REMARK    6  A    between atoms: C_22  and  O_24
REMARK    7  A    between atoms: C_28  and  C_31
REMARK    8  A    between atoms: C_34  and  O_39
REMARK    9  A    between atoms: C_35  and  O_37
REMARK   10  A    between atoms: O_37  and  C_38
REMARK   11  A    between atoms: O_39  and  C_40
REMARK                            x       y       z     vdW  Elec       q    Type
REMARK                         _______ _______ _______ _____ _____    ______ ____
ROOT
ATOM      1  C   UNL     1      -0.793   5.824  -1.200  0.00  0.00    +0.043 C 
ATOM      2  C   UNL     1      -2.058   6.269  -1.143  0.00  0.00    +0.014 C 
ATOM      3  N   UNL     1      -2.732   6.287   0.047  0.00  0.00    -0.321 N 
ATOM      4  C   UNL     1      -2.052   6.245   1.234  0.00  0.00    +0.016 C 
ATOM      5  C   UNL     1      -0.780   5.795   1.280  0.00  0.00    +0.024 C 
ATOM      6  C   UNL     1      -0.083   5.329   0.026  0.00  0.00    +0.090 C 
ATOM      7  C   UNL     1      -0.070   5.747   2.492  0.00  0.00    +0.162 C 
ATOM      8  O   UNL     1       1.078   5.351   2.496  0.00  0.00    -0.292 OA
ATOM      9  C   UNL     1      -0.708   6.176   3.785  0.00  0.00    +0.088 C 
ATOM     10  C   UNL     1      -2.221   5.948   3.695  0.00  0.00    +0.032 C 
ATOM     11  C   UNL     1      -2.755   6.716   2.483  0.00  0.00    +0.059 C 
ATOM     12  C   UNL     1      -2.740   6.750  -2.397  0.00  0.00    +0.061 C 
ATOM     13  H   UNL     1      -3.831   6.335   0.056  0.00  0.00    +0.152 HD
ENDROOT
BRANCH   6  14
ATOM     14  C   UNL     1      -0.056   3.822   0.007  0.00  0.00    -0.032 A 
ATOM     15  C   UNL     1      -1.241   3.110   0.006  0.00  0.00    +0.005 A 
ATOM     16  C   UNL     1      -1.219   1.728  -0.017  0.00  0.00    +0.004 A 
ATOM     17  C   UNL     1      -0.012   1.055  -0.028  0.00  0.00    +0.045 A 
ATOM     18  C   UNL     1       1.178   1.767  -0.027  0.00  0.00    +0.117 A 
ATOM     19  C   UNL     1       1.153   3.154  -0.009  0.00  0.00    +0.050 A 
BRANCH  18  20
ATOM     20  O   UNL     1       2.366   1.108  -0.043  0.00  0.00    -0.507 OA
ATOM     21  H   UNL     1       3.309   1.673  -0.042  0.00  0.00    +0.292 HD
ENDBRANCH  18  20
ENDBRANCH   6  14
BRANCH  10  22
ATOM     22  C   UNL     1      -2.885   6.454   4.949  0.00  0.00    -0.040 A 
ATOM     23  C   UNL     1      -2.748   7.780   5.315  0.00  0.00    +0.008 A 
ATOM     24  C   UNL     1      -3.361   8.251   6.461  0.00  0.00    +0.049 A 
ATOM     25  C   UNL     1      -4.104   7.390   7.253  0.00  0.00    +0.161 A 
ATOM     26  C   UNL     1      -4.237   6.054   6.887  0.00  0.00    +0.162 A 
ATOM     27  C   UNL     1      -3.626   5.590   5.734  0.00  0.00    +0.053 A 
BRANCH  26  28
ATOM     28  O   UNL     1      -4.967   5.205   7.660  0.00  0.00    -0.491 OA
ATOM     29  C   UNL     1      -5.060   3.848   7.223  0.00  0.00    +0.277 C 
ENDBRANCH  26  28
BRANCH  25  30
ATOM     30  O   UNL     1      -4.702   7.850   8.384  0.00  0.00    -0.491 OA
ATOM     31  C   UNL     1      -4.523   9.233   8.697  0.00  0.00    +0.277 C 
ENDBRANCH  25  30
ENDBRANCH  10  22
BRANCH   1  33
ATOM     32  N   UNL     1       1.157   5.381  -2.517  0.00  0.00    -0.281 N 
ATOM     33  C   UNL     1      -0.114   5.824  -2.443  0.00  0.00    +0.247 C 
ATOM     34  O   UNL     1      -0.678   6.223  -3.445  0.00  0.00    -0.270 OA
ATOM     35  H   UNL     1       1.698   5.106  -1.599  0.00  0.00    +0.155 HD
BRANCH  32  42
ATOM     36  C   UNL     1       3.999   5.494  -2.594  0.00  0.00    +0.045 C 
ATOM     37  C   UNL     1       3.174   5.322  -3.843  0.00  0.00    -0.029 A 
ATOM     38  C   UNL     1       3.795   5.214  -5.072  0.00  0.00    +0.005 A 
ATOM     39  C   UNL     1       3.038   5.055  -6.219  0.00  0.00    +0.000 A 
ATOM     40  C   UNL     1       1.658   5.005  -6.139  0.00  0.00    +0.002 A 
ATOM     41  C   UNL     1       1.032   5.107  -4.912  0.00  0.00    +0.023 A 
ATOM     42  C   UNL     1       1.789   5.272  -3.759  0.00  0.00    +0.037 A 
ENDBRANCH  32  42
ENDBRANCH   1  33
TORSDOF 7
