REMARK  Name = ZINC21815901
REMARK  12 active torsions:
REMARK  status: ('A' for Active; 'I' for Inactive)
REMARK    1  A    between atoms: C_1  and  C_2
REMARK    2  A    between atoms: C_3  and  C_16
REMARK    3  A    between atoms: C_4  and  C_15
REMARK    4  A    between atoms: N_5  and  C_7
REMARK    5  A    between atoms: C_7  and  C_8
REMARK    6  A    between atoms: C_17  and  C_18
REMARK    7  A    between atoms: C_18  and  O_20
REMARK    8  A    between atoms: O_20  and  C_21
REMARK    9  A    between atoms: C_21  and  C_23
REMARK   10  A    between atoms: C_21  and  C_24
REMARK   11  A    between atoms: N_26  and  C_27
REMARK   12  A    between atoms: C_32  and  N_33
REMARK                            x       y       z     vdW  Elec       q    Type
REMARK                         _______ _______ _______ _____ _____    ______ ____
ROOT
ATOM      1  C   UNL     1       4.759   6.737   5.460  0.00  0.00    +0.333 C 
ATOM      2  O   UNL     1       5.753   6.044   5.563  0.00  0.00    -0.246 OA
ENDROOT
BRANCH   1   4
ATOM      3  C   UNL     1       3.761   5.142   3.975  0.00  0.00    +0.018 C 
ATOM      4  C   UNL     1       3.683   6.315   4.641  0.00  0.00    +0.092 C 
BRANCH   3   7
ATOM      5  C   UNL     1       0.708   5.035   4.834  0.00  0.00    +0.068 C 
ATOM      6  C   UNL     1       1.280   4.651   3.494  0.00  0.00    +0.067 A 
ATOM      7  C   UNL     1       2.645   4.704   3.126  0.00  0.00    +0.018 A 
ATOM      8  C   UNL     1       2.731   4.267   1.816  0.00  0.00    +0.044 A 
ATOM      9  N   UNL     1       1.486   3.965   1.412  0.00  0.00    -0.263 N 
ATOM     10  N   UNL     1       0.602   4.216   2.467  0.00  0.00    -0.175 NA
ATOM     11  C   UNL     1       3.989   4.152   0.994  0.00  0.00    +0.066 C 
BRANCH   9  12
ATOM     12  C   UNL     1       1.115   3.463   0.086  0.00  0.00    +0.180 C 
BRANCH  12  13
ATOM     13  C   UNL     1       0.928   4.623  -0.856  0.00  0.00    -0.008 A 
ATOM     14  C   UNL     1       1.971   5.030  -1.667  0.00  0.00    +0.007 A 
ATOM     15  C   UNL     1       1.800   6.095  -2.532  0.00  0.00    +0.000 A 
ATOM     16  C   UNL     1       0.585   6.752  -2.588  0.00  0.00    +0.001 A 
ATOM     17  C   UNL     1      -0.458   6.346  -1.778  0.00  0.00    +0.020 A 
ATOM     18  C   UNL     1      -0.287   5.281  -0.912  0.00  0.00    +0.046 A 
ATOM     19 CL   UNL     1      -1.598   4.771   0.106  0.00  0.00    -0.083 Cl
ENDBRANCH  12  13
ENDBRANCH   9  12
ENDBRANCH   3   7
ENDBRANCH   1   4
BRANCH   1  20
ATOM     20  O   UNL     1       4.681   7.909   6.125  0.00  0.00    -0.449 OA
BRANCH  20  21
ATOM     21  C   UNL     1       5.803   8.272   6.933  0.00  0.00    +0.259 C 
ATOM     22  C   UNL     1       5.613   7.722   8.348  0.00  0.00    +0.062 C 
BRANCH  21  23
ATOM     23  C   UNL     1       5.917   9.774   6.989  0.00  0.00    +0.258 C 
ATOM     24  O   UNL     1       5.065  10.466   6.472  0.00  0.00    -0.271 OA
ATOM     25  N   UNL     1       6.964  10.347   7.612  0.00  0.00    -0.281 N 
ATOM     26  H   UNL     1       7.698   9.723   8.143  0.00  0.00    +0.155 HD
BRANCH  25  27
ATOM     27  C   UNL     1       7.119  11.738   7.585  0.00  0.00    +0.064 A 
ATOM     28  C   UNL     1       6.002  12.563   7.618  0.00  0.00    +0.025 A 
ATOM     29  C   UNL     1       6.158  13.935   7.595  0.00  0.00    +0.002 A 
ATOM     30  C   UNL     1       7.424  14.487   7.530  0.00  0.00    +0.002 A 
ATOM     31  C   UNL     1       8.538  13.668   7.493  0.00  0.00    +0.034 A 
ATOM     32  C   UNL     1       8.389  12.296   7.520  0.00  0.00    +0.147 A 
BRANCH  32  33
ATOM     33  N   UNL     1       9.581  11.420   7.479  0.00  0.00    +0.058 N 
ATOM     34  O   UNL     1      10.697  11.907   7.523  0.00  0.00    -0.126 OA
ATOM     35  O   UNL     1       9.447  10.212   7.402  0.00  0.00    -0.126 OA
ENDBRANCH  32  33
ENDBRANCH  25  27
ENDBRANCH  21  23
ENDBRANCH  20  21
ENDBRANCH   1  20
TORSDOF 9
