REMARK  Name = ZINC09252889
REMARK  5 active torsions:
REMARK  status: ('A' for Active; 'I' for Inactive)
REMARK    1  A    between atoms: C_5  and  C_7
REMARK    2  A    between atoms: N_11  and  C_15
REMARK    3  A    between atoms: C_15  and  C_16
REMARK    4  A    between atoms: C_16  and  C_17
REMARK    5  A    between atoms: N_19  and  C_20
REMARK                            x       y       z     vdW  Elec       q    Type
REMARK                         _______ _______ _______ _____ _____    ______ ____
ROOT
ATOM      1  C   UNL     1      -1.081  -0.736  -0.364  0.00  0.00    +0.029 C 
ATOM      2  C   UNL     1      -0.015   0.103  -0.362  0.00  0.00    +0.077 C 
ATOM      3  C   UNL     1       0.025   1.575  -0.235  0.00  0.00    +0.258 C 
ATOM      4  O   UNL     1      -0.991   2.234  -0.113  0.00  0.00    -0.269 OA
ATOM      5  N   UNL     1       1.220   2.139  -0.267  0.00  0.00    -0.255 N 
ATOM      6  C   UNL     1       2.343   1.405  -0.408  0.00  0.00    +0.121 C 
ATOM      7  S   UNL     1       3.966   1.947  -0.470  0.00  0.00    -0.027 S 
ATOM      8  S   UNL     1       1.727  -0.267  -0.513  0.00  0.00    -0.061 S 
ENDROOT
BRANCH   1  13
ATOM      9  C   UNL     1       0.445  -4.161  -0.379  0.00  0.00    +0.001 A 
ATOM     10  C   UNL     1      -0.515  -4.879  -1.071  0.00  0.00    +0.001 A 
ATOM     11  C   UNL     1      -1.659  -4.254  -1.534  0.00  0.00    +0.020 A 
ATOM     12  C   UNL     1      -1.852  -2.905  -1.308  0.00  0.00    +0.048 A 
ATOM     13  C   UNL     1      -0.885  -2.172  -0.609  0.00  0.00    -0.005 A 
ATOM     14  C   UNL     1       0.271  -2.813  -0.149  0.00  0.00    +0.009 A 
ATOM     15 CL   UNL     1      -3.288  -2.122  -1.889  0.00  0.00    -0.083 Cl
ENDBRANCH   1  13
BRANCH   5  16
ATOM     16  C   UNL     1       1.327   3.595  -0.147  0.00  0.00    +0.124 C 
BRANCH  16  17
ATOM     17  C   UNL     1       1.462   3.977   1.329  0.00  0.00    +0.115 C 
BRANCH  17  18
ATOM     18  C   UNL     1       1.573   5.475   1.453  0.00  0.00    +0.219 C 
ATOM     19  O   UNL     1       1.546   6.169   0.458  0.00  0.00    -0.275 OA
ATOM     20  N   UNL     1       1.701   6.043   2.668  0.00  0.00    -0.284 N 
ATOM     21  H   UNL     1       1.806   5.486   3.455  0.00  0.00    +0.155 HD
BRANCH  20  22
ATOM     22  C   UNL     1       1.682   7.431   2.794  0.00  0.00    +0.065 A 
ATOM     23  C   UNL     1       1.059   8.207   1.859  0.00  0.00    +0.026 A 
ATOM     24  C   UNL     1       1.023   9.600   1.966  0.00  0.00    +0.004 A 
ATOM     25  C   UNL     1       1.607  10.272   2.988  0.00  0.00    +0.033 A 
ATOM     26  C   UNL     1       2.280   9.566   4.003  0.00  0.00    +0.136 A 
ATOM     27  C   UNL     1       2.333   8.085   3.923  0.00  0.00    +0.155 A 
ATOM     28  N   UNL     1       3.013   7.759   4.990  0.00  0.00    -0.047 NA
ATOM     29  O   UNL     1       3.315   8.770   5.593  0.00  0.00    -0.242 OA
ATOM     30  N   UNL     1       2.942   9.818   5.105  0.00  0.00    -0.049 NA
ENDBRANCH  20  22
ENDBRANCH  17  18
ENDBRANCH  16  17
ENDBRANCH   5  16
TORSDOF 5
