REMARK  Name = ZINC34786951
REMARK  4 active torsions:
REMARK  status: ('A' for Active; 'I' for Inactive)
REMARK    1  A    between atoms: C_4  and  C_7
REMARK    2  A    between atoms: N_16  and  C_17
REMARK    3  A    between atoms: C_17  and  C_18
REMARK    4  A    between atoms: C_26  and  C_28
REMARK                            x       y       z     vdW  Elec       q    Type
REMARK                         _______ _______ _______ _____ _____    ______ ____
ROOT
ATOM      1  C   UNL     1       3.166  -2.619   3.090  0.00  0.00    +0.199 C 
ATOM      2  O   UNL     1       3.179  -3.735   2.614  0.00  0.00    -0.278 OA
ATOM      3  N   UNL     1       2.982  -2.454   4.415  0.00  0.00    -0.300 N 
ATOM      4  C   UNL     1       2.959  -1.107   5.004  0.00  0.00    +0.126 C 
ATOM      5  C   UNL     1       1.647  -0.934   5.779  0.00  0.00    +0.127 C 
ATOM      6  N   UNL     1       1.466  -2.096   6.660  0.00  0.00    -0.295 N 
ATOM      7  C   UNL     1       1.490  -3.443   6.072  0.00  0.00    +0.127 C 
ATOM      8  C   UNL     1       2.796  -3.615   5.295  0.00  0.00    +0.126 C 
ATOM      9  C   UNL     1       1.282  -1.930   7.985  0.00  0.00    +0.248 C 
ATOM     10  O   UNL     1       1.368  -0.822   8.477  0.00  0.00    -0.270 OA
ENDROOT
BRANCH   9  11
ATOM     11  C   UNL     1       0.976  -3.095   8.840  0.00  0.00    +0.055 A 
ATOM     12  C   UNL     1      -0.100  -3.930   8.529  0.00  0.00    +0.016 A 
ATOM     13  C   UNL     1      -0.380  -5.016   9.330  0.00  0.00    +0.021 A 
ATOM     14  C   UNL     1       0.401  -5.280  10.444  0.00  0.00    +0.042 A 
ATOM     15  C   UNL     1       1.469  -4.457  10.759  0.00  0.00    +0.040 A 
ATOM     16  C   UNL     1       1.765  -3.370   9.960  0.00  0.00    +0.054 A 
ATOM     17 CL   UNL     1       3.108  -2.343  10.352  0.00  0.00    -0.083 Cl
ATOM     18 CL   UNL     1       0.040  -6.650  11.448  0.00  0.00    -0.083 Cl
ENDBRANCH   9  11
BRANCH   1  19
ATOM     19  C   UNL     1       3.356  -1.419   2.199  0.00  0.00    +0.020 C 
BRANCH  19  28
ATOM     20  C   UNL     1       3.600  -0.688  -0.067  0.00  0.00    -0.005 C 
ATOM     21  C   UNL     1       3.889  -1.152  -1.492  0.00  0.00    -0.047 A 
ATOM     22  C   UNL     1       3.640  -0.385  -2.627  0.00  0.00    +0.010 A 
ATOM     23  C   UNL     1       3.926  -0.880  -3.854  0.00  0.00    +0.045 A 
ATOM     24  S   UNL     1       4.579  -2.495  -3.458  0.00  0.00    -0.101 S 
ATOM     25  C   UNL     1       4.424  -2.389  -1.698  0.00  0.00    -0.010 A 
ATOM     26  C   UNL     1       4.782  -3.387  -0.646  0.00  0.00    +0.024 C 
ATOM     27  C   UNL     1       4.767  -2.658   0.709  0.00  0.00    -0.072 C 
ATOM     28  N   UNL     1       3.535  -1.863   0.810  0.00  0.00    +0.393 N 
ATOM     29  H   UNL     1       2.749  -2.435   0.542  0.00  0.00    -0.080 HD
BRANCH  20  33
ATOM     30  C   UNL     1      -0.134   1.384   0.032  0.00  0.00    +0.000 A 
ATOM     31  C   UNL     1       1.051   2.095   0.010  0.00  0.00    +0.000 A 
ATOM     32  C   UNL     1       2.259   1.425  -0.022  0.00  0.00    +0.002 A 
ATOM     33  C   UNL     1       2.283   0.043  -0.032  0.00  0.00    -0.057 A 
ATOM     34  C   UNL     1       1.098  -0.669  -0.008  0.00  0.00    +0.002 A 
ATOM     35  C   UNL     1      -0.111   0.002   0.022  0.00  0.00    +0.000 A 
ENDBRANCH  20  33
ENDBRANCH  19  28
ENDBRANCH   1  19
TORSDOF 4
