REMARK  Name = ZINC33261946
REMARK  5 active torsions:
REMARK  status: ('A' for Active; 'I' for Inactive)
REMARK    1  A    between atoms: C_1  and  C_2
REMARK    2  A    between atoms: C_5  and  N_9
REMARK    3  A    between atoms: C_10  and  C_12
REMARK    4  A    between atoms: N_17  and  S_18
REMARK    5  A    between atoms: S_18  and  C_21
REMARK                            x       y       z     vdW  Elec       q    Type
REMARK                         _______ _______ _______ _____ _____    ______ ____
ROOT
ATOM      1  C   UNL     1      -0.986   3.241   1.978  0.00  0.00    +0.166 C 
ATOM      2  C   UNL     1      -2.486   2.932   2.220  0.00  0.00    +0.031 C 
ATOM      3  C   UNL     1      -2.419   1.482   2.768  0.00  0.00    +0.019 C 
ATOM      4  C   UNL     1      -1.254   0.864   1.966  0.00  0.00    +0.110 C 
ATOM      5  N   UNL     1      -0.416   1.973   1.488  0.00  0.00    -0.165 NA
ENDROOT
BRANCH   1   7
ATOM      6  N   UNL     1      -0.530   5.579   1.313  0.00  0.00    -0.283 N 
ATOM      7  C   UNL     1      -0.834   4.321   0.938  0.00  0.00    +0.236 C 
ATOM      8  O   UNL     1      -0.985   4.058  -0.236  0.00  0.00    -0.274 OA
ATOM      9  H   UNL     1      -0.453   5.832   2.381  0.00  0.00    +0.155 HD
BRANCH   6  14
ATOM     10  C   UNL     1       0.352   9.574  -2.619  0.00  0.00    +0.044 C 
ATOM     11  C   UNL     1       0.118   8.513  -1.575  0.00  0.00    -0.049 A 
ATOM     12  C   UNL     1      -0.723   7.450  -1.847  0.00  0.00    +0.005 A 
ATOM     13  C   UNL     1      -0.936   6.473  -0.894  0.00  0.00    +0.024 A 
ATOM     14  C   UNL     1      -0.312   6.565   0.343  0.00  0.00    +0.048 A 
ATOM     15  C   UNL     1       0.533   7.634   0.614  0.00  0.00    +0.039 A 
ATOM     16  C   UNL     1       0.745   8.605  -0.346  0.00  0.00    +0.020 A 
ATOM     17 BR   UNL     1       1.390   7.761   2.295  0.00  0.00    -0.048 Br
ENDBRANCH   6  14
ENDBRANCH   1   7
BRANCH   5  18
ATOM     18  S   UNL     1       0.946   1.822   0.559  0.00  0.00    +0.062 S 
ATOM     19  O   UNL     1       1.115   3.059  -0.118  0.00  0.00    -0.153 OA
ATOM     20  O   UNL     1       0.831   0.585  -0.132  0.00  0.00    -0.153 OA
BRANCH  18  21
ATOM     21  C   UNL     1       2.312   1.659   1.659  0.00  0.00    +0.107 A 
ATOM     22  C   UNL     1       3.046   2.775   2.017  0.00  0.00    +0.032 A 
ATOM     23  C   UNL     1       4.116   2.656   2.885  0.00  0.00    +0.049 A 
ATOM     24  C   UNL     1       4.462   1.414   3.388  0.00  0.00    +0.142 A 
ATOM     25  C   UNL     1       3.726   0.288   3.022  0.00  0.00    +0.078 A 
ATOM     26  C   UNL     1       2.651   0.414   2.158  0.00  0.00    +0.055 A 
ATOM     27  N   UNL     1       4.087  -0.964   3.539  0.00  0.00    -0.280 N 
ATOM     28  C   UNL     1       4.919  -1.019   4.602  0.00  0.00    +0.255 C 
ATOM     29  O   UNL     1       5.269  -2.092   5.047  0.00  0.00    -0.272 OA
ATOM     30  C   UNL     1       5.409   0.259   5.234  0.00  0.00    +0.325 C 
ATOM     31  O   UNL     1       5.515   1.279   4.238  0.00  0.00    -0.481 OA
ATOM     32  H   UNL     1       3.695  -1.883   3.079  0.00  0.00    +0.155 HD
ENDBRANCH  18  21
ENDBRANCH   5  18
TORSDOF 4
