REMARK  Name = ZINC64889739
REMARK  6 active torsions:
REMARK  status: ('A' for Active; 'I' for Inactive)
REMARK    1  A    between atoms: C_1  and  C_2
REMARK    2  A    between atoms: C_7  and  S_8
REMARK    3  A    between atoms: S_8  and  N_11
REMARK    4  A    between atoms: C_17  and  C_19
REMARK    5  A    between atoms: C_19  and  C_22
REMARK    6  A    between atoms: C_29  and  C_34
REMARK                            x       y       z     vdW  Elec       q    Type
REMARK                         _______ _______ _______ _____ _____    ______ ____
ROOT
ATOM      1  S   UNL     1       0.236   0.160   2.586  0.00  0.00    +0.061 S 
ATOM      2  O   UNL     1      -0.881   1.035   2.660  0.00  0.00    -0.153 OA
ATOM      3  O   UNL     1       0.492  -0.833   3.571  0.00  0.00    -0.153 OA
ENDROOT
BRANCH   1  10
ATOM      4  C   UNL     1      -0.464   1.506  -0.024  0.00  0.00    +0.046 C 
ATOM      5  C   UNL     1      -0.211   0.023  -0.101  0.00  0.00    -0.022 A 
ATOM      6  C   UNL     1      -0.301  -0.629  -1.318  0.00  0.00    +0.032 A 
ATOM      7  C   UNL     1      -0.068  -1.993  -1.387  0.00  0.00    +0.076 A 
ATOM      8  C   UNL     1       0.255  -2.704  -0.232  0.00  0.00    +0.145 A 
ATOM      9  C   UNL     1       0.344  -2.045   0.981  0.00  0.00    +0.076 A 
ATOM     10  C   UNL     1       0.116  -0.681   1.042  0.00  0.00    +0.112 A 
ATOM     11  O   UNL     1       0.479  -4.043  -0.312  0.00  0.00    -0.478 OA
ATOM     12  C   UNL     1      -0.273  -4.763  -1.292  0.00  0.00    +0.256 C 
ATOM     13  C   UNL     1      -0.236  -4.022  -2.604  0.00  0.00    +0.258 C 
ATOM     14  O   UNL     1      -0.280  -4.633  -3.651  0.00  0.00    -0.271 OA
ATOM     15  N   UNL     1      -0.154  -2.673  -2.610  0.00  0.00    -0.280 N 
ATOM     16  C   UNL     1       0.334  -6.155  -1.477  0.00  0.00    +0.062 C 
ATOM     17  H   UNL     1      -0.154  -2.183  -3.447  0.00  0.00    +0.155 HD
ENDBRANCH   1  10
BRANCH   1  18
ATOM     18  N   UNL     1       1.585   1.118   2.518  0.00  0.00    -0.174 NA
ATOM     19  C   UNL     1       2.902   0.584   2.893  0.00  0.00    +0.128 C 
ATOM     20  C   UNL     1       3.870   0.802   1.723  0.00  0.00    +0.125 C 
ATOM     21  N   UNL     1       3.771   2.201   1.287  0.00  0.00    -0.298 N 
ATOM     22  C   UNL     1       2.454   2.736   0.912  0.00  0.00    +0.125 C 
ATOM     23  C   UNL     1       1.487   2.516   2.076  0.00  0.00    +0.128 C 
ATOM     24  C   UNL     1       4.869   2.982   1.232  0.00  0.00    +0.226 C 
ATOM     25  O   UNL     1       5.937   2.554   1.616  0.00  0.00    -0.275 OA
BRANCH  24  26
ATOM     26  C   UNL     1       4.770   4.385   0.692  0.00  0.00    +0.072 C 
ATOM     27  C   UNL     1       5.478   5.494   1.472  0.00  0.00    +0.022 C 
ATOM     28  C   UNL     1       3.951   5.396   1.498  0.00  0.00    +0.022 C 
BRANCH  26  29
ATOM     29  C   UNL     1       4.737   4.503  -0.810  0.00  0.00    -0.032 A 
ATOM     30  C   UNL     1       4.072   5.558  -1.406  0.00  0.00    +0.004 A 
ATOM     31  C   UNL     1       4.042   5.666  -2.784  0.00  0.00    +0.000 A 
ATOM     32  C   UNL     1       4.676   4.719  -3.566  0.00  0.00    +0.000 A 
ATOM     33  C   UNL     1       5.342   3.664  -2.970  0.00  0.00    +0.000 A 
ATOM     34  C   UNL     1       5.376   3.559  -1.592  0.00  0.00    +0.004 A 
ENDBRANCH  26  29
ENDBRANCH  24  26
ENDBRANCH   1  18
TORSDOF 4
