REMARK  Name = ZINC21138386
REMARK  15 active torsions:
REMARK  status: ('A' for Active; 'I' for Inactive)
REMARK    1  A    between atoms: C_1  and  C_2
REMARK    2  A    between atoms: C_2  and  C_4
REMARK    3  A    between atoms: C_2  and  S_16
REMARK    4  A    between atoms: N_6  and  C_7
REMARK    5  A    between atoms: C_11  and  N_13
REMARK    6  A    between atoms: S_16  and  C_17
REMARK    7  A    between atoms: N_27  and  C_28
REMARK    8  A    between atoms: C_28  and  C_29
REMARK    9  A    between atoms: C_29  and  N_30
REMARK   10  A    between atoms: N_30  and  C_31
REMARK   11  A    between atoms: N_30  and  C_34
REMARK   12  A    between atoms: C_31  and  C_32
REMARK   13  A    between atoms: C_31  and  C_33
REMARK   14  A    between atoms: C_34  and  C_35
REMARK   15  A    between atoms: C_34  and  C_36
REMARK                            x       y       z     vdW  Elec       q    Type
REMARK                         _______ _______ _______ _____ _____    ______ ____
ROOT
ATOM      1  C   UNL     1      -1.628  -0.919  -3.394  0.00  0.00    +0.173 A 
ATOM      2  N   UNL     1      -2.904  -0.661  -3.252  0.00  0.00    -0.223 NA
ATOM      3  C   UNL     1      -3.737  -0.610  -4.310  0.00  0.00    +0.079 A 
ATOM      4  C   UNL     1      -5.100  -0.334  -4.158  0.00  0.00    +0.028 A 
ATOM      5  C   UNL     1      -5.908  -0.291  -5.259  0.00  0.00    +0.002 A 
ATOM      6  C   UNL     1      -5.397  -0.517  -6.531  0.00  0.00    +0.001 A 
ATOM      7  C   UNL     1      -4.069  -0.789  -6.712  0.00  0.00    +0.015 A 
ATOM      8  C   UNL     1      -3.221  -0.839  -5.606  0.00  0.00    +0.065 A 
ATOM      9  C   UNL     1      -1.786  -1.126  -5.740  0.00  0.00    +0.262 A 
ATOM     10  O   UNL     1      -1.282  -1.331  -6.829  0.00  0.00    -0.267 OA
ATOM     11  N   UNL     1      -1.045  -1.147  -4.608  0.00  0.00    -0.289 N 
ENDROOT
BRANCH   1  12
ATOM     12  S   UNL     1      -0.615  -0.967  -1.954  0.00  0.00    -0.075 S 
BRANCH  12  14
ATOM     13  C   UNL     1      -2.308   0.804  -0.739  0.00  0.00    +0.029 C 
ATOM     14  C   UNL     1      -1.766  -0.619  -0.596  0.00  0.00    +0.137 C 
BRANCH  14  15
ATOM     15  C   UNL     1      -1.044  -0.751   0.721  0.00  0.00    +0.230 C 
ATOM     16  O   UNL     1       0.158  -0.598   0.772  0.00  0.00    -0.274 OA
ATOM     17  N   UNL     1      -1.735  -1.040   1.842  0.00  0.00    -0.285 N 
ATOM     18  H   UNL     1      -2.703  -1.099   1.813  0.00  0.00    +0.155 HD
BRANCH  17  19
ATOM     19  C   UNL     1      -1.056  -1.254   3.046  0.00  0.00    +0.036 A 
ATOM     20  C   UNL     1      -1.522  -2.200   3.949  0.00  0.00    +0.023 A 
ATOM     21  C   UNL     1      -0.850  -2.409   5.137  0.00  0.00    +0.004 A 
ATOM     22  C   UNL     1       0.287  -1.677   5.428  0.00  0.00    +0.033 A 
ATOM     23  C   UNL     1       0.754  -0.733   4.531  0.00  0.00    +0.128 A 
ATOM     24  C   UNL     1       0.089  -0.524   3.339  0.00  0.00    +0.056 A 
BRANCH  23  25
ATOM     25  N   UNL     1       1.970   0.049   4.847  0.00  0.00    +0.056 N 
ATOM     26  O   UNL     1       2.555  -0.137   5.889  0.00  0.00    -0.126 OA
ATOM     27  O   UNL     1       2.378   0.874   4.063  0.00  0.00    -0.126 OA
ENDBRANCH  23  25
ENDBRANCH  17  19
ENDBRANCH  14  15
ENDBRANCH  12  14
ENDBRANCH   1  12
BRANCH  11  28
ATOM     28  C   UNL     1       0.392  -1.422  -4.685  0.00  0.00    +0.109 C 
BRANCH  28  29
ATOM     29  C   UNL     1       0.629  -2.929  -4.573  0.00  0.00    -0.056 C 
BRANCH  29  30
ATOM     30  N   UNL     1       2.074  -3.197  -4.539  0.00  0.00    +0.384 N 
ATOM     31  H   UNL     1       2.502  -2.641  -3.814  0.00  0.00    -0.081 HD
BRANCH  30  32
ATOM     32  C   UNL     1       2.302  -4.621  -4.262  0.00  0.00    -0.074 C 
ATOM     33  C   UNL     1       3.800  -4.872  -4.082  0.00  0.00    -0.014 C 
ATOM     34  C   UNL     1       1.561  -5.018  -2.984  0.00  0.00    -0.014 C 
ENDBRANCH  30  32
BRANCH  30  35
ATOM     35  C   UNL     1       2.666  -2.849  -5.837  0.00  0.00    -0.074 C 
ATOM     36  C   UNL     1       1.616  -3.012  -6.938  0.00  0.00    -0.014 C 
ATOM     37  C   UNL     1       3.150  -1.397  -5.805  0.00  0.00    -0.014 C 
ENDBRANCH  30  35
ENDBRANCH  29  30
ENDBRANCH  28  29
ENDBRANCH  11  28
TORSDOF 10
