REMARK  Name = ZINC19708115
REMARK  14 active torsions:
REMARK  status: ('A' for Active; 'I' for Inactive)
REMARK    1  A    between atoms: C_1  and  C_2
REMARK    2  A    between atoms: C_3  and  C_28
REMARK    3  A    between atoms: C_4  and  C_15
REMARK    4  A    between atoms: C_5  and  C_9
REMARK    5  A    between atoms: C_6  and  C_8
REMARK    6  A    between atoms: C_9  and  O_11
REMARK    7  A    between atoms: O_11  and  C_12
REMARK    8  A    between atoms: C_12  and  C_13
REMARK    9  A    between atoms: C_12  and  C_14
REMARK   10  A    between atoms: C_18  and  C_20
REMARK   11  A    between atoms: C_28  and  O_30
REMARK   12  A    between atoms: O_30  and  C_31
REMARK   13  A    between atoms: C_31  and  C_32
REMARK   14  A    between atoms: C_31  and  C_33
REMARK                            x       y       z     vdW  Elec       q    Type
REMARK                         _______ _______ _______ _____ _____    ______ ____
ROOT
ATOM      1  C   UNL     1       6.259  -3.425   5.054  0.00  0.00    +0.061 C 
ATOM      2  C   UNL     1       6.054  -3.782   3.604  0.00  0.00    +0.016 C 
ATOM      3  C   UNL     1       6.190  -2.834   2.661  0.00  0.00    +0.068 C 
ATOM      4  C   UNL     1       6.004  -3.147   1.204  0.00  0.00    +0.132 C 
ATOM      5  C   UNL     1       5.295  -4.460   1.029  0.00  0.00    +0.068 C 
ATOM      6  C   UNL     1       5.196  -5.343   2.036  0.00  0.00    +0.016 C 
ATOM      7  N   UNL     1       5.732  -5.067   3.265  0.00  0.00    -0.321 N 
ATOM      8  C   UNL     1       4.484  -6.652   1.811  0.00  0.00    +0.061 C 
ATOM      9  H   UNL     1       5.903  -5.885   3.980  0.00  0.00    +0.152 HD
ENDROOT
BRANCH   4  10
ATOM     10  C   UNL     1       5.189  -2.054   0.562  0.00  0.00    +0.118 A 
ATOM     11  C   UNL     1       5.594  -1.261  -0.449  0.00  0.00    +0.046 A 
ATOM     12  C   UNL     1       4.528  -0.389  -0.744  0.00  0.00    +0.050 A 
ATOM     13  C   UNL     1       3.523  -0.693   0.119  0.00  0.00    +0.137 A 
ATOM     14  O   UNL     1       3.936  -1.708   0.903  0.00  0.00    -0.459 OA
BRANCH  13  15
ATOM     15  C   UNL     1       2.203  -0.031   0.183  0.00  0.00    +0.037 A 
ATOM     16  C   UNL     1       2.119   1.361   0.241  0.00  0.00    +0.013 A 
ATOM     17  C   UNL     1       0.885   1.974   0.298  0.00  0.00    +0.002 A 
ATOM     18  C   UNL     1      -0.270   1.212   0.300  0.00  0.00    +0.021 A 
ATOM     19  C   UNL     1      -0.196  -0.169   0.243  0.00  0.00    +0.060 A 
ATOM     20  C   UNL     1       1.034  -0.795   0.184  0.00  0.00    +0.070 A 
ATOM     21 CL   UNL     1       1.127  -2.527   0.113  0.00  0.00    -0.081 Cl
ATOM     22 CL   UNL     1      -1.652  -1.115   0.245  0.00  0.00    -0.082 Cl
ENDBRANCH  13  15
ENDBRANCH   4  10
BRANCH   5  23
ATOM     23  C   UNL     1       4.721  -4.774  -0.225  0.00  0.00    +0.338 C 
ATOM     24  O   UNL     1       4.144  -5.834  -0.381  0.00  0.00    -0.245 OA
BRANCH  23  25
ATOM     25  O   UNL     1       4.813  -3.899  -1.248  0.00  0.00    -0.459 OA
BRANCH  25  26
ATOM     26  C   UNL     1       4.210  -4.282  -2.485  0.00  0.00    +0.171 C 
ATOM     27  C   UNL     1       2.756  -3.806  -2.514  0.00  0.00    +0.052 C 
ATOM     28  C   UNL     1       4.978  -3.645  -3.645  0.00  0.00    +0.052 C 
ENDBRANCH  25  26
ENDBRANCH  23  25
ENDBRANCH   5  23
BRANCH   3  29
ATOM     29  C   UNL     1       6.516  -1.514   3.049  0.00  0.00    +0.338 C 
ATOM     30  O   UNL     1       6.564  -1.221   4.229  0.00  0.00    -0.245 OA
BRANCH  29  31
ATOM     31  O   UNL     1       6.775  -0.579   2.111  0.00  0.00    -0.459 OA
BRANCH  31  32
ATOM     32  C   UNL     1       7.097   0.734   2.574  0.00  0.00    +0.171 C 
ATOM     33  C   UNL     1       8.610   0.848   2.772  0.00  0.00    +0.052 C 
ATOM     34  C   UNL     1       6.638   1.766   1.543  0.00  0.00    +0.052 C 
ENDBRANCH  31  32
ENDBRANCH  29  31
ENDBRANCH   3  29
TORSDOF 8
