REMARK  Name = ZINC39919764
REMARK  9 active torsions:
REMARK  status: ('A' for Active; 'I' for Inactive)
REMARK    1  A    between atoms: C_1  and  C_2
REMARK    2  A    between atoms: C_6  and  O_8
REMARK    3  A    between atoms: O_8  and  C_9
REMARK    4  A    between atoms: C_9  and  C_10
REMARK    5  A    between atoms: N_12  and  N_13
REMARK    6  A    between atoms: C_14  and  C_26
REMARK    7  A    between atoms: C_29  and  N_32
REMARK    8  A    between atoms: N_32  and  C_33
REMARK    9  A    between atoms: N_32  and  C_34
REMARK                            x       y       z     vdW  Elec       q    Type
REMARK                         _______ _______ _______ _____ _____    ______ ____
ROOT
ATOM      1  N   UNL     1       0.118  -6.667   5.109  0.00  0.00    -0.191 N 
ATOM      2  C   UNL     1       1.353  -7.231   5.653  0.00  0.00    +0.212 C 
ATOM      3  N   UNL     1       1.389  -7.066   7.111  0.00  0.00    -0.320 N 
ATOM      4  C   UNL     1       0.239  -7.351   7.840  0.00  0.00    +0.041 A 
ATOM      5  C   UNL     1       0.294  -7.809   9.145  0.00  0.00    +0.025 A 
ATOM      6  C   UNL     1      -0.878  -8.081   9.825  0.00  0.00    +0.022 A 
ATOM      7  C   UNL     1      -2.108  -7.898   9.209  0.00  0.00    +0.042 A 
ATOM      8  C   UNL     1      -2.180  -7.441   7.909  0.00  0.00    +0.035 A 
ATOM      9  C   UNL     1      -1.005  -7.161   7.214  0.00  0.00    +0.061 A 
ATOM     10  C   UNL     1      -1.023  -6.657   5.829  0.00  0.00    +0.267 C 
ATOM     11  O   UNL     1      -2.055  -6.241   5.340  0.00  0.00    -0.268 OA
ATOM     12 CL   UNL     1      -3.568  -8.248  10.081  0.00  0.00    -0.084 Cl
ATOM     13  H   UNL     1       2.196  -6.765   7.557  0.00  0.00    +0.148 HD
ENDROOT
BRANCH   2  14
ATOM     14  C   UNL     1       1.421  -8.699   5.319  0.00  0.00    -0.008 A 
ATOM     15  C   UNL     1       0.829  -9.171   4.162  0.00  0.00    +0.009 A 
ATOM     16  C   UNL     1       0.889 -10.515   3.852  0.00  0.00    +0.023 A 
ATOM     17  C   UNL     1       1.545 -11.394   4.705  0.00  0.00    +0.029 A 
ATOM     18  C   UNL     1       2.139 -10.916   5.866  0.00  0.00    +0.023 A 
ATOM     19  C   UNL     1       2.080  -9.570   6.167  0.00  0.00    +0.009 A 
BRANCH  17  20
ATOM     20  N   UNL     1       1.608 -12.754   4.395  0.00  0.00    -0.336 N 
ATOM     21  C   UNL     1       0.876 -13.277   3.238  0.00  0.00    +0.129 C 
ATOM     22  C   UNL     1       2.405 -13.659   5.227  0.00  0.00    +0.129 C 
ENDBRANCH  17  20
ENDBRANCH   2  14
BRANCH   1  25
ATOM     23  C   UNL     1       0.107  -4.784   3.653  0.00  0.00    +0.267 C 
ATOM     24  O   UNL     1       0.092  -4.053   4.620  0.00  0.00    -0.271 OA
ATOM     25  N   UNL     1       0.121  -6.121   3.819  0.00  0.00    -0.227 N 
ATOM     26  H   UNL     1       0.133  -6.706   3.045  0.00  0.00    +0.173 HD
BRANCH  23  27
ATOM     27  C   UNL     1       0.111  -4.197   2.265  0.00  0.00    +0.326 C 
BRANCH  27  28
ATOM     28  O   UNL     1       0.094  -2.770   2.351  0.00  0.00    -0.483 OA
BRANCH  28  34
ATOM     29  C   UNL     1       0.062   1.510   0.006  0.00  0.00    +0.044 C 
ATOM     30  C   UNL     1       0.080   0.004  -0.003  0.00  0.00    -0.047 A 
ATOM     31  C   UNL     1       0.096  -0.679  -1.206  0.00  0.00    +0.003 A 
ATOM     32  C   UNL     1       0.112  -2.062  -1.218  0.00  0.00    +0.004 A 
ATOM     33  C   UNL     1       0.111  -2.764  -0.028  0.00  0.00    +0.045 A 
ATOM     34  C   UNL     1       0.095  -2.082   1.179  0.00  0.00    +0.121 A 
ATOM     35  C   UNL     1       0.085  -0.694   1.189  0.00  0.00    +0.049 A 
ENDBRANCH  28  34
ENDBRANCH  27  28
ENDBRANCH  23  27
ENDBRANCH   1  25
TORSDOF 6
