REMARK  Name = ZINC09116166
REMARK  9 active torsions:
REMARK  status: ('A' for Active; 'I' for Inactive)
REMARK    1  A    between atoms: C_1  and  C_2
REMARK    2  A    between atoms: C_5  and  S_21
REMARK    3  A    between atoms: C_7  and  N_8
REMARK    4  A    between atoms: C_9  and  C_11
REMARK    5  A    between atoms: C_14  and  C_16
REMARK    6  A    between atoms: S_21  and  N_24
REMARK    7  A    between atoms: N_24  and  C_25
REMARK    8  A    between atoms: C_30  and  O_31
REMARK    9  A    between atoms: O_31  and  C_32
REMARK                            x       y       z     vdW  Elec       q    Type
REMARK                         _______ _______ _______ _____ _____    ______ ____
ROOT
ATOM      1  C   UNL     1      -0.458   1.218  -0.599  0.00  0.00    +0.045 C 
ATOM      2  C   UNL     1      -0.326  -0.283  -0.547  0.00  0.00    -0.029 A 
ATOM      3  C   UNL     1      -0.154  -0.920   0.666  0.00  0.00    +0.007 A 
ATOM      4  C   UNL     1      -0.034  -2.297   0.714  0.00  0.00    +0.029 A 
ATOM      5  C   UNL     1      -0.085  -3.040  -0.452  0.00  0.00    +0.110 A 
ATOM      6  C   UNL     1      -0.257  -2.408  -1.668  0.00  0.00    +0.052 A 
ATOM      7  C   UNL     1      -0.384  -1.026  -1.719  0.00  0.00    +0.039 A 
ENDROOT
BRANCH   7   8
ATOM      8  N   UNL     1      -0.564  -0.384  -2.948  0.00  0.00    -0.280 N 
ATOM      9  C   UNL     1       0.031  -0.870  -4.056  0.00  0.00    +0.267 C 
ATOM     10  O   UNL     1       0.653  -1.914  -4.004  0.00  0.00    -0.268 OA
ATOM     11  H   UNL     1      -1.117   0.411  -3.004  0.00  0.00    +0.155 HD
BRANCH   9  12
ATOM     12  C   UNL     1      -0.071  -0.137  -5.329  0.00  0.00    +0.133 A 
ATOM     13  C   UNL     1       0.531  -0.623  -6.461  0.00  0.00    +0.080 A 
ATOM     14  S   UNL     1       0.106   0.590  -7.629  0.00  0.00    -0.075 S 
ATOM     15  C   UNL     1      -0.834   1.651  -6.543  0.00  0.00    +0.110 A 
ATOM     16  N   UNL     1      -0.752   1.000  -5.396  0.00  0.00    -0.234 NA
BRANCH  15  17
ATOM     17  C   UNL     1      -1.525   2.921  -6.848  0.00  0.00    +0.014 A 
ATOM     18  C   UNL     1      -1.504   3.455  -8.136  0.00  0.00    +0.018 A 
ATOM     19  C   UNL     1      -2.157   4.620  -8.344  0.00  0.00    +0.046 A 
ATOM     20  S   UNL     1      -2.814   4.982  -6.726  0.00  0.00    -0.104 S 
ATOM     21  C   UNL     1      -2.207   3.598  -5.877  0.00  0.00    +0.055 A 
ENDBRANCH  15  17
ENDBRANCH   9  12
ENDBRANCH   7   8
BRANCH   5  22
ATOM     22  S   UNL     1       0.069  -4.794  -0.385  0.00  0.00    +0.073 S 
ATOM     23  O   UNL     1       0.535  -5.209  -1.662  0.00  0.00    -0.150 OA
ATOM     24  O   UNL     1       0.767  -5.095   0.816  0.00  0.00    -0.150 OA
BRANCH  22  25
ATOM     25  N   UNL     1      -1.457  -5.413  -0.213  0.00  0.00    -0.213 N 
ATOM     26  H   UNL     1      -1.678  -5.949   0.565  0.00  0.00    +0.174 HD
BRANCH  25  27
ATOM     27  C   UNL     1      -2.427  -5.164  -1.190  0.00  0.00    +0.090 A 
ATOM     28  C   UNL     1      -2.066  -5.094  -2.528  0.00  0.00    +0.028 A 
ATOM     29  C   UNL     1      -3.027  -4.852  -3.491  0.00  0.00    +0.002 A 
ATOM     30  C   UNL     1      -4.348  -4.671  -3.124  0.00  0.00    +0.004 A 
ATOM     31  C   UNL     1      -4.715  -4.734  -1.793  0.00  0.00    +0.047 A 
ATOM     32  C   UNL     1      -3.758  -4.981  -0.822  0.00  0.00    +0.142 A 
BRANCH  32  33
ATOM     33  O   UNL     1      -4.117  -5.043   0.489  0.00  0.00    -0.493 OA
ATOM     34  C   UNL     1      -5.500  -4.845   0.793  0.00  0.00    +0.277 C 
ENDBRANCH  32  33
ENDBRANCH  25  27
ENDBRANCH  22  25
ENDBRANCH   5  22
TORSDOF 7
