REMARK  Name = ZINC25107868
REMARK  4 active torsions:
REMARK  status: ('A' for Active; 'I' for Inactive)
REMARK    1  A    between atoms: C_1  and  C_2
REMARK    2  A    between atoms: C_2  and  C_4
REMARK    3  A    between atoms: C_2  and  N_21
REMARK    4  A    between atoms: C_22  and  C_24
REMARK                            x       y       z     vdW  Elec       q    Type
REMARK                         _______ _______ _______ _____ _____    ______ ____
ROOT
ATOM      1  C   UNL     1      -1.391  -0.566   0.128  0.00  0.00    +0.236 C 
ATOM      2  O   UNL     1      -1.701  -1.203   1.113  0.00  0.00    -0.274 OA
ATOM      3  N   UNL     1      -2.294  -0.354  -0.850  0.00  0.00    -0.300 N 
ATOM      4  C   UNL     1      -1.904   0.322  -2.095  0.00  0.00    +0.110 C 
ATOM      5  C   UNL     1      -2.850   1.503  -2.330  0.00  0.00    +0.047 C 
ATOM      6  C   UNL     1      -4.296   1.007  -2.308  0.00  0.00    +0.064 C 
ATOM      7  C   UNL     1      -4.613   0.398  -0.942  0.00  0.00    +0.047 C 
ATOM      8  C   UNL     1      -3.685  -0.801  -0.694  0.00  0.00    +0.110 C 
ATOM      9  C   UNL     1      -5.231   2.154  -2.584  0.00  0.00    +0.057 A 
ATOM     10  C   UNL     1      -5.844   2.352  -3.774  0.00  0.00    +0.039 A 
ATOM     11  N   UNL     1      -6.596   3.448  -3.674  0.00  0.00    -0.349 N 
ATOM     12  C   UNL     1      -6.475   3.941  -2.468  0.00  0.00    +0.171 A 
ATOM     13  N   UNL     1      -5.629   3.158  -1.759  0.00  0.00    -0.348 N 
ATOM     14  H   UNL     1      -5.357   3.289  -0.837  0.00  0.00    +0.166 HD
ATOM     15  C   UNL     1      -5.650   1.440  -4.961  0.00  0.00    +0.070 C 
ATOM     16  C   UNL     1      -4.404   0.583  -4.699  0.00  0.00    +0.088 C 
ATOM     17  N   UNL     1      -4.483  -0.009  -3.356  0.00  0.00    -0.305 NA
ATOM     18  H   UNL     1      -3.819  -0.762  -3.253  0.00  0.00    +0.123 HD
ATOM     19  H   UNL     1      -7.145   3.820  -4.381  0.00  0.00    +0.166 HD
ENDROOT
BRANCH   1  21
ATOM     20  C   UNL     1       0.023   1.440   0.482  0.00  0.00    +0.038 C 
ATOM     21  C   UNL     1       0.004  -0.011  -0.002  0.00  0.00    +0.156 C 
BRANCH  21  22
ATOM     22  N   UNL     1       0.925  -0.809   0.812  0.00  0.00    -0.300 N 
ATOM     23  C   UNL     1       2.235  -0.857   0.497  0.00  0.00    +0.245 C 
ATOM     24  O   UNL     1       2.652  -0.237  -0.462  0.00  0.00    -0.270 OA
ATOM     25  H   UNL     1       0.592  -1.303   1.577  0.00  0.00    +0.150 HD
BRANCH  23  26
ATOM     26  C   UNL     1       3.164  -1.662   1.318  0.00  0.00    +0.038 A 
ATOM     27  C   UNL     1       2.687  -2.379   2.417  0.00  0.00    +0.013 A 
ATOM     28  C   UNL     1       3.558  -3.129   3.179  0.00  0.00    +0.002 A 
ATOM     29  C   UNL     1       4.903  -3.171   2.857  0.00  0.00    +0.015 A 
ATOM     30  C   UNL     1       5.383  -2.462   1.769  0.00  0.00    +0.019 A 
ATOM     31  C   UNL     1       4.520  -1.713   0.994  0.00  0.00    +0.028 A 
ATOM     32 BR   UNL     1       7.224  -2.526   1.339  0.00  0.00    -0.050 Br
ENDBRANCH  23  26
ENDBRANCH  21  22
ENDBRANCH   1  21
TORSDOF 3
