REMARK  Name = ZINC39449245
REMARK  5 active torsions:
REMARK  status: ('A' for Active; 'I' for Inactive)
REMARK    1  A    between atoms: C_4  and  C_7
REMARK    2  A    between atoms: C_7  and  C_8
REMARK    3  A    between atoms: N_24  and  S_25
REMARK    4  A    between atoms: S_25  and  O_28
REMARK    5  A    between atoms: O_28  and  C_29
REMARK                            x       y       z     vdW  Elec       q    Type
REMARK                         _______ _______ _______ _____ _____    ______ ____
ROOT
ATOM      1  C   UNL     1       4.079  -0.928   1.204  0.00  0.00    +0.082 C 
ATOM      2  C   UNL     1       5.484  -1.540   1.192  0.00  0.00    +0.103 C 
ATOM      3  C   UNL     1       5.404  -2.963   0.704  0.00  0.00    +0.185 C 
ATOM      4  O   UNL     1       6.348  -3.450   0.115  0.00  0.00    -0.290 OA
ATOM      5  C   UNL     1       4.242  -3.737   0.925  0.00  0.00    +0.137 A 
ATOM      6  C   UNL     1       3.145  -3.167   1.544  0.00  0.00    +0.083 A 
ATOM      7  C   UNL     1       1.939  -3.973   1.780  0.00  0.00    +0.099 A 
ATOM      8  C   UNL     1       1.942  -5.318   1.351  0.00  0.00    +0.070 A 
ATOM      9  C   UNL     1       0.809  -6.103   1.563  0.00  0.00    +0.037 A 
ATOM     10  C   UNL     1      -0.278  -5.519   2.193  0.00  0.00    +0.060 A 
ATOM     11  C   UNL     1      -0.208  -4.189   2.588  0.00  0.00    +0.131 A 
ATOM     12  N   UNL     1       0.870  -3.465   2.378  0.00  0.00    -0.251 NA
ATOM     13 CL   UNL     1      -1.718  -6.443   2.486  0.00  0.00    -0.082 Cl
ATOM     14  C   UNL     1       3.143  -5.851   0.692  0.00  0.00    +0.283 A 
ATOM     15  O   UNL     1       3.166  -7.007   0.312  0.00  0.00    -0.265 OA
ATOM     16  N   UNL     1       4.217  -5.062   0.508  0.00  0.00    -0.141 N 
ATOM     17  N   UNL     1       3.184  -1.840   1.932  0.00  0.00    -0.337 N 
ATOM     18  H   UNL     1       2.637  -1.519   2.666  0.00  0.00    +0.146 HD
ENDROOT
BRANCH  16  19
ATOM     19  S   UNL     1       5.554  -5.691  -0.239  0.00  0.00    +0.224 S 
ATOM     20  O   UNL     1       5.319  -7.085  -0.386  0.00  0.00    -0.113 OA
ATOM     21  O   UNL     1       5.836  -4.845  -1.346  0.00  0.00    -0.113 OA
BRANCH  19  22
ATOM     22  O   UNL     1       6.720  -5.545   0.728  0.00  0.00    -0.329 OA
BRANCH  22  23
ATOM     23  C   UNL     1       6.700  -6.434   1.756  0.00  0.00    +0.158 A 
ATOM     24  C   UNL     1       6.043  -6.115   2.936  0.00  0.00    +0.048 A 
ATOM     25  C   UNL     1       6.024  -7.020   3.980  0.00  0.00    +0.004 A 
ATOM     26  C   UNL     1       6.657  -8.242   3.849  0.00  0.00    +0.000 A 
ATOM     27  C   UNL     1       7.312  -8.561   2.675  0.00  0.00    +0.004 A 
ATOM     28  C   UNL     1       7.330  -7.662   1.626  0.00  0.00    +0.048 A 
ENDBRANCH  22  23
ENDBRANCH  19  22
ENDBRANCH  16  19
BRANCH   1  29
ATOM     29  C   UNL     1       3.580  -0.753  -0.233  0.00  0.00    +0.057 C 
BRANCH  29  33
ATOM     30  C   UNL     1      -0.201   1.233  -0.198  0.00  0.00    +0.000 A 
ATOM     31  C   UNL     1       0.966   1.970  -0.267  0.00  0.00    +0.000 A 
ATOM     32  C   UNL     1       2.190   1.327  -0.278  0.00  0.00    +0.004 A 
ATOM     33  C   UNL     1       2.246  -0.052  -0.220  0.00  0.00    -0.046 A 
ATOM     34  C   UNL     1       1.079  -0.790  -0.150  0.00  0.00    +0.004 A 
ATOM     35  C   UNL     1      -0.145  -0.147  -0.141  0.00  0.00    +0.000 A 
ENDBRANCH  29  33
ENDBRANCH   1  29
TORSDOF 5
