REMARK  Name = ZINC15044708
REMARK  6 active torsions:
REMARK  status: ('A' for Active; 'I' for Inactive)
REMARK    1  A    between atoms: C_1  and  C_2
REMARK    2  A    between atoms: C_2  and  C_4
REMARK    3  A    between atoms: C_2  and  N_57
REMARK    4  A    between atoms: C_19  and  C_22
REMARK    5  A    between atoms: N_24  and  C_25
REMARK    6  A    between atoms: C_30  and  O_31
REMARK                            x       y       z     vdW  Elec       q    Type
REMARK                         _______ _______ _______ _____ _____    ______ ____
ROOT
ATOM      1  C   UNL     1      -4.994   1.064   0.103  0.00  0.00    -0.077 C 
ATOM      2  C   UNL     1      -3.749   1.883  -0.245  0.00  0.00    -0.006 C 
ATOM      3  C   UNL     1      -2.543   0.947  -0.356  0.00  0.00    +0.072 C 
ATOM      4  C   UNL     1      -2.831  -0.121  -1.415  0.00  0.00    -0.006 C 
ATOM      5  C   UNL     1      -4.102  -0.882  -1.033  0.00  0.00    -0.077 C 
ATOM      6  N   UNL     1      -5.230   0.071  -0.967  0.00  0.00    +0.387 N 
ATOM      7  H   UNL     1      -5.305   0.562  -1.866  0.00  0.00    -0.081 HD
ENDROOT
BRANCH   3   8
ATOM      8  C   UNL     1      -1.326   1.739  -0.757  0.00  0.00    +0.220 C 
ATOM      9  O   UNL     1      -1.413   2.936  -0.938  0.00  0.00    -0.275 OA
ATOM     10  N   UNL     1      -0.140   1.119  -0.916  0.00  0.00    -0.282 N 
ATOM     11  H   UNL     1      -0.086   0.152  -0.852  0.00  0.00    +0.155 HD
BRANCH  10  12
ATOM     12  C   UNL     1       1.014   1.869  -1.180  0.00  0.00    +0.075 A 
ATOM     13  C   UNL     1       1.045   3.224  -0.884  0.00  0.00    +0.027 A 
ATOM     14  C   UNL     1       2.184   3.962  -1.146  0.00  0.00    +0.002 A 
ATOM     15  C   UNL     1       3.294   3.353  -1.702  0.00  0.00    +0.004 A 
ATOM     16  C   UNL     1       3.270   2.004  -1.999  0.00  0.00    +0.047 A 
ATOM     17  C   UNL     1       2.134   1.256  -1.735  0.00  0.00    +0.138 A 
BRANCH  17  18
ATOM     18  O   UNL     1       2.112  -0.073  -2.022  0.00  0.00    -0.505 OA
ATOM     19  H   UNL     1       1.802  -0.278  -2.915  0.00  0.00    +0.292 HD
ENDBRANCH  17  18
ENDBRANCH  10  12
ENDBRANCH   3   8
BRANCH   6  21
ATOM     20  C   UNL     1      -6.577  -1.083   0.755  0.00  0.00    -0.004 C 
ATOM     21  C   UNL     1      -6.491  -0.656  -0.712  0.00  0.00    +0.017 C 
BRANCH  21  22
ATOM     22  C   UNL     1      -7.647   0.254  -1.038  0.00  0.00    +0.206 C 
ATOM     23  O   UNL     1      -7.465   1.446  -1.160  0.00  0.00    -0.277 OA
ATOM     24  N   UNL     1      -8.884  -0.259  -1.196  0.00  0.00    -0.262 N 
ATOM     25  C   UNL     1      -9.131  -1.701  -1.053  0.00  0.00    +0.209 C 
ATOM     26  C   UNL     1     -10.074  -2.148  -2.141  0.00  0.00    +0.235 C 
ATOM     27  O   UNL     1     -10.016  -3.287  -2.554  0.00  0.00    -0.274 OA
ATOM     28  N   UNL     1     -10.981  -1.298  -2.660  0.00  0.00    -0.283 N 
ATOM     29  C   UNL     1     -11.036   0.034  -2.237  0.00  0.00    +0.055 A 
ATOM     30  C   UNL     1      -9.978   0.568  -1.495  0.00  0.00    +0.058 A 
ATOM     31  C   UNL     1     -10.015   1.885  -1.081  0.00  0.00    +0.025 A 
ATOM     32  C   UNL     1     -11.110   2.673  -1.393  0.00  0.00    +0.002 A 
ATOM     33  C   UNL     1     -12.161   2.146  -2.119  0.00  0.00    +0.002 A 
ATOM     34  C   UNL     1     -12.128   0.830  -2.543  0.00  0.00    +0.025 A 
ATOM     35  H   UNL     1     -11.603  -1.614  -3.334  0.00  0.00    +0.155 HD
ENDBRANCH  21  22
ENDBRANCH   6  21
TORSDOF 5
