REMARK  Name = ZINC08964563
REMARK  12 active torsions:
REMARK  status: ('A' for Active; 'I' for Inactive)
REMARK    1  A    between atoms: C_1  and  C_2
REMARK    2  A    between atoms: C_2  and  C_44
REMARK    3  A    between atoms: C_4  and  C_9
REMARK    4  A    between atoms: C_9  and  C_11
REMARK    5  A    between atoms: C_9  and  N_14
REMARK    6  A    between atoms: C_11  and  C_12
REMARK    7  A    between atoms: C_15  and  C_17
REMARK    8  A    between atoms: C_17  and  O_18
REMARK    9  A    between atoms: O_18  and  N_19
REMARK   10  A    between atoms: C_23  and  C_43
REMARK   11  A    between atoms: C_28  and  C_42
REMARK   12  A    between atoms: C_39  and  O_41
REMARK                            x       y       z     vdW  Elec       q    Type
REMARK                         _______ _______ _______ _____ _____    ______ ____
ROOT
ATOM      1  N   UNL     1      -4.067   3.519  -1.652  0.00  0.00    -0.089 NA
ATOM      2  C   UNL     1      -3.140   2.612  -1.625  0.00  0.00    +0.080 C 
ATOM      3  C   UNL     1      -3.466   1.146  -1.817  0.00  0.00    +0.059 C 
ATOM      4  C   UNL     1      -2.687   0.344  -0.777  0.00  0.00    +0.017 C 
ATOM      5  C   UNL     1      -1.190   0.597  -0.857  0.00  0.00    -0.007 C 
ATOM      6  C   UNL     1      -0.510   0.077   0.410  0.00  0.00    +0.002 C 
ATOM      7  C   UNL     1      -1.151   0.689   1.657  0.00  0.00    +0.005 C 
ATOM      8  C   UNL     1      -0.562  -0.001   2.887  0.00  0.00    +0.010 C 
ATOM      9  C   UNL     1       0.941   0.124   2.956  0.00  0.00    -0.003 C 
ATOM     10  C   UNL     1       1.664  -0.187   1.642  0.00  0.00    +0.001 C 
ATOM     11  C   UNL     1       0.978   0.418   0.419  0.00  0.00    -0.003 C 
ATOM     12  C   UNL     1       1.170   1.933   0.377  0.00  0.00    +0.008 C 
ATOM     13  C   UNL     1       0.606   2.478  -0.939  0.00  0.00    +0.031 C 
ATOM     14  C   UNL     1      -0.836   2.034  -1.089  0.00  0.00    -0.062 C 
ATOM     15  C   UNL     1      -1.730   2.964  -1.404  0.00  0.00    +0.026 C 
ATOM     16  C   UNL     1       3.040   0.509   1.813  0.00  0.00    +0.007 C 
ATOM     17  C   UNL     1       2.790   1.717   2.734  0.00  0.00    +0.032 C 
ATOM     18  C   UNL     1       1.401   1.527   3.370  0.00  0.00    +0.121 C 
ATOM     19  C   UNL     1       1.440  -0.868   4.022  0.00  0.00    +0.014 C 
ATOM     20  C   UNL     1      -0.663  -0.215  -2.045  0.00  0.00    +0.016 C 
ENDROOT
BRANCH  18  21
ATOM     21  O   UNL     1       1.502   1.607   4.795  0.00  0.00    -0.391 OA
ATOM     22  H   UNL     1       1.789   2.470   5.122  0.00  0.00    +0.210 HD
ENDBRANCH  18  21
BRANCH   1  23
ATOM     23  O   UNL     1      -5.416   3.147  -1.865  0.00  0.00    -0.384 OA
BRANCH  23  24
ATOM     24  C   UNL     1      -6.329   4.246  -1.870  0.00  0.00    +0.358 C 
BRANCH  24  26
ATOM     25  N   UNL     1      -8.761   4.601  -2.148  0.00  0.00    -0.309 N 
ATOM     26  C   UNL     1      -7.728   3.737  -2.103  0.00  0.00    +0.254 C 
ATOM     27  O   UNL     1      -7.924   2.549  -2.250  0.00  0.00    -0.272 OA
ATOM     28  H   UNL     1      -8.615   5.542  -1.961  0.00  0.00    +0.149 HD
BRANCH  25  29
ATOM     29  C   UNL     1     -10.105   4.120  -2.481  0.00  0.00    +0.087 C 
BRANCH  29  33
ATOM     30  C   UNL     1     -13.428   5.870  -0.258  0.00  0.00    +0.041 C 
ATOM     31  C   UNL     1     -11.999   6.332   0.036  0.00  0.00    +0.064 C 
ATOM     32  C   UNL     1     -11.009   5.272  -0.453  0.00  0.00    +0.040 C 
ATOM     33  C   UNL     1     -11.145   5.120  -1.971  0.00  0.00    +0.015 C 
ATOM     34  C   UNL     1     -10.913   6.482  -2.633  0.00  0.00    +0.033 C 
ATOM     35  C   UNL     1     -11.907   7.495  -2.059  0.00  0.00    +0.161 C 
ATOM     36  O   UNL     1     -11.749   7.565  -0.640  0.00  0.00    -0.374 OA
ATOM     37  C   UNL     1     -11.828   6.533   1.544  0.00  0.00    +0.041 C 
ENDBRANCH  29  33
BRANCH  29  38
ATOM     38  C   UNL     1     -10.235   3.978  -3.998  0.00  0.00    +0.147 C 
BRANCH  38  39
ATOM     39  C   UNL     1     -11.558   3.339  -4.331  0.00  0.00    +0.358 C 
ATOM     40  O   UNL     1     -12.270   2.926  -3.446  0.00  0.00    -0.246 OA
ATOM     41  O   UNL     1     -11.946   3.227  -5.612  0.00  0.00    -0.246 OA
ENDBRANCH  38  39
ENDBRANCH  29  38
ENDBRANCH  25  29
ENDBRANCH  24  26
ENDBRANCH  23  24
ENDBRANCH   1  23
TORSDOF 8
