REMARK  Name = ZINC39525658
REMARK  6 active torsions:
REMARK  status: ('A' for Active; 'I' for Inactive)
REMARK    1  A    between atoms: C_1  and  C_2
REMARK    2  A    between atoms: C_2  and  C_3
REMARK    3  A    between atoms: C_2  and  S_4
REMARK    4  A    between atoms: S_4  and  C_7
REMARK    5  A    between atoms: C_17  and  S_21
REMARK    6  A    between atoms: S_21  and  C_24
REMARK                            x       y       z     vdW  Elec       q    Type
REMARK                         _______ _______ _______ _____ _____    ______ ____
ROOT
ATOM      1  C   UNL     1      -1.401  -2.466   0.678  0.00  0.00    +0.132 C 
ATOM      2  C   UNL     1      -0.722  -2.858   1.992  0.00  0.00    +0.026 C 
ATOM      3  C   UNL     1      -0.554  -4.378   2.046  0.00  0.00    +0.004 C 
ATOM      4  C   UNL     1      -1.928  -5.045   1.963  0.00  0.00    +0.023 C 
ATOM      5  C   UNL     1      -2.607  -4.653   0.648  0.00  0.00    +0.036 C 
ATOM      6  C   UNL     1      -2.775  -3.134   0.596  0.00  0.00    +0.049 C 
ATOM      7  C   UNL     1      -1.741  -5.110  -0.528  0.00  0.00    +0.023 C 
ATOM      8  C   UNL     1      -1.592  -6.633  -0.485  0.00  0.00    +0.005 C 
ATOM      9  C   UNL     1      -2.981  -7.276  -0.524  0.00  0.00    +0.043 C 
ATOM     10  C   UNL     1      -3.810  -6.757   0.653  0.00  0.00    +0.216 C 
ATOM     11  N   UNL     1      -3.925  -5.295   0.566  0.00  0.00    -0.212 NA
ATOM     12 BR   UNL     1      -5.064  -4.641   1.869  0.00  0.00    +0.015 Br
ENDROOT
BRANCH   1  13
ATOM     13  S   UNL     1      -1.600  -0.663   0.615  0.00  0.00    -0.026 S 
ATOM     14  O   UNL     1      -2.256  -0.242   1.802  0.00  0.00    -0.174 OA
ATOM     15  O   UNL     1      -2.160  -0.317  -0.645  0.00  0.00    -0.174 OA
BRANCH  13  17
ATOM     16  C   UNL     1       0.867  -0.583  -0.565  0.00  0.00    +0.031 C 
ATOM     17  C   UNL     1       0.113  -0.069   0.664  0.00  0.00    +0.125 C 
ATOM     18  C   UNL     1       0.123   1.461   0.665  0.00  0.00    +0.031 C 
ENDBRANCH  13  17
ENDBRANCH   1  13
BRANCH  10  19
ATOM     19  S   UNL     1      -5.466  -7.497   0.599  0.00  0.00    +0.014 S 
ATOM     20  O   UNL     1      -6.453  -6.480   0.494  0.00  0.00    -0.168 OA
ATOM     21  O   UNL     1      -5.476  -8.610  -0.285  0.00  0.00    -0.168 OA
BRANCH  19  22
ATOM     22  C   UNL     1      -5.704  -8.191   2.200  0.00  0.00    +0.090 A 
ATOM     23  C   UNL     1      -5.200  -9.445   2.492  0.00  0.00    +0.027 A 
ATOM     24  C   UNL     1      -5.387  -9.990   3.748  0.00  0.00    +0.002 A 
ATOM     25  C   UNL     1      -6.078  -9.281   4.713  0.00  0.00    +0.000 A 
ATOM     26  C   UNL     1      -6.582  -8.027   4.422  0.00  0.00    +0.002 A 
ATOM     27  C   UNL     1      -6.391  -7.481   3.167  0.00  0.00    +0.027 A 
ENDBRANCH  19  22
ENDBRANCH  10  19
TORSDOF 4
