REMARK  Name = ZINC57504636
REMARK  8 active torsions:
REMARK  status: ('A' for Active; 'I' for Inactive)
REMARK    1  A    between atoms: C_1  and  C_2
REMARK    2  A    between atoms: C_2  and  C_3
REMARK    3  A    between atoms: C_8  and  N_9
REMARK    4  A    between atoms: C_10  and  C_12
REMARK    5  A    between atoms: C_12  and  S_13
REMARK    6  A    between atoms: S_13  and  C_14
REMARK    7  A    between atoms: N_24  and  C_25
REMARK    8  A    between atoms: C_25  and  C_26
REMARK                            x       y       z     vdW  Elec       q    Type
REMARK                         _______ _______ _______ _____ _____    ______ ____
ROOT
ATOM      1  C   UNL     1       7.468  -0.242   2.430  0.00  0.00    +0.173 A 
ATOM      2  N   UNL     1       6.718   0.171   3.421  0.00  0.00    -0.223 NA
ATOM      3  C   UNL     1       7.245   0.452   4.638  0.00  0.00    +0.083 A 
ATOM      4  C   UNL     1       6.445   0.893   5.694  0.00  0.00    +0.078 A 
ATOM      5  C   UNL     1       7.016   1.171   6.920  0.00  0.00    +0.168 A 
ATOM      6  C   UNL     1       8.395   1.014   7.115  0.00  0.00    +0.167 A 
ATOM      7  C   UNL     1       9.200   0.581   6.083  0.00  0.00    +0.065 A 
ATOM      8  C   UNL     1       8.636   0.296   4.838  0.00  0.00    +0.069 A 
ATOM      9  C   UNL     1       9.451  -0.168   3.710  0.00  0.00    +0.263 A 
ATOM     10  O   UNL     1      10.653  -0.322   3.821  0.00  0.00    -0.267 OA
ATOM     11  N   UNL     1       8.817  -0.423   2.542  0.00  0.00    -0.280 N 
ATOM     12  O   UNL     1       8.692   1.354   8.404  0.00  0.00    -0.453 OA
ATOM     13  C   UNL     1       7.559   2.108   8.873  0.00  0.00    +0.466 C 
ATOM     14  O   UNL     1       6.462   1.606   8.088  0.00  0.00    -0.453 OA
ENDROOT
BRANCH   1  15
ATOM     15  S   UNL     1       6.699  -0.586   0.882  0.00  0.00    -0.078 S 
BRANCH  15  16
ATOM     16  C   UNL     1       4.947  -0.219   1.171  0.00  0.00    +0.173 C 
BRANCH  16  18
ATOM     17  N   UNL     1       2.833  -0.268  -0.113  0.00  0.00    -0.285 N 
ATOM     18  C   UNL     1       4.165  -0.474  -0.091  0.00  0.00    +0.227 C 
ATOM     19  O   UNL     1       4.734  -0.865  -1.088  0.00  0.00    -0.275 OA
ATOM     20  H   UNL     1       2.388   0.106   0.663  0.00  0.00    +0.155 HD
BRANCH  17  26
ATOM     21  C   UNL     1       0.800  -1.084  -1.129  0.00  0.00    -0.026 A 
ATOM     22  C   UNL     1       0.070  -1.399  -2.258  0.00  0.00    +0.005 A 
ATOM     23  C   UNL     1       0.627  -1.234  -3.513  0.00  0.00    +0.000 A 
ATOM     24  C   UNL     1       1.917  -0.751  -3.641  0.00  0.00    +0.002 A 
ATOM     25  C   UNL     1       2.652  -0.433  -2.516  0.00  0.00    +0.023 A 
ATOM     26  C   UNL     1       2.093  -0.594  -1.255  0.00  0.00    +0.037 A 
BRANCH  21  28
ATOM     27  C   UNL     1      -0.422   0.058   0.702  0.00  0.00    +0.009 C 
ATOM     28  C   UNL     1       0.191  -1.265   0.238  0.00  0.00    +0.033 C 
ENDBRANCH  21  28
ENDBRANCH  17  26
ENDBRANCH  16  18
ENDBRANCH  15  16
ENDBRANCH   1  15
BRANCH  11  29
ATOM     29  C   UNL     1       9.585  -0.893   1.386  0.00  0.00    +0.201 C 
BRANCH  29  30
ATOM     30  C   UNL     1      10.063   0.290   0.586  0.00  0.00    +0.125 A 
ATOM     31  C   UNL     1      11.229   0.938   0.759  0.00  0.00    +0.046 A 
ATOM     32  C   UNL     1      11.268   1.976  -0.200  0.00  0.00    +0.041 A 
ATOM     33  C   UNL     1      10.123   1.901  -0.902  0.00  0.00    +0.195 A 
ATOM     34  O   UNL     1       9.399   0.875  -0.425  0.00  0.00    -0.466 OA
ENDBRANCH  29  30
ENDBRANCH  11  29
TORSDOF 7
