REMARK  Name = ZINC62054219
REMARK  7 active torsions:
REMARK  status: ('A' for Active; 'I' for Inactive)
REMARK    1  A    between atoms: C_1  and  C_2
REMARK    2  A    between atoms: C_2  and  C_3
REMARK    3  A    between atoms: C_3  and  C_5
REMARK    4  A    between atoms: C_3  and  N_21
REMARK    5  A    between atoms: C_5  and  C_7
REMARK    6  A    between atoms: C_5  and  S_14
REMARK    7  A    between atoms: S_14  and  C_15
REMARK                            x       y       z     vdW  Elec       q    Type
REMARK                         _______ _______ _______ _____ _____    ______ ____
ROOT
ATOM      1  C   UNL     1      -1.465  -1.834  -0.143  0.00  0.00    +0.063 C 
ENDROOT
BRANCH   1   2
ATOM      2  C   UNL     1      -0.823  -2.051  -1.489  0.00  0.00    -0.022 A 
ATOM      3  C   UNL     1      -1.612  -2.239  -2.609  0.00  0.00    +0.006 A 
ATOM      4  C   UNL     1      -1.024  -2.438  -3.844  0.00  0.00    +0.000 A 
ATOM      5  C   UNL     1       0.353  -2.449  -3.960  0.00  0.00    +0.001 A 
ATOM      6  C   UNL     1       1.143  -2.261  -2.841  0.00  0.00    +0.015 A 
ATOM      7  C   UNL     1       0.555  -2.057  -1.606  0.00  0.00    +0.022 A 
ATOM      8 BR   UNL     1       1.635  -1.793  -0.076  0.00  0.00    -0.050 Br
ENDBRANCH   1   2
BRANCH   1   9
ATOM      9  C   UNL     1      -1.686  -0.337   0.081  0.00  0.00    -0.058 C 
BRANCH   9  10
ATOM     10  N   UNL     1      -0.397   0.364   0.012  0.00  0.00    +0.381 N 
ATOM     11  H   UNL     1      -0.534   1.343   0.219  0.00  0.00    -0.090 HD
ATOM     12  H   UNL     1       0.239  -0.035   0.686  0.00  0.00    -0.090 HD
ATOM     13  H   UNL     1      -0.010   0.268  -0.914  0.00  0.00    -0.090 HD
ENDBRANCH   9  10
BRANCH   9  15
ATOM     14  C   UNL     1      -2.941   1.675  -0.707  0.00  0.00    +0.002 C 
ATOM     15  C   UNL     1      -2.621   0.208  -1.001  0.00  0.00    -0.018 C 
ENDBRANCH   9  15
ENDBRANCH   1   9
BRANCH   1  16
ATOM     16  S   UNL     1      -3.060  -2.696  -0.087  0.00  0.00    -0.151 S 
BRANCH  16  17
ATOM     17  C   UNL     1      -3.572  -2.559   1.648  0.00  0.00    +0.051 C 
ATOM     18  C   UNL     1      -2.630  -3.388   2.527  0.00  0.00    +0.042 C 
ATOM     19  C   UNL     1      -3.115  -3.330   3.978  0.00  0.00    +0.161 C 
ATOM     20  O   UNL     1      -4.459  -3.811   4.048  0.00  0.00    -0.380 OA
ATOM     21  C   UNL     1      -5.393  -3.047   3.283  0.00  0.00    +0.161 C 
ATOM     22  C   UNL     1      -4.999  -3.093   1.805  0.00  0.00    +0.042 C 
ENDBRANCH  16  17
ENDBRANCH   1  16
TORSDOF 6
