REMARK  Name = ZINC39920168
REMARK  10 active torsions:
REMARK  status: ('A' for Active; 'I' for Inactive)
REMARK    1  A    between atoms: C_1  and  C_2
REMARK    2  A    between atoms: C_6  and  O_8
REMARK    3  A    between atoms: O_8  and  C_9
REMARK    4  A    between atoms: C_9  and  C_10
REMARK    5  A    between atoms: N_12  and  N_13
REMARK    6  A    between atoms: C_14  and  C_26
REMARK    7  A    between atoms: C_29  and  O_34
REMARK    8  A    between atoms: C_30  and  O_32
REMARK    9  A    between atoms: O_32  and  C_33
REMARK   10  A    between atoms: O_34  and  C_35
REMARK                            x       y       z     vdW  Elec       q    Type
REMARK                         _______ _______ _______ _____ _____    ______ ____
ROOT
ATOM      1  N   UNL     1       0.114  -6.669   5.120  0.00  0.00    -0.191 N 
ATOM      2  C   UNL     1       1.357  -7.230   5.650  0.00  0.00    +0.212 C 
ATOM      3  N   UNL     1       1.410  -7.063   7.108  0.00  0.00    -0.320 N 
ATOM      4  C   UNL     1       0.269  -7.350   7.851  0.00  0.00    +0.041 A 
ATOM      5  C   UNL     1       0.340  -7.807   9.155  0.00  0.00    +0.025 A 
ATOM      6  C   UNL     1      -0.823  -8.080   9.849  0.00  0.00    +0.022 A 
ATOM      7  C   UNL     1      -2.061  -7.900   9.248  0.00  0.00    +0.042 A 
ATOM      8  C   UNL     1      -2.148  -7.444   7.948  0.00  0.00    +0.035 A 
ATOM      9  C   UNL     1      -0.983  -7.163   7.239  0.00  0.00    +0.061 A 
ATOM     10  C   UNL     1      -1.018  -6.661   5.854  0.00  0.00    +0.267 C 
ATOM     11  O   UNL     1      -2.057  -6.248   5.376  0.00  0.00    -0.268 OA
ATOM     12 CL   UNL     1      -3.509  -8.252  10.137  0.00  0.00    -0.084 Cl
ATOM     13  H   UNL     1       2.222  -6.761   7.543  0.00  0.00    +0.148 HD
ENDROOT
BRANCH   2  14
ATOM     14  C   UNL     1       1.424  -8.698   5.317  0.00  0.00    -0.004 A 
ATOM     15  C   UNL     1       0.819  -9.172   4.167  0.00  0.00    +0.011 A 
ATOM     16  C   UNL     1       0.877 -10.518   3.857  0.00  0.00    +0.050 A 
ATOM     17  C   UNL     1       1.544 -11.395   4.698  0.00  0.00    +0.162 A 
ATOM     18  C   UNL     1       2.152 -10.918   5.855  0.00  0.00    +0.162 A 
ATOM     19  C   UNL     1       2.094  -9.567   6.158  0.00  0.00    +0.056 A 
BRANCH  18  20
ATOM     20  O   UNL     1       2.807 -11.774   6.684  0.00  0.00    -0.491 OA
ATOM     21  C   UNL     1       3.408 -11.214   7.852  0.00  0.00    +0.277 C 
ENDBRANCH  18  20
BRANCH  17  22
ATOM     22  O   UNL     1       1.602 -12.719   4.394  0.00  0.00    -0.491 OA
ATOM     23  C   UNL     1       0.954 -13.138   3.191  0.00  0.00    +0.277 C 
ENDBRANCH  17  22
ENDBRANCH   2  14
BRANCH   1  26
ATOM     24  C   UNL     1       0.083  -4.787   3.662  0.00  0.00    +0.267 C 
ATOM     25  O   UNL     1       0.077  -4.055   4.629  0.00  0.00    -0.271 OA
ATOM     26  N   UNL     1       0.101  -6.125   3.830  0.00  0.00    -0.227 N 
ATOM     27  H   UNL     1       0.105  -6.710   3.056  0.00  0.00    +0.173 HD
BRANCH  24  28
ATOM     28  C   UNL     1       0.069  -4.202   2.274  0.00  0.00    +0.326 C 
BRANCH  28  29
ATOM     29  O   UNL     1       0.050  -2.776   2.358  0.00  0.00    -0.483 OA
BRANCH  29  35
ATOM     30  C   UNL     1      -0.018   1.503   0.010  0.00  0.00    +0.044 C 
ATOM     31  C   UNL     1       0.002  -0.004   0.002  0.00  0.00    -0.047 A 
ATOM     32  C   UNL     1       0.006  -0.688  -1.200  0.00  0.00    +0.003 A 
ATOM     33  C   UNL     1       0.024  -2.071  -1.211  0.00  0.00    +0.004 A 
ATOM     34  C   UNL     1       0.039  -2.772  -0.020  0.00  0.00    +0.045 A 
ATOM     35  C   UNL     1       0.035  -2.088   1.186  0.00  0.00    +0.121 A 
ATOM     36  C   UNL     1       0.023  -0.700   1.195  0.00  0.00    +0.049 A 
ENDBRANCH  29  35
ENDBRANCH  28  29
ENDBRANCH  24  28
ENDBRANCH   1  26
TORSDOF 7
