REMARK  Name = ZINC41584445
REMARK  11 active torsions:
REMARK  status: ('A' for Active; 'I' for Inactive)
REMARK    1  A    between atoms: C_1  and  C_2
REMARK    2  A    between atoms: C_2  and  C_3
REMARK    3  A    between atoms: C_3  and  N_4
REMARK    4  A    between atoms: N_4  and  C_5
REMARK    5  A    between atoms: N_4  and  C_8
REMARK    6  A    between atoms: C_5  and  C_6
REMARK    7  A    between atoms: C_6  and  C_7
REMARK    8  A    between atoms: C_8  and  C_9
REMARK    9  A    between atoms: C_10  and  O_28
REMARK   10  A    between atoms: C_12  and  C_27
REMARK   11  A    between atoms: C_17  and  C_18
REMARK                            x       y       z     vdW  Elec       q    Type
REMARK                         _______ _______ _______ _____ _____    ______ ____
ROOT
ATOM      1  C   UNL     1       1.935  -4.037  -2.131  0.00  0.00    +0.020 A 
ATOM      2  C   UNL     1       2.933  -4.732  -1.468  0.00  0.00    +0.122 A 
ATOM      3  C   UNL     1       2.994  -6.122  -1.536  0.00  0.00    +0.050 A 
ATOM      4  C   UNL     1       2.064  -6.814  -2.260  0.00  0.00    -0.033 A 
ATOM      5  C   UNL     1       1.054  -6.127  -2.933  0.00  0.00    +0.071 A 
ATOM      6  C   UNL     1       0.979  -4.726  -2.867  0.00  0.00    +0.145 A 
ATOM      7  O   UNL     1      -0.078  -4.291  -3.587  0.00  0.00    -0.451 OA
ATOM      8  C   UNL     1      -0.758  -5.316  -4.152  0.00  0.00    +0.176 C 
ATOM      9  C   UNL     1      -1.862  -5.212  -4.932  0.00  0.00    +0.058 C 
ATOM     10  C   UNL     1      -0.072  -6.564  -3.778  0.00  0.00    +0.232 C 
ATOM     11  O   UNL     1      -0.374  -7.703  -4.088  0.00  0.00    -0.283 OA
ATOM     12  C   UNL     1       2.132  -8.318  -2.333  0.00  0.00    +0.045 C 
ENDROOT
BRANCH   9  13
ATOM     13  C   UNL     1      -2.596  -6.420  -5.333  0.00  0.00    -0.020 A 
ATOM     14  C   UNL     1      -2.771  -7.471  -4.425  0.00  0.00    +0.008 A 
ATOM     15  C   UNL     1      -3.461  -8.601  -4.808  0.00  0.00    +0.002 A 
ATOM     16  C   UNL     1      -3.981  -8.699  -6.087  0.00  0.00    +0.015 A 
ATOM     17  C   UNL     1      -3.812  -7.665  -6.992  0.00  0.00    +0.018 A 
ATOM     18  C   UNL     1      -3.129  -6.525  -6.623  0.00  0.00    +0.023 A 
ATOM     19 BR   UNL     1      -4.526  -7.813  -8.737  0.00  0.00    -0.050 Br
ENDBRANCH   9  13
BRANCH   2  20
ATOM     20  O   UNL     1       3.861  -4.053  -0.747  0.00  0.00    -0.506 OA
ATOM     21  H   UNL     1       3.615  -3.913   0.177  0.00  0.00    +0.292 HD
ENDBRANCH   2  20
BRANCH   1  22
ATOM     22  C   UNL     1       1.882  -2.533  -2.049  0.00  0.00    -0.036 C 
BRANCH  22  23
ATOM     23  N   UNL     1       0.922  -2.133  -1.011  0.00  0.00    +0.383 N 
ATOM     24  H   UNL     1       0.028  -2.561  -1.198  0.00  0.00    -0.081 HD
BRANCH  23  25
ATOM     25  C   UNL     1       1.411  -2.572   0.303  0.00  0.00    -0.079 C 
BRANCH  25  27
ATOM     26  C   UNL     1       0.864  -2.724   2.736  0.00  0.00    +0.002 C 
ATOM     27  C   UNL     1       0.355  -2.267   1.367  0.00  0.00    -0.022 C 
ENDBRANCH  25  27
ENDBRANCH  23  25
BRANCH  23  28
ATOM     28  C   UNL     1       0.777  -0.671  -1.016  0.00  0.00    -0.079 C 
BRANCH  28  29
ATOM     29  C   UNL     1       0.122  -0.228  -2.326  0.00  0.00    -0.022 C 
ATOM     30  C   UNL     1       0.049   1.300  -2.368  0.00  0.00    +0.002 C 
ENDBRANCH  28  29
ENDBRANCH  23  28
ENDBRANCH  22  23
ENDBRANCH   1  22
TORSDOF 8
