REMARK  Name = ZINC12453468
REMARK  8 active torsions:
REMARK  status: ('A' for Active; 'I' for Inactive)
REMARK    1  A    between atoms: C_1  and  C_2
REMARK    2  A    between atoms: C_5  and  C_8
REMARK    3  A    between atoms: C_8  and  N_54
REMARK    4  A    between atoms: C_14  and  C_16
REMARK    5  A    between atoms: C_16  and  C_17
REMARK    6  A    between atoms: N_19  and  C_20
REMARK    7  A    between atoms: C_20  and  C_21
REMARK    8  A    between atoms: C_21  and  C_22
REMARK                            x       y       z     vdW  Elec       q    Type
REMARK                         _______ _______ _______ _____ _____    ______ ____
ROOT
ATOM      1  C   UNL     1      -4.723   3.464  -1.249  0.00  0.00    -0.058 C 
ATOM      2  C   UNL     1      -5.988   2.618  -1.403  0.00  0.00    +0.085 C 
ATOM      3  N   UNL     1      -5.936   1.471  -0.501  0.00  0.00    -0.318 N 
ATOM      4  C   UNL     1      -4.801   1.034   0.054  0.00  0.00    +0.200 C 
ATOM      5  O   UNL     1      -4.843   0.055   0.768  0.00  0.00    -0.278 OA
ATOM      6  C   UNL     1      -3.476   1.705  -0.169  0.00  0.00    +0.028 C 
ATOM      7  H   UNL     1      -6.762   1.006  -0.295  0.00  0.00    +0.149 HD
ATOM      8  N   UNL     1      -3.556   2.567  -1.363  0.00  0.00    +0.391 N 
ATOM      9  H   UNL     1      -3.667   1.978  -2.197  0.00  0.00    -0.080 HD
ENDROOT
BRANCH   8  10
ATOM     10  C   UNL     1      -2.315   3.363  -1.498  0.00  0.00    -0.042 C 
BRANCH  10  15
ATOM     11  C   UNL     1      -2.885   7.023  -5.934  0.00  0.00    +0.044 C 
ATOM     12  C   UNL     1      -2.736   6.069  -4.777  0.00  0.00    -0.050 A 
ATOM     13  C   UNL     1      -3.103   6.463  -3.504  0.00  0.00    +0.003 A 
ATOM     14  C   UNL     1      -2.967   5.588  -2.443  0.00  0.00    +0.002 A 
ATOM     15  C   UNL     1      -2.463   4.318  -2.655  0.00  0.00    -0.064 A 
ATOM     16  C   UNL     1      -2.092   3.925  -3.927  0.00  0.00    +0.002 A 
ATOM     17  C   UNL     1      -2.232   4.799  -4.989  0.00  0.00    +0.003 A 
ENDBRANCH  10  15
ENDBRANCH   8  10
BRANCH   6  18
ATOM     18  C   UNL     1      -2.400   0.642  -0.395  0.00  0.00    +0.089 C 
BRANCH  18  19
ATOM     19  C   UNL     1      -2.751  -0.179  -1.609  0.00  0.00    +0.212 C 
ATOM     20  O   UNL     1      -3.710   0.123  -2.288  0.00  0.00    -0.276 OA
ATOM     21  N   UNL     1      -2.001  -1.249  -1.940  0.00  0.00    -0.315 N 
ATOM     22  H   UNL     1      -1.234  -1.490  -1.397  0.00  0.00    +0.149 HD
BRANCH  21  23
ATOM     23  C   UNL     1      -2.346  -2.050  -3.117  0.00  0.00    +0.109 C 
BRANCH  23  24
ATOM     24  C   UNL     1      -1.347  -3.199  -3.263  0.00  0.00    +0.054 C 
BRANCH  24  25
ATOM     25  C   UNL     1      -1.702  -4.023  -4.473  0.00  0.00    -0.046 A 
ATOM     26  C   UNL     1      -2.561  -5.100  -4.348  0.00  0.00    +0.005 A 
ATOM     27  C   UNL     1      -2.891  -5.853  -5.459  0.00  0.00    +0.020 A 
ATOM     28  C   UNL     1      -2.354  -5.536  -6.694  0.00  0.00    +0.041 A 
ATOM     29  C   UNL     1      -1.491  -4.462  -6.817  0.00  0.00    +0.020 A 
ATOM     30  C   UNL     1      -1.165  -3.706  -5.707  0.00  0.00    +0.005 A 
ATOM     31 CL   UNL     1      -2.763  -6.486  -8.088  0.00  0.00    -0.084 Cl
ENDBRANCH  24  25
ENDBRANCH  23  24
ENDBRANCH  21  23
ENDBRANCH  18  19
ENDBRANCH   6  18
TORSDOF 7
