REMARK  Name = ZINC39449518
REMARK  5 active torsions:
REMARK  status: ('A' for Active; 'I' for Inactive)
REMARK    1  A    between atoms: C_4  and  O_7
REMARK    2  A    between atoms: O_7  and  S_8
REMARK    3  A    between atoms: S_8  and  N_11
REMARK    4  A    between atoms: C_24  and  C_29
REMARK    5  A    between atoms: C_34  and  O_35
REMARK                            x       y       z     vdW  Elec       q    Type
REMARK                         _______ _______ _______ _____ _____    ______ ____
ROOT
ATOM      1  N   UNL     1       3.332  -1.196   1.927  0.00  0.00    -0.141 N 
ATOM      2  C   UNL     1       2.222  -1.234   2.761  0.00  0.00    +0.137 A 
ATOM      3  C   UNL     1       1.631  -2.437   3.102  0.00  0.00    +0.083 A 
ATOM      4  C   UNL     1       2.175  -3.693   2.569  0.00  0.00    +0.099 A 
ATOM      5  C   UNL     1       3.302  -3.626   1.722  0.00  0.00    +0.071 A 
ATOM      6  C   UNL     1       3.876  -2.310   1.405  0.00  0.00    +0.283 A 
ATOM      7  O   UNL     1       4.846  -2.230   0.674  0.00  0.00    -0.265 OA
ATOM      8  C   UNL     1       3.837  -4.806   1.204  0.00  0.00    +0.055 A 
ATOM      9  C   UNL     1       3.229  -6.002   1.550  0.00  0.00    +0.142 A 
ATOM     10  C   UNL     1       2.120  -5.991   2.390  0.00  0.00    +0.149 A 
ATOM     11  N   UNL     1       1.632  -4.867   2.868  0.00  0.00    -0.250 NA
ATOM     12  F   UNL     1       3.709  -7.172   1.075  0.00  0.00    -0.204 F 
ATOM     13  N   UNL     1       0.537  -2.452   3.946  0.00  0.00    -0.333 N 
ATOM     14  C   UNL     1       0.379  -1.346   4.903  0.00  0.00    +0.112 C 
ATOM     15  C   UNL     1       0.459  -0.026   4.128  0.00  0.00    +0.108 C 
ATOM     16  C   UNL     1       1.696  -0.025   3.270  0.00  0.00    +0.185 C 
ATOM     17  O   UNL     1       2.248   1.026   3.011  0.00  0.00    -0.290 OA
ATOM     18  H   UNL     1      -0.111  -3.173   3.907  0.00  0.00    +0.147 HD
ENDROOT
BRANCH  14  19
ATOM     19  C   UNL     1       1.482  -1.401   5.929  0.00  0.00    +0.014 A 
ATOM     20  C   UNL     1       2.610  -2.163   5.692  0.00  0.00    +0.009 A 
ATOM     21  C   UNL     1       3.621  -2.214   6.633  0.00  0.00    +0.001 A 
ATOM     22  C   UNL     1       3.507  -1.504   7.814  0.00  0.00    +0.004 A 
ATOM     23  C   UNL     1       2.381  -0.741   8.056  0.00  0.00    +0.046 A 
ATOM     24  C   UNL     1       1.367  -0.683   7.110  0.00  0.00    +0.122 A 
BRANCH  24  25
ATOM     25  O   UNL     1       0.261   0.071   7.344  0.00  0.00    -0.506 OA
ATOM     26  H   UNL     1      -0.451  -0.403   7.795  0.00  0.00    +0.292 HD
ENDBRANCH  24  25
ENDBRANCH  14  19
BRANCH   1  27
ATOM     27  S   UNL     1       4.005   0.272   1.557  0.00  0.00    +0.224 S 
ATOM     28  O   UNL     1       2.955   1.082   1.046  0.00  0.00    -0.113 OA
ATOM     29  O   UNL     1       5.188   0.001   0.817  0.00  0.00    -0.113 OA
BRANCH  27  30
ATOM     30  O   UNL     1       4.447   0.907   2.867  0.00  0.00    -0.329 OA
BRANCH  30  34
ATOM     31  C   UNL     1       7.870  -0.750   4.466  0.00  0.00    +0.000 A 
ATOM     32  C   UNL     1       7.963   0.316   3.591  0.00  0.00    +0.004 A 
ATOM     33  C   UNL     1       6.819   0.873   3.054  0.00  0.00    +0.048 A 
ATOM     34  C   UNL     1       5.575   0.361   3.394  0.00  0.00    +0.158 A 
ATOM     35  C   UNL     1       5.484  -0.709   4.272  0.00  0.00    +0.048 A 
ATOM     36  C   UNL     1       6.632  -1.261   4.806  0.00  0.00    +0.004 A 
ENDBRANCH  30  34
ENDBRANCH  27  30
ENDBRANCH   1  27
TORSDOF 5
