REMARK  Name = ZINC35671579
REMARK  5 active torsions:
REMARK  status: ('A' for Active; 'I' for Inactive)
REMARK    1  A    between atoms: C_1  and  C_2
REMARK    2  A    between atoms: C_5  and  C_8
REMARK    3  A    between atoms: C_10  and  C_13
REMARK    4  A    between atoms: C_17  and  N_18
REMARK    5  A    between atoms: C_19  and  C_21
REMARK                            x       y       z     vdW  Elec       q    Type
REMARK                         _______ _______ _______ _____ _____    ______ ____
ROOT
ATOM      1  C   UNL     1       0.102  -7.465   1.610  0.00  0.00    +0.071 A 
ATOM      2  C   UNL     1       0.125  -8.822   1.093  0.00  0.00    -0.023 A 
ATOM      3  C   UNL     1       0.137  -9.812   2.014  0.00  0.00    -0.004 A 
ATOM      4  S   UNL     1       0.120  -8.978   3.577  0.00  0.00    -0.077 S 
ATOM      5  C   UNL     1       0.101  -7.295   2.987  0.00  0.00    +0.085 A 
ATOM      6  C   UNL     1       0.160 -11.287   1.759  0.00  0.00    +0.043 C 
ATOM      7  C   UNL     1      -0.207 -11.530   0.288  0.00  0.00    +0.005 C 
ATOM      8  C   UNL     1       0.619 -10.584  -0.588  0.00  0.00    +0.005 C 
ATOM      9  C   UNL     1       0.135  -9.145  -0.398  0.00  0.00    +0.037 C 
ENDROOT
BRANCH   1  12
ATOM     10  C   UNL     1       0.060  -4.256  -0.021  0.00  0.00    +0.202 A 
ATOM     11  N   UNL     1       0.070  -5.042   1.066  0.00  0.00    -0.187 NA
ATOM     12  C   UNL     1       0.087  -6.308   0.703  0.00  0.00    +0.261 A 
ATOM     13  O   UNL     1       0.087  -6.359  -0.642  0.00  0.00    -0.332 OA
ATOM     14  N   UNL     1       0.064  -5.013  -1.092  0.00  0.00    -0.056 NA
BRANCH  10  19
ATOM     15  C   UNL     1      -0.018   1.503   0.010  0.00  0.00    +0.044 C 
ATOM     16  C   UNL     1       0.002  -0.004   0.002  0.00  0.00    -0.050 A 
ATOM     17  C   UNL     1       0.006  -0.687  -1.201  0.00  0.00    +0.004 A 
ATOM     18  C   UNL     1       0.024  -2.067  -1.214  0.00  0.00    +0.012 A 
ATOM     19  C   UNL     1       0.040  -2.772  -0.013  0.00  0.00    +0.022 A 
ATOM     20  C   UNL     1       0.037  -2.080   1.196  0.00  0.00    +0.012 A 
ATOM     21  C   UNL     1       0.023  -0.700   1.198  0.00  0.00    +0.004 A 
ENDBRANCH  10  19
ENDBRANCH   1  12
BRANCH   5  22
ATOM     22  N   UNL     1       0.087  -6.116   3.719  0.00  0.00    -0.275 N 
ATOM     23  C   UNL     1       0.088  -6.158   5.066  0.00  0.00    +0.250 C 
ATOM     24  O   UNL     1       0.103  -7.230   5.640  0.00  0.00    -0.270 OA
ATOM     25  H   UNL     1       0.076  -5.261   3.261  0.00  0.00    +0.156 HD
BRANCH  23  26
ATOM     26  C   UNL     1       0.073  -4.903   5.845  0.00  0.00    +0.051 A 
ATOM     27  C   UNL     1       0.051  -3.671   5.189  0.00  0.00    +0.014 A 
ATOM     28  C   UNL     1       0.037  -2.503   5.922  0.00  0.00    +0.001 A 
ATOM     29  C   UNL     1       0.044  -2.549   7.305  0.00  0.00    +0.001 A 
ATOM     30  C   UNL     1       0.066  -3.766   7.962  0.00  0.00    +0.016 A 
ATOM     31  C   UNL     1       0.075  -4.944   7.241  0.00  0.00    +0.030 A 
ATOM     32 BR   UNL     1       0.097  -6.606   8.141  0.00  0.00    -0.050 Br
ENDBRANCH  23  26
ENDBRANCH   5  22
TORSDOF 4
