REMARK  Name = ZINC35031797
REMARK  15 active torsions:
REMARK  status: ('A' for Active; 'I' for Inactive)
REMARK    1  A    between atoms: C_1  and  C_2
REMARK    2  A    between atoms: N_5  and  S_23
REMARK    3  A    between atoms: N_8  and  S_9
REMARK    4  A    between atoms: S_9  and  C_12
REMARK    5  A    between atoms: C_14  and  C_20
REMARK    6  A    between atoms: C_17  and  O_18
REMARK    7  A    between atoms: O_18  and  C_19
REMARK    8  A    between atoms: C_20  and  C_21
REMARK    9  A    between atoms: C_20  and  C_22
REMARK   10  A    between atoms: S_23  and  C_26
REMARK   11  A    between atoms: C_28  and  C_34
REMARK   12  A    between atoms: C_31  and  O_32
REMARK   13  A    between atoms: O_32  and  C_33
REMARK   14  A    between atoms: C_34  and  C_35
REMARK   15  A    between atoms: C_34  and  C_36
REMARK                            x       y       z     vdW  Elec       q    Type
REMARK                         _______ _______ _______ _____ _____    ______ ____
ROOT
ATOM      1  C   UNL     1      -0.019   1.526   0.010  0.00  0.00    +0.027 C 
ATOM      2  C   UNL     1       0.002  -0.004   0.002  0.00  0.00    +0.092 C 
ATOM      3  C   UNL     1      -1.435  -0.538   0.021  0.00  0.00    +0.129 C 
ATOM      4  N   UNL     1      -2.019  -0.269   1.343  0.00  0.00    -0.174 NA
ATOM      5  C   UNL     1      -1.319  -0.760   2.539  0.00  0.00    +0.126 C 
ATOM      6  C   UNL     1       0.118  -0.225   2.520  0.00  0.00    +0.127 C 
ATOM      7  N   UNL     1       0.705  -0.494   1.196  0.00  0.00    -0.171 NA
ENDROOT
BRANCH   7   8
ATOM      8  S   UNL     1       2.124  -1.335   1.052  0.00  0.00    +0.065 S 
ATOM      9  O   UNL     1       2.251  -2.123   2.228  0.00  0.00    -0.153 OA
ATOM     10  O   UNL     1       2.129  -1.905  -0.250  0.00  0.00    -0.153 OA
BRANCH   8  11
ATOM     11  C   UNL     1       3.434  -0.158   1.091  0.00  0.00    +0.147 A 
ATOM     12  C   UNL     1       4.342  -0.167   2.132  0.00  0.00    +0.036 A 
ATOM     13  C   UNL     1       5.370   0.757   2.163  0.00  0.00    -0.043 A 
ATOM     14  C   UNL     1       5.492   1.693   1.153  0.00  0.00    +0.007 A 
ATOM     15  C   UNL     1       4.588   1.706   0.109  0.00  0.00    +0.048 A 
ATOM     16  C   UNL     1       3.558   0.776   0.072  0.00  0.00    +0.146 A 
BRANCH  13  17
ATOM     17  C   UNL     1       6.358   0.745   3.301  0.00  0.00    +0.013 C 
ATOM     18  C   UNL     1       7.766   0.513   2.751  0.00  0.00    +0.012 C 
ATOM     19  C   UNL     1       6.311   2.089   4.032  0.00  0.00    +0.012 C 
ENDBRANCH  13  17
BRANCH  16  20
ATOM     20  O   UNL     1       2.670   0.784  -0.956  0.00  0.00    -0.493 OA
ATOM     21  C   UNL     1       2.859   1.774  -1.969  0.00  0.00    +0.277 C 
ENDBRANCH  16  20
ENDBRANCH   8  11
ENDBRANCH   7   8
BRANCH   4  22
ATOM     22  S   UNL     1      -3.438   0.572   1.483  0.00  0.00    +0.064 S 
ATOM     23  O   UNL     1      -3.447   1.141   2.785  0.00  0.00    -0.153 OA
ATOM     24  O   UNL     1      -3.561   1.359   0.306  0.00  0.00    -0.153 OA
BRANCH  22  25
ATOM     25  C   UNL     1      -4.748  -0.606   1.440  0.00  0.00    +0.147 A 
ATOM     26  C   UNL     1      -5.553  -0.786   2.548  0.00  0.00    +0.036 A 
ATOM     27  C   UNL     1      -6.581  -1.710   2.515  0.00  0.00    -0.043 A 
ATOM     28  C   UNL     1      -6.806  -2.457   1.373  0.00  0.00    +0.007 A 
ATOM     29  C   UNL     1      -6.004  -2.280   0.262  0.00  0.00    +0.048 A 
ATOM     30  C   UNL     1      -4.975  -1.350   0.291  0.00  0.00    +0.146 A 
BRANCH  27  31
ATOM     31  C   UNL     1      -7.457  -1.905   3.725  0.00  0.00    +0.013 C 
ATOM     32  C   UNL     1      -8.909  -1.593   3.359  0.00  0.00    +0.012 C 
ATOM     33  C   UNL     1      -7.351  -3.355   4.203  0.00  0.00    +0.012 C 
ENDBRANCH  27  31
BRANCH  30  34
ATOM     34  O   UNL     1      -4.189  -1.170  -0.803  0.00  0.00    -0.493 OA
ATOM     35  C   UNL     1      -4.480  -1.970  -1.950  0.00  0.00    +0.277 C 
ENDBRANCH  30  34
ENDBRANCH  22  25
ENDBRANCH   4  22
TORSDOF 8
