REMARK  Name = ZINC64416950
REMARK  6 active torsions:
REMARK  status: ('A' for Active; 'I' for Inactive)
REMARK    1  A    between atoms: C_1  and  C_2
REMARK    2  A    between atoms: C_9  and  C_19
REMARK    3  A    between atoms: C_12  and  C_13
REMARK    4  A    between atoms: N_21  and  C_22
REMARK    5  A    between atoms: C_22  and  C_23
REMARK    6  A    between atoms: C_23  and  C_24
REMARK                            x       y       z     vdW  Elec       q    Type
REMARK                         _______ _______ _______ _____ _____    ______ ____
ROOT
ATOM      1  C   UNL     1      -0.643   1.423   0.113  0.00  0.00    +0.051 C 
ATOM      2  C   UNL     1      -0.298  -0.042   0.051  0.00  0.00    +0.040 A 
ATOM      3  C   UNL     1      -0.406  -0.749  -1.169  0.00  0.00    +0.196 A 
ATOM      4  O   UNL     1      -0.776  -0.197  -2.192  0.00  0.00    -0.287 OA
ATOM      5  C   UNL     1      -0.050  -2.183  -1.157  0.00  0.00    +0.065 A 
ATOM      6  C   UNL     1      -0.125  -2.958  -2.313  0.00  0.00    +0.015 A 
ATOM      7  C   UNL     1       0.214  -4.295  -2.268  0.00  0.00    +0.002 A 
ATOM      8  C   UNL     1       0.629  -4.874  -1.082  0.00  0.00    +0.017 A 
ATOM      9  C   UNL     1       0.711  -4.115   0.085  0.00  0.00    +0.080 A 
ATOM     10  C   UNL     1       0.369  -2.755   0.053  0.00  0.00    +0.151 A 
ATOM     11  O   UNL     1       0.440  -1.999   1.165  0.00  0.00    -0.454 OA
ATOM     12  C   UNL     1       0.125  -0.694   1.168  0.00  0.00    +0.142 A 
ENDROOT
BRANCH  12  13
ATOM     13  C   UNL     1       0.237   0.061   2.432  0.00  0.00    +0.018 A 
ATOM     14  C   UNL     1      -0.334  -0.443   3.603  0.00  0.00    +0.011 A 
ATOM     15  C   UNL     1      -0.225   0.268   4.780  0.00  0.00    +0.001 A 
ATOM     16  C   UNL     1       0.447   1.478   4.802  0.00  0.00    +0.000 A 
ATOM     17  C   UNL     1       1.014   1.983   3.645  0.00  0.00    +0.001 A 
ATOM     18  C   UNL     1       0.919   1.280   2.463  0.00  0.00    +0.011 A 
ENDBRANCH  12  13
BRANCH   9  19
ATOM     19  C   UNL     1       1.155  -4.740   1.346  0.00  0.00    +0.248 C 
ATOM     20  O   UNL     1       1.225  -4.075   2.362  0.00  0.00    -0.270 OA
ATOM     21  N   UNL     1       1.482  -6.047   1.372  0.00  0.00    -0.311 N 
ATOM     22  H   UNL     1       1.426  -6.577   0.562  0.00  0.00    +0.149 HD
BRANCH  21  23
ATOM     23  C   UNL     1       1.923  -6.667   2.624  0.00  0.00    +0.109 C 
BRANCH  23  24
ATOM     24  C   UNL     1       2.230  -8.146   2.380  0.00  0.00    +0.052 C 
BRANCH  24  25
ATOM     25  C   UNL     1       2.683  -8.784   3.668  0.00  0.00    -0.040 C 
ATOM     26  C   UNL     1       1.918  -9.466   4.551  0.00  0.00    -0.001 A 
ATOM     27  C   UNL     1       0.490  -9.805   4.576  0.00  0.00    +0.010 A 
ATOM     28  C   UNL     1       0.002 -10.515   5.618  0.00  0.00    +0.001 A 
ATOM     29  C   UNL     1       0.824 -10.935   6.673  0.00  0.00    +0.002 A 
ATOM     30  C   UNL     1       2.145 -10.662   6.721  0.00  0.00    +0.026 A 
ATOM     31  C   UNL     1       2.764  -9.922   5.677  0.00  0.00    +0.043 A 
ATOM     32  N   UNL     1       4.005  -9.536   5.497  0.00  0.00    -0.380 N 
ATOM     33  C   UNL     1       4.086  -8.797   4.233  0.00  0.00    +0.144 C 
ATOM     34  H   UNL     1       4.745  -9.714   6.098  0.00  0.00    +0.160 HD
ENDBRANCH  24  25
ENDBRANCH  23  24
ENDBRANCH  21  23
ENDBRANCH   9  19
TORSDOF 5
