REMARK  Name = ZINC12199663
REMARK  9 active torsions:
REMARK  status: ('A' for Active; 'I' for Inactive)
REMARK    1  A    between atoms: C_1  and  C_2
REMARK    2  A    between atoms: C_2  and  C_3
REMARK    3  A    between atoms: C_3  and  C_18
REMARK    4  A    between atoms: N_6  and  C_10
REMARK    5  A    between atoms: C_10  and  C_11
REMARK    6  A    between atoms: C_11  and  C_12
REMARK    7  A    between atoms: C_13  and  C_17
REMARK    8  A    between atoms: C_23  and  C_24
REMARK    9  A    between atoms: C_23  and  N_65
REMARK                            x       y       z     vdW  Elec       q    Type
REMARK                         _______ _______ _______ _____ _____    ______ ____
ROOT
ATOM      1  C   UNL     1      -1.654  -2.535   7.695  0.00  0.00    +0.115 C 
ATOM      2  C   UNL     1      -1.173  -2.597   9.131  0.00  0.00    +0.247 C 
ATOM      3  O   UNL     1      -0.029  -2.710   9.515  0.00  0.00    -0.273 OA
ATOM      4  N   UNL     1      -2.281  -2.498   9.891  0.00  0.00    -0.224 N 
ATOM      5  C   UNL     1      -3.384  -2.384   9.143  0.00  0.00    +0.309 C 
ATOM      6  O   UNL     1      -4.505  -2.281   9.603  0.00  0.00    -0.252 OA
ATOM      7  N   UNL     1      -3.115  -2.396   7.825  0.00  0.00    -0.285 N 
ATOM      8  H   UNL     1      -3.757  -2.326   7.101  0.00  0.00    +0.151 HD
ENDROOT
BRANCH   1   9
ATOM      9  C   UNL     1      -1.059  -1.321   6.979  0.00  0.00    +0.018 C 
ATOM     10  C   UNL     1      -1.474  -0.042   7.710  0.00  0.00    -0.013 C 
ATOM     11  C   UNL     1      -0.926   1.172   6.956  0.00  0.00    -0.078 C 
ATOM     12  C   UNL     1      -1.028  -0.019   4.848  0.00  0.00    -0.078 C 
ATOM     13  C   UNL     1      -1.580  -1.268   5.540  0.00  0.00    -0.013 C 
ATOM     14  N   UNL     1      -1.483   1.178   5.587  0.00  0.00    +0.382 N 
ATOM     15  H   UNL     1      -2.508   1.164   5.645  0.00  0.00    -0.081 HD
BRANCH  14  16
ATOM     16  C   UNL     1      -1.060   2.401   4.875  0.00  0.00    -0.043 C 
BRANCH  16  17
ATOM     17  C   UNL     1      -1.402   2.266   3.414  0.00  0.00    -0.063 A 
ATOM     18  C   UNL     1      -2.640   2.673   2.951  0.00  0.00    +0.005 A 
ATOM     19  C   UNL     1      -2.960   2.548   1.615  0.00  0.00    +0.046 A 
ATOM     20  C   UNL     1      -2.038   2.010   0.720  0.00  0.00    +0.124 A 
ATOM     21  C   UNL     1      -0.795   1.611   1.196  0.00  0.00    -0.002 A 
ATOM     22  C   UNL     1      -0.480   1.733   2.531  0.00  0.00    +0.009 A 
ATOM     23  C   UNL     1      -0.013   1.086   0.008  0.00  0.00    +0.080 C 
ATOM     24  C   UNL     1      -0.834   1.634  -1.183  0.00  0.00    +0.234 C 
ATOM     25  O   UNL     1      -2.147   1.791  -0.619  0.00  0.00    -0.491 OA
ENDBRANCH  16  17
ENDBRANCH  14  16
ENDBRANCH   1   9
BRANCH   1  27
ATOM     26  C   UNL     1      -2.005  -5.008   7.615  0.00  0.00    +0.006 C 
ATOM     27  C   UNL     1      -1.297  -3.825   6.952  0.00  0.00    +0.032 C 
ENDBRANCH   1  27
BRANCH   4  28
ATOM     28  C   UNL     1      -2.278  -2.512  11.356  0.00  0.00    +0.123 C 
BRANCH  28  29
ATOM     29  C   UNL     1      -2.139  -1.081  11.880  0.00  0.00    +0.064 C 
BRANCH  29  30
ATOM     30  C   UNL     1      -2.136  -1.096  13.387  0.00  0.00    +0.014 A 
ATOM     31  C   UNL     1      -1.094  -1.205  14.251  0.00  0.00    +0.049 A 
ATOM     32  N   UNL     1      -1.349  -1.193  15.543  0.00  0.00    -0.252 NA
ATOM     33  C   UNL     1      -2.575  -1.080  15.998  0.00  0.00    +0.156 A 
ATOM     34  S   UNL     1      -3.501  -0.969  14.533  0.00  0.00    -0.080 S 
ATOM     35  C   UNL     1       0.319  -1.335  13.744  0.00  0.00    +0.066 C 
ENDBRANCH  29  30
ENDBRANCH  28  29
ENDBRANCH   4  28
TORSDOF 7
