REMARK  Name = ZINC63375058
REMARK  7 active torsions:
REMARK  status: ('A' for Active; 'I' for Inactive)
REMARK    1  A    between atoms: C_1  and  C_2
REMARK    2  A    between atoms: C_2  and  C_3
REMARK    3  A    between atoms: C_6  and  C_9
REMARK    4  A    between atoms: N_16  and  C_31
REMARK    5  A    between atoms: C_19  and  C_30
REMARK    6  A    between atoms: C_31  and  C_32
REMARK    7  A    between atoms: C_32  and  O_33
REMARK                            x       y       z     vdW  Elec       q    Type
REMARK                         _______ _______ _______ _____ _____    ______ ____
ROOT
ATOM      1  C   UNL     1       2.706  -1.921  -4.731  0.00  0.00    +0.065 C 
ATOM      2  C   UNL     1       3.446  -3.232  -4.455  0.00  0.00    +0.121 C 
ATOM      3  N   UNL     1       4.520  -3.500  -5.396  0.00  0.00    -0.283 N 
ATOM      4  C   UNL     1       5.027  -4.778  -5.417  0.00  0.00    +0.234 C 
ATOM      5  O   UNL     1       4.510  -5.676  -4.786  0.00  0.00    -0.274 OA
ATOM      6  C   UNL     1       6.259  -5.011  -6.264  0.00  0.00    +0.203 C 
ATOM      7  N   UNL     1       7.200  -3.897  -6.041  0.00  0.00    -0.289 N 
ATOM      8  C   UNL     1       6.671  -2.637  -6.076  0.00  0.00    +0.242 C 
ATOM      9  O   UNL     1       7.354  -1.643  -5.943  0.00  0.00    -0.273 OA
ATOM     10  C   UNL     1       5.182  -2.568  -6.291  0.00  0.00    +0.135 C 
ATOM     11  C   UNL     1       4.638  -1.175  -6.354  0.00  0.00    +0.139 C 
ATOM     12  C   UNL     1       3.759  -0.922  -5.139  0.00  0.00    -0.027 C 
ATOM     13  C   UNL     1       4.152   0.233  -4.624  0.00  0.00    -0.000 A 
ATOM     14  C   UNL     1       3.626   1.046  -3.515  0.00  0.00    +0.010 A 
ATOM     15  C   UNL     1       4.304   2.192  -3.237  0.00  0.00    +0.001 A 
ATOM     16  C   UNL     1       5.438   2.605  -3.942  0.00  0.00    +0.002 A 
ATOM     17  C   UNL     1       5.985   1.925  -4.981  0.00  0.00    +0.026 A 
ATOM     18  C   UNL     1       5.356   0.708  -5.374  0.00  0.00    +0.043 A 
ATOM     19  N   UNL     1       5.652  -0.121  -6.316  0.00  0.00    -0.375 N 
ATOM     20  C   UNL     1       4.958  -3.133  -7.695  0.00  0.00    +0.044 C 
ATOM     21  H   UNL     1       6.418  -0.048  -6.906  0.00  0.00    +0.160 HD
ENDROOT
BRANCH   1  25
ATOM     22  C   UNL     1       0.708  -0.593  -1.197  0.00  0.00    -0.048 A 
ATOM     23  C   UNL     1      -0.015  -0.831  -2.351  0.00  0.00    +0.004 A 
ATOM     24  C   UNL     1       0.632  -1.261  -3.494  0.00  0.00    +0.004 A 
ATOM     25  C   UNL     1       2.001  -1.452  -3.484  0.00  0.00    -0.039 A 
ATOM     26  C   UNL     1       2.724  -1.212  -2.330  0.00  0.00    +0.004 A 
ATOM     27  C   UNL     1       2.078  -0.778  -1.188  0.00  0.00    +0.004 A 
BRANCH  22  29
ATOM     28  C   UNL     1      -0.048   1.405   0.064  0.00  0.00    +0.009 C 
ATOM     29  C   UNL     1       0.003  -0.124   0.050  0.00  0.00    +0.032 C 
ENDBRANCH  22  29
ENDBRANCH   1  25
BRANCH   7  30
ATOM     30  C   UNL     1       8.625  -4.130  -5.794  0.00  0.00    +0.136 C 
BRANCH  30  31
ATOM     31  C   UNL     1       9.378  -4.143  -7.126  0.00  0.00    +0.174 C 
BRANCH  31  32
ATOM     32  O   UNL     1       9.304  -2.849  -7.728  0.00  0.00    -0.393 OA
ATOM     33  H   UNL     1       9.761  -2.783  -8.578  0.00  0.00    +0.209 HD
ENDBRANCH  31  32
ENDBRANCH  30  31
ENDBRANCH   7  30
TORSDOF 5
