REMARK  Name = ZINC11279402
REMARK  8 active torsions:
REMARK  status: ('A' for Active; 'I' for Inactive)
REMARK    1  A    between atoms: C_1  and  C_2
REMARK    2  A    between atoms: C_5  and  O_8
REMARK    3  A    between atoms: O_8  and  C_9
REMARK    4  A    between atoms: C_14  and  N_15
REMARK    5  A    between atoms: C_16  and  C_18
REMARK    6  A    between atoms: C_18  and  N_19
REMARK    7  A    between atoms: C_22  and  C_26
REMARK    8  A    between atoms: C_22  and  C_27
REMARK                            x       y       z     vdW  Elec       q    Type
REMARK                         _______ _______ _______ _____ _____    ______ ____
ROOT
ATOM      1  N   UNL     1      -0.221   4.048   0.118  0.00  0.00    -0.281 N 
ATOM      2  C   UNL     1      -0.417   5.382   0.112  0.00  0.00    +0.235 C 
ATOM      3  O   UNL     1       0.533   6.135   0.139  0.00  0.00    -0.274 OA
ATOM      4  H   UNL     1      -0.980   3.446   0.154  0.00  0.00    +0.155 HD
ENDROOT
BRANCH   1  10
ATOM      5  C   UNL     1       1.336   2.339  -0.601  0.00  0.00    +0.150 A 
ATOM      6  C   UNL     1       2.627   1.836  -0.647  0.00  0.00    +0.048 A 
ATOM      7  C   UNL     1       3.656   2.515  -0.023  0.00  0.00    +0.004 A 
ATOM      8  C   UNL     1       3.403   3.696   0.650  0.00  0.00    +0.002 A 
ATOM      9  C   UNL     1       2.119   4.205   0.702  0.00  0.00    +0.027 A 
ATOM     10  C   UNL     1       1.081   3.532   0.072  0.00  0.00    +0.076 A 
BRANCH   5  11
ATOM     11  O   UNL     1       0.323   1.673  -1.215  0.00  0.00    -0.454 OA
BRANCH  11  16
ATOM     12  C   UNL     1       1.452  -3.364  -3.467  0.00  0.00    +0.044 C 
ATOM     13  C   UNL     1       1.149  -2.016  -2.865  0.00  0.00    -0.050 A 
ATOM     14  C   UNL     1       1.196  -1.847  -1.493  0.00  0.00    +0.007 A 
ATOM     15  C   UNL     1       0.919  -0.613  -0.938  0.00  0.00    +0.046 A 
ATOM     16  C   UNL     1       0.595   0.458  -1.759  0.00  0.00    +0.129 A 
ATOM     17  C   UNL     1       0.543   0.284  -3.134  0.00  0.00    +0.046 A 
ATOM     18  C   UNL     1       0.826  -0.951  -3.684  0.00  0.00    +0.007 A 
ENDBRANCH  11  16
ENDBRANCH   5  11
ENDBRANCH   1  10
BRANCH   2  19
ATOM     19  C   UNL     1      -1.818   5.937   0.071  0.00  0.00    +0.214 C 
BRANCH  19  20
ATOM     20  N   UNL     1      -1.763   7.401   0.072  0.00  0.00    -0.215 N 
ATOM     21  C   UNL     1      -1.703   8.157  -1.042  0.00  0.00    +0.251 C 
ATOM     22  O   UNL     1      -1.684   7.769  -2.190  0.00  0.00    -0.272 OA
ATOM     23  C   UNL     1      -1.664   9.594  -0.560  0.00  0.00    +0.135 C 
ATOM     24  N   UNL     1      -1.712   9.468   0.907  0.00  0.00    -0.281 N 
ATOM     25  C   UNL     1      -1.773   8.152   1.179  0.00  0.00    +0.310 C 
ATOM     26  O   UNL     1      -1.828   7.697   2.305  0.00  0.00    -0.252 OA
ATOM     27  C   UNL     1      -0.366  10.274  -1.000  0.00  0.00    +0.047 C 
ATOM     28  H   UNL     1      -1.703  10.194   1.551  0.00  0.00    +0.152 HD
BRANCH  23  29
ATOM     29  C   UNL     1      -2.860  10.356  -1.069  0.00  0.00    -0.014 A 
ATOM     30  C   UNL     1      -3.378  11.403  -0.330  0.00  0.00    +0.008 A 
ATOM     31  C   UNL     1      -4.475  12.103  -0.796  0.00  0.00    +0.022 A 
ATOM     32  C   UNL     1      -5.055  11.756  -2.003  0.00  0.00    +0.059 A 
ATOM     33  C   UNL     1      -4.536  10.708  -2.744  0.00  0.00    +0.060 A 
ATOM     34  C   UNL     1      -3.435  10.012  -2.278  0.00  0.00    +0.027 A 
ATOM     35 CL   UNL     1      -5.263  10.272  -4.259  0.00  0.00    -0.082 Cl
ATOM     36 CL   UNL     1      -6.433  12.634  -2.588  0.00  0.00    -0.082 Cl
ENDBRANCH  23  29
ENDBRANCH  19  20
ENDBRANCH   2  19
TORSDOF 6
