REMARK  Name = ZINC08901346
REMARK  9 active torsions:
REMARK  status: ('A' for Active; 'I' for Inactive)
REMARK    1  A    between atoms: C_1  and  C_2
REMARK    2  A    between atoms: C_2  and  C_3
REMARK    3  A    between atoms: C_2  and  C_4
REMARK    4  A    between atoms: C_2  and  C_5
REMARK    5  A    between atoms: C_12  and  N_16
REMARK    6  A    between atoms: C_13  and  C_14
REMARK    7  A    between atoms: C_17  and  C_19
REMARK    8  A    between atoms: C_28  and  O_29
REMARK    9  A    between atoms: O_29  and  C_30
REMARK                            x       y       z     vdW  Elec       q    Type
REMARK                         _______ _______ _______ _____ _____    ______ ____
ROOT
ATOM      1  N   UNL     1       2.428   6.079   0.011  0.00  0.00    -0.275 N 
ATOM      2  C   UNL     1       2.425   4.731   0.004  0.00  0.00    +0.252 C 
ATOM      3  O   UNL     1       3.477   4.121  -0.010  0.00  0.00    -0.270 OA
ATOM      4  H   UNL     1       1.589   6.565   0.022  0.00  0.00    +0.156 HD
ENDROOT
BRANCH   2   5
ATOM      5  C   UNL     1       1.146   3.996   0.013  0.00  0.00    +0.080 A 
ATOM      6  C   UNL     1      -0.050   4.696   0.028  0.00  0.00    +0.025 A 
ATOM      7  C   UNL     1      -1.262   3.992   0.036  0.00  0.00    -0.016 A 
ATOM      8  C   UNL     1      -2.495   4.670   0.051  0.00  0.00    +0.008 A 
ATOM      9  C   UNL     1      -3.655   3.959   0.041  0.00  0.00    +0.001 A 
ATOM     10  C   UNL     1      -3.643   2.565   0.033  0.00  0.00    +0.001 A 
ATOM     11  C   UNL     1      -2.470   1.875   0.024  0.00  0.00    +0.010 A 
ATOM     12  C   UNL     1      -1.250   2.573   0.022  0.00  0.00    -0.000 A 
ATOM     13  C   UNL     1      -0.024   1.887   0.012  0.00  0.00    +0.068 A 
ATOM     14  C   UNL     1       1.149   2.585   0.005  0.00  0.00    +0.147 A 
ATOM     15 BR   UNL     1       0.002  -0.004   0.002  0.00  0.00    -0.046 Br
BRANCH  14  16
ATOM     16  O   UNL     1       2.330   1.916  -0.010  0.00  0.00    -0.493 OA
ATOM     17  C   UNL     1       2.881   1.603  -1.291  0.00  0.00    +0.277 C 
ENDBRANCH  14  16
ENDBRANCH   2   5
BRANCH   1  24
ATOM     18  C   UNL     1       7.938   9.292  -0.410  0.00  0.00    -0.000 C 
ATOM     19  C   UNL     1       7.058  10.211   0.441  0.00  0.00    +0.009 C 
ATOM     20  C   UNL     1       5.598  10.089   0.001  0.00  0.00    +0.037 C 
ATOM     21  C   UNL     1       5.209   8.616  -0.003  0.00  0.00    -0.018 A 
ATOM     22  C   UNL     1       6.151   7.647  -0.019  0.00  0.00    -0.004 A 
ATOM     23  S   UNL     1       5.240   6.129  -0.017  0.00  0.00    -0.077 S 
ATOM     24  C   UNL     1       3.630   6.770   0.003  0.00  0.00    +0.090 A 
ATOM     25  C   UNL     1       3.836   8.142   0.003  0.00  0.00    +0.084 A 
ATOM     26  C   UNL     1       7.637   7.833  -0.035  0.00  0.00    +0.047 C 
BRANCH  18  28
ATOM     27  C   UNL     1       9.717   9.365   1.342  0.00  0.00    +0.011 C 
ATOM     28  C   UNL     1       9.412   9.598  -0.139  0.00  0.00    -0.035 C 
ATOM     29  C   UNL     1      10.289   8.678  -0.991  0.00  0.00    +0.011 C 
ATOM     30  C   UNL     1       9.704  11.056  -0.497  0.00  0.00    +0.011 C 
ENDBRANCH  18  28
BRANCH  25  31
ATOM     31  C   UNL     1       2.735   9.057   0.012  0.00  0.00    +0.102 C 
ATOM     32  N   UNL     1       1.861   9.784   0.019  0.00  0.00    -0.191 NA
ENDBRANCH  25  31
ENDBRANCH   1  24
TORSDOF 5
