REMARK  Name = ZINC00863395
REMARK  11 active torsions:
REMARK  status: ('A' for Active; 'I' for Inactive)
REMARK    1  A    between atoms: C_1  and  C_2
REMARK    2  A    between atoms: C_2  and  O_3
REMARK    3  A    between atoms: O_3  and  C_4
REMARK    4  A    between atoms: C_4  and  C_6
REMARK    5  A    between atoms: C_7  and  C_37
REMARK    6  A    between atoms: C_11  and  C_13
REMARK    7  A    between atoms: C_24  and  C_27
REMARK    8  A    between atoms: C_30  and  O_35
REMARK    9  A    between atoms: C_31  and  O_33
REMARK   10  A    between atoms: O_33  and  C_34
REMARK   11  A    between atoms: O_35  and  C_36
REMARK                            x       y       z     vdW  Elec       q    Type
REMARK                         _______ _______ _______ _____ _____    ______ ____
ROOT
ATOM      1  C   UNL     1      -0.849   2.892   1.467  0.00  0.00    +0.065 C 
ATOM      2  C   UNL     1      -0.718   1.572   1.248  0.00  0.00    +0.016 C 
ATOM      3  N   UNL     1      -1.215   0.668   2.145  0.00  0.00    -0.321 N 
ATOM      4  C   UNL     1      -2.178   1.035   3.046  0.00  0.00    +0.016 C 
ATOM      5  C   UNL     1      -2.383   2.337   3.336  0.00  0.00    +0.024 C 
ATOM      6  C   UNL     1      -1.544   3.412   2.691  0.00  0.00    +0.092 C 
ATOM      7  C   UNL     1      -3.379   2.729   4.248  0.00  0.00    +0.162 C 
ATOM      8  O   UNL     1      -3.532   3.909   4.493  0.00  0.00    -0.292 OA
ATOM      9  C   UNL     1      -4.259   1.714   4.925  0.00  0.00    +0.088 C 
ATOM     10  C   UNL     1      -4.397   0.488   4.016  0.00  0.00    +0.032 C 
ATOM     11  C   UNL     1      -2.997  -0.046   3.706  0.00  0.00    +0.059 C 
ATOM     12  C   UNL     1      -0.013   1.086   0.008  0.00  0.00    +0.061 C 
ATOM     13  H   UNL     1      -0.842  -0.367   2.147  0.00  0.00    +0.152 HD
ENDROOT
BRANCH   6  14
ATOM     14  C   UNL     1      -0.508   3.889   3.676  0.00  0.00    -0.034 A 
ATOM     15  C   UNL     1       0.413   2.998   4.195  0.00  0.00    +0.006 A 
ATOM     16  C   UNL     1       1.367   3.436   5.094  0.00  0.00    +0.022 A 
ATOM     17  C   UNL     1       1.393   4.763   5.484  0.00  0.00    +0.059 A 
ATOM     18  C   UNL     1       0.467   5.653   4.969  0.00  0.00    +0.060 A 
ATOM     19  C   UNL     1      -0.484   5.215   4.065  0.00  0.00    +0.026 A 
ATOM     20 CL   UNL     1       0.498   7.319   5.457  0.00  0.00    -0.082 Cl
ATOM     21 CL   UNL     1       2.586   5.311   6.620  0.00  0.00    -0.082 Cl
ENDBRANCH   6  14
BRANCH  10  22
ATOM     22  C   UNL     1      -5.202  -0.577   4.716  0.00  0.00    -0.040 A 
ATOM     23  C   UNL     1      -4.765  -1.090   5.924  0.00  0.00    +0.008 A 
ATOM     24  C   UNL     1      -5.500  -2.067   6.569  0.00  0.00    +0.049 A 
ATOM     25  C   UNL     1      -6.676  -2.535   6.006  0.00  0.00    +0.161 A 
ATOM     26  C   UNL     1      -7.115  -2.019   4.791  0.00  0.00    +0.162 A 
ATOM     27  C   UNL     1      -6.377  -1.036   4.151  0.00  0.00    +0.053 A 
BRANCH  26  28
ATOM     28  O   UNL     1      -8.270  -2.475   4.234  0.00  0.00    -0.491 OA
ATOM     29  C   UNL     1      -8.659  -1.900   2.985  0.00  0.00    +0.277 C 
ENDBRANCH  26  28
BRANCH  25  30
ATOM     30  O   UNL     1      -7.400  -3.496   6.640  0.00  0.00    -0.491 OA
ATOM     31  C   UNL     1      -6.889  -3.978   7.884  0.00  0.00    +0.277 C 
ENDBRANCH  25  30
ENDBRANCH  10  22
BRANCH   1  32
ATOM     32  C   UNL     1      -0.327   3.807   0.524  0.00  0.00    +0.338 C 
ATOM     33  O   UNL     1       0.235   3.397  -0.474  0.00  0.00    -0.245 OA
BRANCH  32  34
ATOM     34  O   UNL     1      -0.452   5.135   0.732  0.00  0.00    -0.462 OA
BRANCH  34  36
ATOM     35  C   UNL     1      -0.137   7.457   0.143  0.00  0.00    +0.048 C 
ATOM     36  C   UNL     1       0.100   6.001  -0.262  0.00  0.00    +0.229 C 
ENDBRANCH  34  36
ENDBRANCH  32  34
ENDBRANCH   1  32
TORSDOF 7
