REMARK  Name = ZINC13601283
REMARK  5 active torsions:
REMARK  status: ('A' for Active; 'I' for Inactive)
REMARK    1  A    between atoms: C_4  and  S_10
REMARK    2  A    between atoms: C_5  and  N_7
REMARK    3  A    between atoms: S_10  and  C_11
REMARK    4  A    between atoms: C_16  and  C_32
REMARK    5  A    between atoms: C_24  and  C_25
REMARK                            x       y       z     vdW  Elec       q    Type
REMARK                         _______ _______ _______ _____ _____    ______ ____
ROOT
ATOM      1  C   UNL     1       0.652   1.347  -2.290  0.00  0.00    +0.070 C 
ATOM      2  C   UNL     1       1.925   1.297  -1.403  0.00  0.00    +0.022 C 
ATOM      3  C   UNL     1       1.442   1.639  -0.003  0.00  0.00    +0.024 C 
ATOM      4  C   UNL     1       2.138   1.003   1.179  0.00  0.00    +0.104 C 
ATOM      5  N   UNL     1       1.545   1.579   2.396  0.00  0.00    -0.336 N 
ATOM      6  C   UNL     1       0.178   1.793   2.375  0.00  0.00    +0.045 A 
ATOM      7  C   UNL     1      -0.631   1.579   1.270  0.00  0.00    -0.021 A 
ATOM      8  C   UNL     1      -1.981   1.847   1.339  0.00  0.00    +0.006 A 
ATOM      9  C   UNL     1      -2.557   2.292   2.518  0.00  0.00    +0.001 A 
ATOM     10  C   UNL     1      -1.775   2.468   3.638  0.00  0.00    +0.017 A 
ATOM     11  C   UNL     1      -0.424   2.249   3.568  0.00  0.00    +0.084 A 
ATOM     12  C   UNL     1      -0.013   1.086   0.008  0.00  0.00    +0.045 C 
ATOM     13  C   UNL     1      -0.541   1.608  -1.327  0.00  0.00    +0.101 C 
ATOM     14 CL   UNL     1      -0.906   3.371  -1.224  0.00  0.00    -0.120 Cl
ATOM     15  H   UNL     1       2.038   2.413   2.679  0.00  0.00    +0.147 HD
ENDROOT
BRANCH   4  16
ATOM     16  C   UNL     1       3.612   1.310   1.132  0.00  0.00    -0.027 A 
ATOM     17  C   UNL     1       4.076   2.538   1.564  0.00  0.00    +0.008 A 
ATOM     18  C   UNL     1       5.429   2.819   1.527  0.00  0.00    +0.038 A 
ATOM     19  C   UNL     1       6.319   1.873   1.046  0.00  0.00    +0.123 A 
ATOM     20  C   UNL     1       5.852   0.645   0.608  0.00  0.00    +0.038 A 
ATOM     21  C   UNL     1       4.500   0.364   0.652  0.00  0.00    +0.008 A 
ATOM     22  F   UNL     1       7.641   2.148   1.003  0.00  0.00    -0.205 F 
ENDBRANCH   4  16
BRANCH  11  23
ATOM     23  C   UNL     1       0.399   2.448   4.774  0.00  0.00    +0.388 C 
ATOM     24  O   UNL     1       1.592   2.219   4.740  0.00  0.00    -0.241 OA
ATOM     25  O   UNL     1      -0.172   2.883   5.915  0.00  0.00    -0.241 OA
ENDBRANCH  11  23
BRANCH   1  26
ATOM     26  S   UNL     1       0.786   2.693  -3.498  0.00  0.00    -0.118 S 
BRANCH  26  30
ATOM     27  C   UNL     1      -2.910   2.225  -6.074  0.00  0.00    +0.002 A 
ATOM     28  C   UNL     1      -2.682   1.349  -5.029  0.00  0.00    +0.001 A 
ATOM     29  C   UNL     1      -1.553   1.485  -4.245  0.00  0.00    +0.017 A 
ATOM     30  C   UNL     1      -0.651   2.511  -4.500  0.00  0.00    +0.038 A 
ATOM     31  C   UNL     1      -0.884   3.390  -5.551  0.00  0.00    +0.140 A 
ATOM     32  C   UNL     1      -2.012   3.244  -6.335  0.00  0.00    +0.034 A 
BRANCH  31  33
ATOM     33  N   UNL     1       0.077   4.481  -5.831  0.00  0.00    +0.058 N 
ATOM     34  O   UNL     1      -0.128   5.251  -6.752  0.00  0.00    -0.126 OA
ATOM     35  O   UNL     1       1.071   4.609  -5.139  0.00  0.00    -0.126 OA
ENDBRANCH  31  33
ENDBRANCH  26  30
ENDBRANCH   1  26
TORSDOF 5
