REMARK  Name = ZINC38733894
REMARK  10 active torsions:
REMARK  status: ('A' for Active; 'I' for Inactive)
REMARK    1  A    between atoms: C_1  and  C_2
REMARK    2  A    between atoms: C_5  and  C_35
REMARK    3  A    between atoms: C_6  and  C_8
REMARK    4  A    between atoms: C_8  and  N_9
REMARK    5  A    between atoms: C_11  and  C_18
REMARK    6  A    between atoms: C_18  and  N_19
REMARK    7  A    between atoms: C_23  and  C_25
REMARK    8  A    between atoms: C_25  and  O_27
REMARK    9  A    between atoms: O_27  and  C_28
REMARK   10  A    between atoms: C_28  and  C_29
REMARK                            x       y       z     vdW  Elec       q    Type
REMARK                         _______ _______ _______ _____ _____    ______ ____
ROOT
ATOM      1  N   UNL     1       1.749  -2.915   2.989  0.00  0.00    -0.342 N 
ATOM      2  C   UNL     1       2.340  -4.116   2.706  0.00  0.00    +0.089 A 
ATOM      3  C   UNL     1       3.617  -4.107   3.120  0.00  0.00    -0.039 A 
ATOM      4  C   UNL     1       3.864  -2.792   3.718  0.00  0.00    +0.001 A 
ATOM      5  C   UNL     1       2.655  -2.080   3.603  0.00  0.00    +0.050 A 
ATOM      6  C   UNL     1       2.584  -0.778   4.085  0.00  0.00    +0.026 A 
ATOM      7  C   UNL     1       3.693  -0.201   4.665  0.00  0.00    +0.002 A 
ATOM      8  C   UNL     1       4.883  -0.906   4.773  0.00  0.00    +0.001 A 
ATOM      9  C   UNL     1       4.973  -2.190   4.313  0.00  0.00    +0.010 A 
ENDROOT
BRANCH   1  10
ATOM     10  C   UNL     1       0.360  -2.567   2.679  0.00  0.00    +0.157 C 
BRANCH  10  16
ATOM     11  C   UNL     1       0.268   1.706   0.075  0.00  0.00    +0.044 C 
ATOM     12  C   UNL     1       0.261   0.200   0.112  0.00  0.00    -0.050 A 
ATOM     13  C   UNL     1       0.206  -0.520  -1.067  0.00  0.00    +0.003 A 
ATOM     14  C   UNL     1       0.199  -1.902  -1.034  0.00  0.00    +0.004 A 
ATOM     15  C   UNL     1       0.249  -2.564   0.178  0.00  0.00    -0.046 A 
ATOM     16  C   UNL     1       0.306  -1.845   1.357  0.00  0.00    -0.025 A 
ATOM     17  C   UNL     1       0.317  -0.463   1.324  0.00  0.00    +0.009 A 
ATOM     18  C   UNL     1       0.242  -4.071   0.215  0.00  0.00    +0.044 C 
ENDBRANCH  10  16
ENDBRANCH   1  10
BRANCH   3  19
ATOM     19  C   UNL     1       4.608  -5.235   2.995  0.00  0.00    -0.040 C 
BRANCH  19  20
ATOM     20  N   UNL     1       4.649  -5.993   4.253  0.00  0.00    +0.391 N 
ATOM     21  C   UNL     1       5.247  -5.159   5.317  0.00  0.00    -0.077 C 
ATOM     22  C   UNL     1       6.068  -6.148   6.181  0.00  0.00    -0.020 C 
ATOM     23  C   UNL     1       6.630  -7.113   5.104  0.00  0.00    -0.006 C 
ATOM     24  C   UNL     1       5.479  -7.199   4.080  0.00  0.00    +0.043 C 
ATOM     25  H   UNL     1       3.713  -6.260   4.520  0.00  0.00    -0.080 HD
BRANCH  24  26
ATOM     26  C   UNL     1       6.038  -7.239   2.681  0.00  0.00    +0.294 C 
ATOM     27  O   UNL     1       6.691  -6.311   2.265  0.00  0.00    -0.253 OA
BRANCH  26  28
ATOM     28  O   UNL     1       5.812  -8.305   1.898  0.00  0.00    -0.461 OA
BRANCH  28  29
ATOM     29  C   UNL     1       6.373  -8.275   0.584  0.00  0.00    +0.267 C 
BRANCH  29  30
ATOM     30  C   UNL     1       6.017  -9.547  -0.143  0.00  0.00    -0.010 A 
ATOM     31  C   UNL     1       6.849 -10.648  -0.058  0.00  0.00    +0.007 A 
ATOM     32  C   UNL     1       6.522 -11.814  -0.724  0.00  0.00    +0.000 A 
ATOM     33  C   UNL     1       5.364 -11.880  -1.476  0.00  0.00    +0.000 A 
ATOM     34  C   UNL     1       4.532 -10.779  -1.560  0.00  0.00    +0.000 A 
ATOM     35  C   UNL     1       4.856  -9.614  -0.890  0.00  0.00    +0.007 A 
ENDBRANCH  29  30
ENDBRANCH  28  29
ENDBRANCH  26  28
ENDBRANCH  24  26
ENDBRANCH  19  20
ENDBRANCH   3  19
TORSDOF 8
