REMARK  Name = ZINC58970113
REMARK  10 active torsions:
REMARK  status: ('A' for Active; 'I' for Inactive)
REMARK    1  A    between atoms: C_1  and  C_2
REMARK    2  A    between atoms: C_5  and  C_8
REMARK    3  A    between atoms: C_10  and  C_33
REMARK    4  A    between atoms: C_12  and  S_14
REMARK    5  A    between atoms: S_14  and  C_15
REMARK    6  A    between atoms: C_15  and  C_16
REMARK    7  A    between atoms: C_16  and  C_17
REMARK    8  A    between atoms: N_23  and  C_25
REMARK    9  A    between atoms: C_25  and  C_26
REMARK   10  A    between atoms: C_31  and  C_32
REMARK                            x       y       z     vdW  Elec       q    Type
REMARK                         _______ _______ _______ _____ _____    ______ ____
ROOT
ATOM      1  C   UNL     1       0.121  -8.850  -2.264  0.00  0.00    +0.086 C 
ENDROOT
BRANCH   1   2
ATOM      2  S   UNL     1       0.097  -7.096  -2.726  0.00  0.00    -0.086 S 
BRANCH   2   7
ATOM      3  C   UNL     1       0.060  -4.255  -0.021  0.00  0.00    +0.076 A 
ATOM      4  C   UNL     1       0.070  -4.971   1.179  0.00  0.00    +0.060 A 
ATOM      5  C   UNL     1       0.088  -6.354   1.122  0.00  0.00    +0.148 A 
ATOM      6  N   UNL     1       0.096  -6.953  -0.058  0.00  0.00    -0.218 NA
ATOM      7  C   UNL     1       0.086  -6.249  -1.181  0.00  0.00    +0.189 A 
ATOM      8  N   UNL     1       0.063  -4.925  -1.172  0.00  0.00    -0.222 NA
BRANCH   3  13
ATOM      9  C   UNL     1      -0.018   1.503   0.010  0.00  0.00    +0.044 C 
ATOM     10  C   UNL     1       0.002  -0.004   0.002  0.00  0.00    -0.050 A 
ATOM     11  C   UNL     1       0.006  -0.686  -1.201  0.00  0.00    +0.004 A 
ATOM     12  C   UNL     1       0.024  -2.066  -1.215  0.00  0.00    +0.010 A 
ATOM     13  C   UNL     1       0.040  -2.772  -0.013  0.00  0.00    +0.001 A 
ATOM     14  C   UNL     1       0.037  -2.079   1.196  0.00  0.00    +0.010 A 
ATOM     15  C   UNL     1       0.023  -0.699   1.198  0.00  0.00    +0.004 A 
ENDBRANCH   3  13
BRANCH   5  16
ATOM     16  C   UNL     1       0.100  -7.168   2.390  0.00  0.00    +0.434 C 
ATOM     17  F   UNL     1      -1.215  -7.437   2.783  0.00  0.00    -0.164 F 
ATOM     18  F   UNL     1       0.775  -8.372   2.164  0.00  0.00    -0.164 F 
ATOM     19  F   UNL     1       0.751  -6.450   3.399  0.00  0.00    -0.164 F 
ENDBRANCH   5  16
ENDBRANCH   2   7
ENDBRANCH   1   2
BRANCH   1  20
ATOM     20  C   UNL     1       0.132  -9.710  -3.530  0.00  0.00    +0.107 C 
BRANCH  20  21
ATOM     21  C   UNL     1       0.152 -11.168  -3.146  0.00  0.00    +0.219 C 
ATOM     22  O   UNL     1       0.157 -11.487  -1.976  0.00  0.00    -0.275 OA
ATOM     23  N   UNL     1       0.165 -12.116  -4.103  0.00  0.00    -0.269 N 
ATOM     24  C   UNL     1       0.183 -13.472  -3.747  0.00  0.00    +0.147 A 
ATOM     25  C   UNL     1       0.185 -13.980  -2.438  0.00  0.00    +0.065 A 
ATOM     26  C   UNL     1       0.205 -15.330  -2.517  0.00  0.00    +0.110 A 
ATOM     27  N   UNL     1       0.216 -15.668  -3.824  0.00  0.00    -0.265 N 
ATOM     28  N   UNL     1       0.197 -14.487  -4.577  0.00  0.00    -0.156 NA
ATOM     29  H   UNL     1       0.161 -11.861  -5.039  0.00  0.00    +0.156 HD
BRANCH  27  30
ATOM     30  C   UNL     1       0.239 -17.031  -4.360  0.00  0.00    +0.178 C 
BRANCH  30  31
ATOM     31  C   UNL     1      -0.918 -17.217  -5.308  0.00  0.00    -0.023 A 
ATOM     32  C   UNL     1      -2.103 -17.764  -4.852  0.00  0.00    +0.006 A 
ATOM     33  C   UNL     1      -3.164 -17.935  -5.721  0.00  0.00    +0.000 A 
ATOM     34  C   UNL     1      -3.040 -17.559  -7.046  0.00  0.00    +0.000 A 
ATOM     35  C   UNL     1      -1.855 -17.011  -7.501  0.00  0.00    +0.004 A 
ATOM     36  C   UNL     1      -0.796 -16.837  -6.630  0.00  0.00    -0.046 A 
ATOM     37  C   UNL     1       0.494 -16.235  -7.125  0.00  0.00    +0.044 C 
ENDBRANCH  30  31
ENDBRANCH  27  30
ENDBRANCH  20  21
ENDBRANCH   1  20
TORSDOF 8
