REMARK  Name = ZINC20576458
REMARK  6 active torsions:
REMARK  status: ('A' for Active; 'I' for Inactive)
REMARK    1  A    between atoms: C_1  and  C_2
REMARK    2  A    between atoms: C_5  and  C_8
REMARK    3  A    between atoms: C_8  and  N_9
REMARK    4  A    between atoms: N_9  and  C_10
REMARK    5  A    between atoms: C_10  and  C_11
REMARK    6  A    between atoms: N_24  and  C_27
REMARK                            x       y       z     vdW  Elec       q    Type
REMARK                         _______ _______ _______ _____ _____    ______ ____
ROOT
ATOM      1  C   UNL     1       1.144   6.000   2.880  0.00  0.00    +0.009 A 
ATOM      2  C   UNL     1       2.235   6.346   3.595  0.00  0.00    +0.021 A 
ATOM      3  C   UNL     1       1.798   6.708   4.885  0.00  0.00    +0.020 A 
ATOM      4  C   UNL     1       0.457   6.570   4.912  0.00  0.00    +0.093 A 
ATOM      5  N   UNL     1       0.047   6.141   3.681  0.00  0.00    -0.300 N 
ATOM      6  C   UNL     1      -1.273   5.886   3.306  0.00  0.00    +0.202 A 
ATOM      7  N   UNL     1      -1.763   5.474   2.149  0.00  0.00    -0.121 NA
ATOM      8  N   UNL     1      -2.998   5.286   1.975  0.00  0.00    -0.124 NA
ATOM      9  C   UNL     1      -3.882   5.500   2.938  0.00  0.00    +0.186 A 
ATOM     10  S   UNL     1      -2.787   6.030   4.252  0.00  0.00    -0.013 S 
ATOM     11  N   UNL     1      -5.263   5.356   2.931  0.00  0.00    -0.305 N 
ATOM     12  C   UNL     1      -5.704   4.448   3.999  0.00  0.00    +0.126 C 
ATOM     13  C   UNL     1      -7.232   4.379   4.008  0.00  0.00    +0.124 C 
ATOM     14  N   UNL     1      -7.707   3.914   2.697  0.00  0.00    -0.327 N 
ATOM     15  C   UNL     1      -7.266   4.822   1.629  0.00  0.00    +0.124 C 
ATOM     16  C   UNL     1      -5.737   4.892   1.620  0.00  0.00    +0.126 C 
ENDROOT
BRANCH  14  17
ATOM     17  C   UNL     1      -9.096   3.769   2.690  0.00  0.00    +0.030 A 
ATOM     18  C   UNL     1      -9.862   4.449   1.752  0.00  0.00    +0.023 A 
ATOM     19  C   UNL     1     -11.235   4.300   1.744  0.00  0.00    +0.002 A 
ATOM     20  C   UNL     1     -11.848   3.483   2.676  0.00  0.00    +0.000 A 
ATOM     21  C   UNL     1     -11.089   2.809   3.615  0.00  0.00    +0.002 A 
ATOM     22  C   UNL     1      -9.715   2.950   3.625  0.00  0.00    +0.023 A 
ENDBRANCH  14  17
BRANCH   1  23
ATOM     23  C   UNL     1       1.137   5.543   1.444  0.00  0.00    -0.027 C 
BRANCH  23  24
ATOM     24  N   UNL     1       1.157   4.075   1.397  0.00  0.00    +0.385 N 
ATOM     25  H   UNL     1       0.269   3.693   1.922  0.00  0.00    -0.085 HD
ATOM     26  H   UNL     1       2.065   3.718   1.906  0.00  0.00    -0.085 HD
BRANCH  24  27
ATOM     27  C   UNL     1       1.151   3.592   0.010  0.00  0.00    -0.046 C 
BRANCH  27  32
ATOM     28  C   UNL     1       1.229  -2.186  -0.022  0.00  0.00    +0.044 C 
ATOM     29  C   UNL     1       1.208  -0.679  -0.014  0.00  0.00    -0.050 A 
ATOM     30  C   UNL     1       0.002  -0.004   0.002  0.00  0.00    +0.003 A 
ATOM     31  C   UNL     1      -0.017   1.378   0.010  0.00  0.00    +0.002 A 
ATOM     32  C   UNL     1       1.171   2.086   0.002  0.00  0.00    -0.064 A 
ATOM     33  C   UNL     1       2.377   1.411  -0.014  0.00  0.00    +0.002 A 
ATOM     34  C   UNL     1       2.396   0.029  -0.021  0.00  0.00    +0.003 A 
ENDBRANCH  27  32
ENDBRANCH  24  27
ENDBRANCH  23  24
ENDBRANCH   1  23
TORSDOF 5
