REMARK  Name = ZINC04270487
REMARK  7 active torsions:
REMARK  status: ('A' for Active; 'I' for Inactive)
REMARK    1  A    between atoms: C_1  and  C_2
REMARK    2  A    between atoms: C_6  and  S_16
REMARK    3  A    between atoms: S_16  and  N_19
REMARK    4  A    between atoms: N_19  and  C_20
REMARK    5  A    between atoms: C_23  and  C_26
REMARK    6  A    between atoms: C_26  and  C_27
REMARK    7  A    between atoms: C_26  and  C_28
REMARK                            x       y       z     vdW  Elec       q    Type
REMARK                         _______ _______ _______ _____ _____    ______ ____
ROOT
ATOM      1  C   UNL     1       0.495  -2.176   1.553  0.00  0.00    +0.022 C 
ATOM      2  C   UNL     1       0.099  -3.352   0.658  0.00  0.00    +0.104 C 
ATOM      3  C   UNL     1      -1.389  -3.347   0.408  0.00  0.00    -0.012 A 
ATOM      4  C   UNL     1      -2.287  -2.482  -0.177  0.00  0.00    +0.035 A 
ATOM      5  C   UNL     1      -3.631  -2.820  -0.231  0.00  0.00    +0.109 A 
ATOM      6  C   UNL     1      -4.090  -4.020   0.296  0.00  0.00    +0.034 A 
ATOM      7  C   UNL     1      -3.199  -4.884   0.880  0.00  0.00    -0.024 A 
ATOM      8  C   UNL     1      -1.849  -4.534   0.931  0.00  0.00    +0.043 A 
ATOM      9  N   UNL     1      -0.815  -5.297   1.495  0.00  0.00    -0.270 N 
ATOM     10  C   UNL     1       0.362  -4.671   1.367  0.00  0.00    +0.227 C 
ATOM     11  O   UNL     1       1.439  -5.079   1.748  0.00  0.00    -0.275 OA
ATOM     12  C   UNL     1      -1.131  -6.596   2.113  0.00  0.00    +0.114 C 
ATOM     13  C   UNL     1      -2.581  -6.555   2.609  0.00  0.00    +0.024 C 
ATOM     14  C   UNL     1      -3.563  -6.214   1.485  0.00  0.00    +0.038 C 
ENDROOT
BRANCH   5  15
ATOM     15  S   UNL     1      -4.775  -1.709  -0.980  0.00  0.00    +0.072 S 
ATOM     16  O   UNL     1      -6.023  -1.913  -0.332  0.00  0.00    -0.150 OA
ATOM     17  O   UNL     1      -4.138  -0.440  -1.024  0.00  0.00    -0.150 OA
BRANCH  15  18
ATOM     18  N   UNL     1      -4.972  -2.194  -2.551  0.00  0.00    -0.216 N 
ATOM     19  H   UNL     1      -5.843  -2.487  -2.862  0.00  0.00    +0.174 HD
BRANCH  18  20
ATOM     20  C   UNL     1      -3.885  -2.182  -3.427  0.00  0.00    +0.048 A 
ATOM     21  C   UNL     1      -3.418  -0.979  -3.941  0.00  0.00    +0.025 A 
ATOM     22  C   UNL     1      -2.342  -0.970  -4.807  0.00  0.00    +0.006 A 
ATOM     23  C   UNL     1      -1.730  -2.158  -5.163  0.00  0.00    -0.045 A 
ATOM     24  C   UNL     1      -2.192  -3.357  -4.654  0.00  0.00    +0.006 A 
ATOM     25  C   UNL     1      -3.264  -3.373  -3.783  0.00  0.00    +0.025 A 
BRANCH  23  26
ATOM     26  C   UNL     1      -0.557  -2.144  -6.109  0.00  0.00    +0.013 C 
ATOM     27  C   UNL     1       0.665  -2.747  -5.414  0.00  0.00    +0.012 C 
ATOM     28  C   UNL     1      -0.895  -2.969  -7.353  0.00  0.00    +0.012 C 
ENDBRANCH  23  26
ENDBRANCH  18  20
ENDBRANCH  15  18
ENDBRANCH   5  15
TORSDOF 4
