REMARK  Name = ZINC14244257
REMARK  9 active torsions:
REMARK  status: ('A' for Active; 'I' for Inactive)
REMARK    1  A    between atoms: C_1  and  C_2
REMARK    2  A    between atoms: C_2  and  C_4
REMARK    3  A    between atoms: C_2  and  N_56
REMARK    4  A    between atoms: C_7  and  S_10
REMARK    5  A    between atoms: S_10  and  N_13
REMARK    6  A    between atoms: C_14  and  N_56
REMARK    7  A    between atoms: C_15  and  C_16
REMARK    8  A    between atoms: C_15  and  N_56
REMARK    9  A    between atoms: C_26  and  C_28
REMARK                            x       y       z     vdW  Elec       q    Type
REMARK                         _______ _______ _______ _____ _____    ______ ____
ROOT
ATOM      1  C   UNL     1      -3.624   5.098   6.374  0.00  0.00    +0.019 C 
ENDROOT
BRANCH   1   2
ATOM      2  C   UNL     1      -4.455   6.329   6.117  0.00  0.00    +0.200 C 
ATOM      3  O   UNL     1      -4.755   6.632   4.982  0.00  0.00    -0.278 OA
ATOM      4  N   UNL     1      -4.864   7.093   7.149  0.00  0.00    -0.291 N 
ATOM      5  C   UNL     1      -4.506   6.736   8.530  0.00  0.00    +0.114 C 
ATOM      6  C   UNL     1      -3.596   7.838   9.093  0.00  0.00    +0.062 C 
ATOM      7  C   UNL     1      -4.151   9.167   8.697  0.00  0.00    -0.003 A 
ATOM      8  C   UNL     1      -5.072   9.434   7.732  0.00  0.00    -0.012 A 
ATOM      9  C   UNL     1      -5.421  10.772   7.553  0.00  0.00    +0.013 A 
ATOM     10  C   UNL     1      -4.854  11.728   8.324  0.00  0.00    +0.046 A 
ATOM     11  S   UNL     1      -3.770  10.764   9.367  0.00  0.00    -0.101 S 
ATOM     12  C   UNL     1      -5.668   8.299   6.910  0.00  0.00    +0.144 C 
BRANCH  12  13
ATOM     13  C   UNL     1      -7.092   8.056   7.340  0.00  0.00    +0.015 A 
ATOM     14  C   UNL     1      -8.243   8.445   6.740  0.00  0.00    +0.013 A 
ATOM     15  C   UNL     1      -9.451   8.105   7.321  0.00  0.00    +0.008 A 
ATOM     16  C   UNL     1      -9.447   7.392   8.473  0.00  0.00    +0.045 A 
ATOM     17  S   UNL     1      -7.700   7.174   8.768  0.00  0.00    -0.099 S 
ENDBRANCH  12  13
ENDBRANCH   1   2
BRANCH   1  19
ATOM     18  C   UNL     1      -4.525   3.919   4.461  0.00  0.00    -0.095 C 
ATOM     19  N   UNL     1      -3.298   4.463   5.079  0.00  0.00    +0.388 N 
ATOM     20  H   UNL     1      -2.895   5.171   4.454  0.00  0.00    -0.081 HD
BRANCH  19  22
ATOM     21  C   UNL     1      -2.956   2.194   5.999  0.00  0.00    -0.008 C 
ATOM     22  C   UNL     1      -2.311   3.382   5.281  0.00  0.00    -0.041 C 
BRANCH  22  23
ATOM     23  C   UNL     1      -1.797   2.937   3.936  0.00  0.00    -0.061 A 
ATOM     24  C   UNL     1      -1.385   1.631   3.751  0.00  0.00    +0.004 A 
ATOM     25  C   UNL     1      -0.914   1.222   2.517  0.00  0.00    +0.029 A 
ATOM     26  C   UNL     1      -0.856   2.121   1.468  0.00  0.00    +0.105 A 
ATOM     27  C   UNL     1      -1.262   3.429   1.655  0.00  0.00    +0.029 A 
ATOM     28  C   UNL     1      -1.737   3.836   2.888  0.00  0.00    +0.004 A 
BRANCH  26  29
ATOM     29  S   UNL     1      -0.255   1.601  -0.105  0.00  0.00    +0.056 S 
ATOM     30  O   UNL     1       0.578   0.474   0.131  0.00  0.00    -0.153 OA
ATOM     31  O   UNL     1       0.211   2.768  -0.768  0.00  0.00    -0.153 OA
BRANCH  29  32
ATOM     32  N   UNL     1      -1.558   1.053  -0.969  0.00  0.00    -0.204 NA
ATOM     33  H   UNL     1      -2.443   1.067  -0.573  0.00  0.00    +0.144 HD
ATOM     34  H   UNL     1      -1.435   0.719  -1.871  0.00  0.00    +0.144 HD
ENDBRANCH  29  32
ENDBRANCH  26  29
ENDBRANCH  22  23
ENDBRANCH  19  22
ENDBRANCH   1  19
TORSDOF 7
