REMARK  Name = ZINC40437995
REMARK  3 active torsions:
REMARK  status: ('A' for Active; 'I' for Inactive)
REMARK    1  A    between atoms: C_6  and  C_7
REMARK    2  A    between atoms: C_7  and  N_8
REMARK    3  A    between atoms: N_11  and  C_12
REMARK                            x       y       z     vdW  Elec       q    Type
REMARK                         _______ _______ _______ _____ _____    ______ ____
ROOT
ATOM      1  N   UNL     1      -1.539  -1.285  -1.367  0.00  0.00    -0.294 N 
ATOM      2  C   UNL     1      -2.591  -2.092  -1.607  0.00  0.00    +0.300 C 
ATOM      3  O   UNL     1      -3.264  -2.505  -0.682  0.00  0.00    -0.253 OA
ATOM      4  N   UNL     1      -2.897  -2.443  -2.872  0.00  0.00    -0.294 N 
ATOM      5  H   UNL     1      -1.002  -0.956  -2.104  0.00  0.00    +0.151 HD
ATOM      6  H   UNL     1      -2.360  -2.114  -3.610  0.00  0.00    +0.151 HD
ENDROOT
BRANCH   4   7
ATOM      7  C   UNL     1      -4.040  -3.320  -3.133  0.00  0.00    +0.037 C 
ATOM      8  C   UNL     1      -3.830  -4.657  -2.419  0.00  0.00    +0.029 C 
ATOM      9  C   UNL     1      -5.025  -5.574  -2.692  0.00  0.00    -0.008 C 
ATOM     10  C   UNL     1      -5.151  -5.814  -4.198  0.00  0.00    +0.007 C 
ATOM     11  C   UNL     1      -5.361  -4.477  -4.911  0.00  0.00    -0.008 C 
ATOM     12  C   UNL     1      -4.166  -3.560  -4.639  0.00  0.00    +0.029 C 
ATOM     13  C   UNL     1      -6.639  -3.816  -4.391  0.00  0.00    +0.007 C 
ATOM     14  C   UNL     1      -6.513  -3.577  -2.885  0.00  0.00    -0.008 C 
ATOM     15  C   UNL     1      -6.303  -4.914  -2.172  0.00  0.00    +0.007 C 
ATOM     16  C   UNL     1      -5.319  -2.660  -2.613  0.00  0.00    +0.029 C 
ENDBRANCH   4   7
BRANCH   1  17
ATOM     17  C   UNL     1      -1.206  -0.904   0.008  0.00  0.00    +0.163 C 
BRANCH  17  23
ATOM     18  C   UNL     1      -0.017   1.395   0.010  0.00  0.00    +0.045 A 
ATOM     19  C   UNL     1       1.265   1.828  -0.000  0.00  0.00    +0.105 A 
ATOM     20  N   UNL     1       2.066   0.743  -0.014  0.00  0.00    -0.284 N 
ATOM     21  H   UNL     1       3.036   0.750  -0.023  0.00  0.00    +0.188 HD
ATOM     22  N   UNL     1       1.250  -0.396  -0.012  0.00  0.00    -0.177 NA
ATOM     23  C   UNL     1       0.002  -0.004   0.002  0.00  0.00    +0.080 A 
ENDBRANCH  17  23
ENDBRANCH   1  17
TORSDOF 3
