REMARK  Name = ZINC19926288
REMARK  7 active torsions:
REMARK  status: ('A' for Active; 'I' for Inactive)
REMARK    1  A    between atoms: C_4  and  S_7
REMARK    2  A    between atoms: S_7  and  N_10
REMARK    3  A    between atoms: N_10  and  C_11
REMARK    4  A    between atoms: N_10  and  C_27
REMARK    5  A    between atoms: C_11  and  C_12
REMARK    6  A    between atoms: N_14  and  N_15
REMARK    7  A    between atoms: C_16  and  C_17
REMARK                            x       y       z     vdW  Elec       q    Type
REMARK                         _______ _______ _______ _____ _____    ______ ____
ROOT
ATOM      1  N   UNL     1       4.388  -1.070   1.557  0.00  0.00    -0.193 N 
ENDROOT
BRANCH   1   2
ATOM      2  C   UNL     1       5.163  -0.121   2.230  0.00  0.00    +0.070 A 
ATOM      3  C   UNL     1       6.544  -0.261   2.281  0.00  0.00    +0.026 A 
ATOM      4  C   UNL     1       7.308   0.678   2.946  0.00  0.00    +0.002 A 
ATOM      5  C   UNL     1       6.699   1.757   3.562  0.00  0.00    +0.002 A 
ATOM      6  C   UNL     1       5.324   1.900   3.513  0.00  0.00    +0.022 A 
ATOM      7  C   UNL     1       4.555   0.967   2.845  0.00  0.00    +0.064 A 
ATOM      8 CL   UNL     1       2.830   1.150   2.779  0.00  0.00    -0.082 Cl
ENDBRANCH   1   2
BRANCH   1   9
ATOM      9  S   UNL     1       3.952  -0.815  -0.020  0.00  0.00    +0.075 S 
ATOM     10  O   UNL     1       3.694  -2.094  -0.582  0.00  0.00    -0.150 OA
ATOM     11  O   UNL     1       4.911   0.079  -0.567  0.00  0.00    -0.150 OA
BRANCH   9  15
ATOM     12  C   UNL     1       0.002   1.397   0.023  0.00  0.00    +0.000 A 
ATOM     13  C   UNL     1       1.190   2.103   0.024  0.00  0.00    +0.002 A 
ATOM     14  C   UNL     1       2.396   1.428   0.012  0.00  0.00    +0.029 A 
ATOM     15  C   UNL     1       2.414   0.046  -0.002  0.00  0.00    +0.109 A 
ATOM     16  C   UNL     1       1.226  -0.661  -0.003  0.00  0.00    +0.029 A 
ATOM     17  C   UNL     1       0.020   0.014   0.008  0.00  0.00    +0.002 A 
ENDBRANCH   9  15
ENDBRANCH   1   9
BRANCH   1  18
ATOM     18  C   UNL     1       3.961  -2.289   2.247  0.00  0.00    +0.229 C 
BRANCH  18  19
ATOM     19  C   UNL     1       5.050  -3.326   2.155  0.00  0.00    +0.251 C 
ATOM     20  O   UNL     1       6.082  -3.072   1.570  0.00  0.00    -0.272 OA
ATOM     21  N   UNL     1       4.879  -4.537   2.722  0.00  0.00    -0.206 N 
ATOM     22  H   UNL     1       4.054  -4.741   3.189  0.00  0.00    +0.177 HD
BRANCH  21  23
ATOM     23  N   UNL     1       5.891  -5.501   2.635  0.00  0.00    -0.188 NA
ATOM     24  C   UNL     1       5.726  -6.668   3.182  0.00  0.00    +0.139 C 
BRANCH  24  25
ATOM     25  C   UNL     1       6.789  -7.680   3.092  0.00  0.00    +0.002 A 
ATOM     26  C   UNL     1       6.675  -8.891   3.764  0.00  0.00    +0.010 A 
ATOM     27  C   UNL     1       7.681  -9.845   3.676  0.00  0.00    +0.001 A 
ATOM     28  C   UNL     1       8.805  -9.637   2.938  0.00  0.00    +0.008 A 
ATOM     29  C   UNL     1       8.988  -8.436   2.232  0.00  0.00    -0.017 A 
ATOM     30  C   UNL     1       7.985  -7.436   2.288  0.00  0.00    -0.009 A 
ATOM     31  C   UNL     1       8.161  -6.240   1.582  0.00  0.00    +0.009 A 
ATOM     32  C   UNL     1       9.292  -6.053   0.844  0.00  0.00    +0.001 A 
ATOM     33  C   UNL     1      10.277  -7.037   0.783  0.00  0.00    +0.001 A 
ATOM     34  C   UNL     1      10.144  -8.206   1.467  0.00  0.00    +0.008 A 
ENDBRANCH  24  25
ENDBRANCH  21  23
ENDBRANCH  18  19
ENDBRANCH   1  18
TORSDOF 7
