REMARK  Name = ZINC08748771
REMARK  8 active torsions:
REMARK  status: ('A' for Active; 'I' for Inactive)
REMARK    1  A    between atoms: N_9  and  C_12
REMARK    2  A    between atoms: C_12  and  C_13
REMARK    3  A    between atoms: N_15  and  C_16
REMARK    4  A    between atoms: N_15  and  C_22
REMARK    5  A    between atoms: C_16  and  C_17
REMARK    6  A    between atoms: C_22  and  C_24
REMARK    7  A    between atoms: C_22  and  C_29
REMARK    8  A    between atoms: N_31  and  C_32
REMARK                            x       y       z     vdW  Elec       q    Type
REMARK                         _______ _______ _______ _____ _____    ______ ____
ROOT
ATOM      1  C   UNL     1      -2.160   7.174  -3.024  0.00  0.00    +0.235 C 
ATOM      2  O   UNL     1      -1.214   6.431  -2.870  0.00  0.00    -0.274 OA
ATOM      3  N   UNL     1      -2.735   7.763  -1.958  0.00  0.00    -0.276 N 
ENDROOT
BRANCH   1   4
ATOM      4  C   UNL     1      -2.692   7.438  -4.409  0.00  0.00    +0.213 C 
BRANCH   4  13
ATOM      5  C   UNL     1       0.135   3.802  -8.385  0.00  0.00    +0.001 A 
ATOM      6  C   UNL     1       0.998   4.875  -8.512  0.00  0.00    +0.001 A 
ATOM      7  C   UNL     1       0.792   6.033  -7.779  0.00  0.00    +0.014 A 
ATOM      8  C   UNL     1      -0.286   6.114  -6.912  0.00  0.00    +0.049 A 
ATOM      9  C   UNL     1      -1.165   5.021  -6.782  0.00  0.00    +0.049 A 
ATOM     10  C   UNL     1      -0.947   3.870  -7.522  0.00  0.00    +0.014 A 
ATOM     11  C   UNL     1      -2.184   5.436  -5.794  0.00  0.00    +0.254 C 
ATOM     12  O   UNL     1      -3.119   4.761  -5.414  0.00  0.00    -0.270 OA
ATOM     13  N   UNL     1      -1.902   6.687  -5.388  0.00  0.00    -0.225 N 
ATOM     14  C   UNL     1      -0.802   7.159  -6.002  0.00  0.00    +0.254 C 
ATOM     15  O   UNL     1      -0.315   8.259  -5.836  0.00  0.00    -0.270 OA
ENDBRANCH   4  13
ENDBRANCH   1   4
BRANCH   3  16
ATOM     16  C   UNL     1      -3.878   8.661  -2.144  0.00  0.00    +0.183 C 
BRANCH  16  17
ATOM     17  C   UNL     1      -3.389  10.082  -2.246  0.00  0.00    +0.122 A 
ATOM     18  C   UNL     1      -3.129  10.745  -3.388  0.00  0.00    +0.046 A 
ATOM     19  C   UNL     1      -2.697  12.040  -3.021  0.00  0.00    +0.041 A 
ATOM     20  C   UNL     1      -2.718  12.091  -1.677  0.00  0.00    +0.195 A 
ATOM     21  O   UNL     1      -3.144  10.905  -1.213  0.00  0.00    -0.466 OA
ENDBRANCH  16  17
ENDBRANCH   3  16
BRANCH   3  22
ATOM     22  C   UNL     1      -2.217   7.506  -0.611  0.00  0.00    +0.213 C 
BRANCH  22  23
ATOM     23  C   UNL     1      -0.790   7.982  -0.522  0.00  0.00    +0.101 A 
ATOM     24  C   UNL     1      -0.201   8.343   0.651  0.00  0.00    +0.094 A 
ATOM     25  S   UNL     1       1.384   8.778   0.106  0.00  0.00    +0.028 S 
ATOM     26  N   UNL     1       1.207   8.498  -1.437  0.00  0.00    -0.110 NA
ATOM     27  N   UNL     1      -0.001   8.081  -1.571  0.00  0.00    -0.144 NA
ENDBRANCH  22  23
BRANCH  22  28
ATOM     28  C   UNL     1      -2.273   6.027  -0.326  0.00  0.00    +0.240 C 
ATOM     29  O   UNL     1      -2.571   5.250  -1.208  0.00  0.00    -0.273 OA
ATOM     30  N   UNL     1      -1.990   5.569   0.910  0.00  0.00    -0.308 N 
ATOM     31  H   UNL     1      -1.752   6.190   1.615  0.00  0.00    +0.149 HD
BRANCH  30  32
ATOM     32  C   UNL     1      -2.044   4.131   1.187  0.00  0.00    +0.035 C 
ATOM     33  C   UNL     1      -1.048   3.400   0.285  0.00  0.00    +0.029 C 
ATOM     34  C   UNL     1      -1.104   1.899   0.575  0.00  0.00    -0.008 C 
ATOM     35  C   UNL     1      -0.743   1.649   2.041  0.00  0.00    +0.007 C 
ATOM     36  C   UNL     1      -1.739   2.380   2.943  0.00  0.00    -0.008 C 
ATOM     37  C   UNL     1      -1.683   3.881   2.653  0.00  0.00    +0.029 C 
ATOM     38  C   UNL     1      -3.152   1.860   2.670  0.00  0.00    +0.007 C 
ATOM     39  C   UNL     1      -3.513   2.110   1.204  0.00  0.00    -0.008 C 
ATOM     40  C   UNL     1      -2.517   1.379   0.301  0.00  0.00    +0.007 C 
ATOM     41  C   UNL     1      -3.457   3.611   0.914  0.00  0.00    +0.029 C 
ENDBRANCH  30  32
ENDBRANCH  22  28
ENDBRANCH   3  22
TORSDOF 8
