REMARK  Name = ZINC09065487
REMARK  6 active torsions:
REMARK  status: ('A' for Active; 'I' for Inactive)
REMARK    1  A    between atoms: C_1  and  C_2
REMARK    2  A    between atoms: C_5  and  C_8
REMARK    3  A    between atoms: C_13  and  C_18
REMARK    4  A    between atoms: C_33  and  C_35
REMARK    5  A    between atoms: C_35  and  C_36
REMARK    6  A    between atoms: C_36  and  C_37
REMARK                            x       y       z     vdW  Elec       q    Type
REMARK                         _______ _______ _______ _____ _____    ______ ____
ROOT
ATOM      1  C   UNL     1      -5.421   3.440   0.114  0.00  0.00    +0.147 C 
ATOM      2  C   UNL     1      -4.118   2.722  -0.152  0.00  0.00    +0.037 C 
ATOM      3  C   UNL     1      -3.567   2.509  -1.358  0.00  0.00    +0.017 C 
ATOM      4  C   UNL     1      -2.258   1.748  -1.482  0.00  0.00    +0.059 C 
ATOM      5  C   UNL     1      -1.377   2.030  -0.266  0.00  0.00    +0.033 C 
ATOM      6  C   UNL     1      -2.140   1.568   0.981  0.00  0.00    +0.088 C 
ATOM      7  C   UNL     1      -3.465   2.270   1.019  0.00  0.00    +0.163 C 
ATOM      8  O   UNL     1      -3.996   2.458   2.096  0.00  0.00    -0.292 OA
ATOM      9  N   UNL     1      -4.094   2.927  -2.537  0.00  0.00    -0.316 N 
ATOM     10  C   UNL     1      -5.423   2.774  -2.910  0.00  0.00    +0.053 A 
ATOM     11  C   UNL     1      -5.806   1.980  -3.978  0.00  0.00    +0.025 A 
ATOM     12  C   UNL     1      -7.144   1.909  -4.325  0.00  0.00    +0.002 A 
ATOM     13  C   UNL     1      -8.089   2.626  -3.613  0.00  0.00    +0.002 A 
ATOM     14  C   UNL     1      -7.710   3.406  -2.534  0.00  0.00    +0.025 A 
ATOM     15  C   UNL     1      -6.374   3.463  -2.172  0.00  0.00    +0.058 A 
ATOM     16  N   UNL     1      -5.958   4.148  -1.029  0.00  0.00    -0.258 N 
ATOM     17  C   UNL     1      -6.058   5.491  -0.989  0.00  0.00    +0.221 C 
ATOM     18  O   UNL     1      -5.700   6.097  -0.001  0.00  0.00    -0.275 OA
ATOM     19  H   UNL     1      -3.498   3.364  -3.166  0.00  0.00    +0.152 HD
ENDROOT
BRANCH   1  24
ATOM     20  C   UNL     1      -9.328  -0.439   1.868  0.00  0.00    +0.044 C 
ATOM     21  C   UNL     1      -8.309   0.572   1.411  0.00  0.00    -0.050 A 
ATOM     22  C   UNL     1      -7.802   0.510   0.126  0.00  0.00    +0.004 A 
ATOM     23  C   UNL     1      -6.867   1.438  -0.293  0.00  0.00    +0.006 A 
ATOM     24  C   UNL     1      -6.440   2.429   0.572  0.00  0.00    -0.022 A 
ATOM     25  C   UNL     1      -6.942   2.487   1.858  0.00  0.00    +0.006 A 
ATOM     26  C   UNL     1      -7.880   1.562   2.276  0.00  0.00    +0.004 A 
ENDBRANCH   1  24
BRANCH   5  27
ATOM     27  C   UNL     1      -0.083   1.267  -0.384  0.00  0.00    -0.025 A 
ATOM     28  C   UNL     1      -0.099  -0.113  -0.465  0.00  0.00    +0.005 A 
ATOM     29  C   UNL     1       1.087  -0.813  -0.580  0.00  0.00    +0.000 A 
ATOM     30  C   UNL     1       2.291  -0.134  -0.614  0.00  0.00    +0.001 A 
ATOM     31  C   UNL     1       2.308   1.246  -0.533  0.00  0.00    +0.020 A 
ATOM     32  C   UNL     1       1.121   1.947  -0.418  0.00  0.00    +0.044 A 
ATOM     33 CL   UNL     1       1.143   3.680  -0.317  0.00  0.00    -0.083 Cl
ENDBRANCH   5  27
BRANCH  17  34
ATOM     34  C   UNL     1      -6.615   6.241  -2.172  0.00  0.00    +0.107 C 
BRANCH  34  35
ATOM     35  C   UNL     1      -6.620   7.741  -1.869  0.00  0.00    +0.134 C 
BRANCH  35  36
ATOM     36  C   UNL     1      -7.178   8.490  -3.051  0.00  0.00    +0.356 C 
ATOM     37  O   UNL     1      -7.535   7.887  -4.035  0.00  0.00    -0.246 OA
ATOM     38  O   UNL     1      -7.277   9.828  -3.011  0.00  0.00    -0.246 OA
ENDBRANCH  35  36
ENDBRANCH  34  35
ENDBRANCH  17  34
TORSDOF 5
