REMARK  Name = ZINC43080106
REMARK  8 active torsions:
REMARK  status: ('A' for Active; 'I' for Inactive)
REMARK    1  A    between atoms: C_1  and  N_2
REMARK    2  A    between atoms: N_2  and  C_3
REMARK    3  A    between atoms: N_2  and  C_4
REMARK    4  A    between atoms: C_4  and  C_5
REMARK    5  A    between atoms: C_5  and  C_6
REMARK    6  A    between atoms: C_6  and  N_7
REMARK    7  A    between atoms: C_9  and  C_17
REMARK    8  A    between atoms: C_18  and  N_24
REMARK                            x       y       z     vdW  Elec       q    Type
REMARK                         _______ _______ _______ _____ _____    ______ ____
ROOT
ATOM      1  N   UNL     1      -4.186  -0.254  -2.519  0.00  0.00    -0.346 N 
ATOM      2  C   UNL     1      -4.963   0.852  -2.672  0.00  0.00    +0.095 A 
ATOM      3  C   UNL     1      -5.432   0.910  -3.951  0.00  0.00    +0.014 A 
ATOM      4  C   UNL     1      -4.893  -0.270  -4.649  0.00  0.00    +0.008 A 
ATOM      5  C   UNL     1      -4.116  -0.958  -3.703  0.00  0.00    +0.051 A 
ATOM      6  C   UNL     1      -3.465  -2.129  -4.077  0.00  0.00    +0.041 A 
ATOM      7  C   UNL     1      -3.584  -2.601  -5.367  0.00  0.00    +0.020 A 
ATOM      8  C   UNL     1      -4.349  -1.917  -6.302  0.00  0.00    +0.016 A 
ATOM      9  C   UNL     1      -5.008  -0.760  -5.948  0.00  0.00    +0.012 A 
ATOM     10 BR   UNL     1      -2.696  -4.193  -5.868  0.00  0.00    -0.050 Br
ENDROOT
BRANCH   3  11
ATOM     11  C   UNL     1      -6.307   1.949  -4.521  0.00  0.00    +0.075 C 
ATOM     12  C   UNL     1      -5.945   3.221  -4.882  0.00  0.00    +0.122 C 
ATOM     13  C   UNL     1      -7.162   3.871  -5.398  0.00  0.00    +0.268 C 
ATOM     14  O   UNL     1      -7.235   5.010  -5.815  0.00  0.00    -0.268 OA
ATOM     15  N   UNL     1      -8.180   2.995  -5.331  0.00  0.00    -0.247 N 
ATOM     16  C   UNL     1      -7.751   1.825  -4.826  0.00  0.00    +0.253 C 
ATOM     17  O   UNL     1      -8.432   0.836  -4.647  0.00  0.00    -0.270 OA
ATOM     18  H   UNL     1      -9.091   3.179  -5.610  0.00  0.00    +0.158 HD
BRANCH  12  19
ATOM     19  N   UNL     1      -4.676   3.787  -4.781  0.00  0.00    -0.309 N 
ATOM     20  C   UNL     1      -3.624   3.515  -5.612  0.00  0.00    +0.094 A 
ATOM     21  C   UNL     1      -2.549   4.229  -5.239  0.00  0.00    +0.048 A 
ATOM     22  C   UNL     1      -2.942   5.024  -4.073  0.00  0.00    +0.089 A 
ATOM     23  C   UNL     1      -4.294   4.711  -3.832  0.00  0.00    +0.072 A 
ATOM     24  C   UNL     1      -4.949   5.329  -2.773  0.00  0.00    +0.030 A 
ATOM     25  C   UNL     1      -4.241   6.233  -2.000  0.00  0.00    +0.022 A 
ATOM     26  C   UNL     1      -2.913   6.496  -2.297  0.00  0.00    +0.111 A 
ATOM     27  N   UNL     1      -2.304   5.896  -3.298  0.00  0.00    -0.253 NA
ENDBRANCH  12  19
ENDBRANCH   3  11
BRANCH   1  28
ATOM     28  C   UNL     1      -3.513  -0.640  -1.275  0.00  0.00    +0.120 C 
BRANCH  28  29
ATOM     29  C   UNL     1      -2.078  -0.110  -1.286  0.00  0.00    +0.003 C 
BRANCH  29  30
ATOM     30  C   UNL     1      -1.376  -0.512   0.012  0.00  0.00    -0.078 C 
BRANCH  30  32
ATOM     31  C   UNL     1      -0.018   1.465   0.010  0.00  0.00    -0.097 C 
ATOM     32  N   UNL     1       0.002  -0.004   0.002  0.00  0.00    +0.376 N 
ATOM     33  C   UNL     1       0.713  -0.491   1.192  0.00  0.00    -0.097 C 
ATOM     34  H   UNL     1       0.474  -0.330  -0.828  0.00  0.00    -0.083 HD
ENDBRANCH  30  32
ENDBRANCH  29  30
ENDBRANCH  28  29
ENDBRANCH   1  28
TORSDOF 6
