REMARK  Name = ZINC12244864
REMARK  5 active torsions:
REMARK  status: ('A' for Active; 'I' for Inactive)
REMARK    1  A    between atoms: C_6  and  C_7
REMARK    2  A    between atoms: C_7  and  C_8
REMARK    3  A    between atoms: C_8  and  C_21
REMARK    4  A    between atoms: N_11  and  C_15
REMARK    5  A    between atoms: C_27  and  C_29
REMARK                            x       y       z     vdW  Elec       q    Type
REMARK                         _______ _______ _______ _____ _____    ______ ____
ROOT
ATOM      1  C   UNL     1       2.427   3.524   1.653  0.00  0.00    +0.119 C 
ATOM      2  C   UNL     1       1.538   2.616   2.480  0.00  0.00    +0.247 C 
ATOM      3  O   UNL     1       0.401   2.279   2.231  0.00  0.00    -0.273 OA
ATOM      4  N   UNL     1       2.276   2.262   3.551  0.00  0.00    -0.219 N 
ATOM      5  C   UNL     1       3.494   2.814   3.516  0.00  0.00    +0.310 C 
ATOM      6  O   UNL     1       4.339   2.642   4.372  0.00  0.00    -0.252 OA
ATOM      7  N   UNL     1       3.680   3.585   2.425  0.00  0.00    -0.284 N 
ATOM      8  H   UNL     1       4.480   4.081   2.192  0.00  0.00    +0.151 HD
ENDROOT
BRANCH   1   9
ATOM      9  C   UNL     1       1.805   4.916   1.526  0.00  0.00    +0.025 C 
ATOM     10  C   UNL     1       2.753   5.829   0.746  0.00  0.00    +0.025 C 
ATOM     11  C   UNL     1       2.112   7.212   0.591  0.00  0.00    +0.108 C 
ATOM     12  N   UNL     1       1.748   7.716   1.922  0.00  0.00    -0.301 N 
ATOM     13  C   UNL     1       0.912   6.876   2.791  0.00  0.00    +0.108 C 
ATOM     14  C   UNL     1       1.567   5.497   2.921  0.00  0.00    +0.025 C 
ATOM     15  C   UNL     1       2.171   8.926   2.338  0.00  0.00    +0.219 C 
ATOM     16  O   UNL     1       2.940   9.568   1.653  0.00  0.00    -0.275 OA
BRANCH  15  17
ATOM     17  C   UNL     1       1.690   9.482   3.653  0.00  0.00    +0.075 C 
ATOM     18  C   UNL     1       0.215   9.872   3.533  0.00  0.00    +0.013 C 
ATOM     19  C   UNL     1      -0.273  10.436   4.869  0.00  0.00    +0.001 C 
ATOM     20  C   UNL     1       0.553  11.671   5.233  0.00  0.00    +0.000 C 
ATOM     21  C   UNL     1       2.027  11.281   5.353  0.00  0.00    +0.001 C 
ATOM     22  C   UNL     1       2.516  10.717   4.018  0.00  0.00    +0.013 C 
ENDBRANCH  15  17
ENDBRANCH   1   9
BRANCH   4  23
ATOM     23  C   UNL     1       1.802   1.380   4.621  0.00  0.00    +0.113 C 
ATOM     24  C   UNL     1       0.568   1.996   5.324  0.00  0.00    +0.053 C 
ATOM     25  C   UNL     1      -0.604   1.260   4.618  0.00  0.00    +0.162 C 
ATOM     26  O   UNL     1      -0.094  -0.077   4.424  0.00  0.00    -0.378 OA
ATOM     27  C   UNL     1       1.284   0.052   4.036  0.00  0.00    +0.182 C 
ENDBRANCH   4  23
BRANCH   1  28
ATOM     28  C   UNL     1       2.675   2.919   0.270  0.00  0.00    +0.070 C 
BRANCH  28  34
ATOM     29  C   UNL     1       2.474   0.436   0.509  0.00  0.00    +0.006 A 
ATOM     30  C   UNL     1       3.034  -0.820   0.649  0.00  0.00    +0.038 A 
ATOM     31  C   UNL     1       4.411  -0.961   0.702  0.00  0.00    +0.123 A 
ATOM     32  C   UNL     1       5.224   0.156   0.615  0.00  0.00    +0.038 A 
ATOM     33  C   UNL     1       4.662   1.411   0.476  0.00  0.00    +0.006 A 
ATOM     34  C   UNL     1       3.288   1.550   0.423  0.00  0.00    -0.045 A 
ATOM     35  F   UNL     1       4.960  -2.188   0.839  0.00  0.00    -0.205 F 
ENDBRANCH  28  34
ENDBRANCH   1  28
TORSDOF 5
