REMARK  Name = ZINC44974832
REMARK  4 active torsions:
REMARK  status: ('A' for Active; 'I' for Inactive)
REMARK    1  A    between atoms: C_1  and  C_2
REMARK    2  A    between atoms: C_7  and  C_8
REMARK    3  A    between atoms: C_8  and  N_9
REMARK    4  A    between atoms: C_22  and  C_24
REMARK                            x       y       z     vdW  Elec       q    Type
REMARK                         _______ _______ _______ _____ _____    ______ ____
ROOT
ATOM      1  N   UNL     1      -1.392   0.092   3.020  0.00  0.00    -0.286 NA
ATOM      2  C   UNL     1      -2.078   0.987   2.078  0.00  0.00    +0.090 C 
ATOM      3  C   UNL     1      -3.593   0.907   2.308  0.00  0.00    +0.053 C 
ATOM      4  C   UNL     1      -3.849   1.064   3.785  0.00  0.00    -0.016 A 
ATOM      5  C   UNL     1      -5.083   1.367   4.474  0.00  0.00    +0.003 A 
ATOM      6  C   UNL     1      -6.388   1.603   4.029  0.00  0.00    +0.010 A 
ATOM      7  C   UNL     1      -7.334   1.867   4.988  0.00  0.00    +0.001 A 
ATOM      8  C   UNL     1      -7.024   1.900   6.338  0.00  0.00    +0.002 A 
ATOM      9  C   UNL     1      -5.742   1.670   6.807  0.00  0.00    +0.026 A 
ATOM     10  C   UNL     1      -4.761   1.400   5.856  0.00  0.00    +0.047 A 
ATOM     11  N   UNL     1      -3.425   1.134   5.969  0.00  0.00    -0.356 N 
ATOM     12  H   UNL     1      -2.933   1.093   6.804  0.00  0.00    +0.166 HD
ATOM     13  C   UNL     1      -2.887   0.934   4.727  0.00  0.00    +0.042 A 
ATOM     14  C   UNL     1      -1.449   0.613   4.395  0.00  0.00    +0.138 C 
ENDROOT
BRANCH  14  15
ATOM     15  C   UNL     1      -0.928  -0.427   5.353  0.00  0.00    +0.022 A 
ATOM     16  C   UNL     1      -0.878  -1.755   4.971  0.00  0.00    +0.029 A 
ATOM     17  C   UNL     1      -0.400  -2.712   5.847  0.00  0.00    +0.045 A 
ATOM     18  C   UNL     1       0.029  -2.345   7.110  0.00  0.00    +0.069 A 
ATOM     19  C   UNL     1      -0.019  -1.016   7.499  0.00  0.00    +0.168 A 
ATOM     20  C   UNL     1      -0.495  -0.052   6.614  0.00  0.00    +0.171 A 
ATOM     21  O   UNL     1      -0.435   1.168   7.225  0.00  0.00    -0.452 OA
ATOM     22  C   UNL     1      -0.297   0.887   8.630  0.00  0.00    +0.466 C 
ATOM     23  O   UNL     1       0.336  -0.402   8.665  0.00  0.00    -0.453 OA
ATOM     24 CL   UNL     1      -0.340  -4.378   5.362  0.00  0.00    -0.083 Cl
ENDBRANCH  14  15
BRANCH   1  25
ATOM     25  C   UNL     1      -0.004  -0.147   2.604  0.00  0.00    +0.120 C 
BRANCH  25  32
ATOM     26  C   UNL     1       2.485  -0.687   1.240  0.00  0.00    +0.044 C 
ATOM     27  C   UNL     1       1.201  -1.291   0.732  0.00  0.00    -0.046 A 
ATOM     28  C   UNL     1       1.215  -2.107  -0.383  0.00  0.00    +0.003 A 
ATOM     29  C   UNL     1       0.037  -2.661  -0.849  0.00  0.00    +0.000 A 
ATOM     30  C   UNL     1      -1.155  -2.398  -0.199  0.00  0.00    +0.000 A 
ATOM     31  C   UNL     1      -1.168  -1.582   0.916  0.00  0.00    +0.005 A 
ATOM     32  C   UNL     1       0.011  -1.032   1.385  0.00  0.00    -0.030 A 
ENDBRANCH  25  32
ENDBRANCH   1  25
TORSDOF 3
