REMARK  Name = ZINC58965664
REMARK  8 active torsions:
REMARK  status: ('A' for Active; 'I' for Inactive)
REMARK    1  A    between atoms: C_1  and  C_2
REMARK    2  A    between atoms: C_2  and  C_4
REMARK    3  A    between atoms: C_2  and  S_15
REMARK    4  A    between atoms: N_6  and  C_7
REMARK    5  A    between atoms: C_7  and  C_8
REMARK    6  A    between atoms: S_15  and  C_16
REMARK    7  A    between atoms: C_18  and  C_26
REMARK    8  A    between atoms: C_20  and  C_22
REMARK                            x       y       z     vdW  Elec       q    Type
REMARK                         _______ _______ _______ _____ _____    ______ ____
ROOT
ATOM      1  S   UNL     1      -1.700  -0.632   0.015  0.00  0.00    -0.074 S 
ENDROOT
BRANCH   1   2
ATOM      2  C   UNL     1      -2.335  -0.110   1.573  0.00  0.00    +0.190 A 
ATOM      3  N   UNL     1      -3.580  -0.421   1.899  0.00  0.00    -0.219 NA
ATOM      4  C   UNL     1      -4.089  -0.041   3.072  0.00  0.00    +0.111 A 
ATOM      5  C   UNL     1      -3.286   0.694   3.953  0.00  0.00    +0.064 A 
ATOM      6  C   UNL     1      -1.993   0.996   3.569  0.00  0.00    +0.149 A 
ATOM      7  N   UNL     1      -1.552   0.580   2.391  0.00  0.00    -0.218 NA
BRANCH   4   8
ATOM      8  C   UNL     1      -5.476  -0.388   3.434  0.00  0.00    +0.153 A 
ATOM      9  C   UNL     1      -6.349  -1.098   2.668  0.00  0.00    +0.051 A 
ATOM     10  C   UNL     1      -7.548  -1.191   3.399  0.00  0.00    +0.042 A 
ATOM     11  C   UNL     1      -7.352  -0.540   4.564  0.00  0.00    +0.196 A 
ATOM     12  O   UNL     1      -6.099  -0.061   4.584  0.00  0.00    -0.461 OA
ENDBRANCH   4   8
BRANCH   6  13
ATOM     13  C   UNL     1      -1.092   1.785   4.484  0.00  0.00    +0.434 C 
ATOM     14  F   UNL     1      -0.388   0.907   5.316  0.00  0.00    -0.164 F 
ATOM     15  F   UNL     1      -0.186   2.528   3.719  0.00  0.00    -0.164 F 
ATOM     16  F   UNL     1      -1.863   2.651   5.266  0.00  0.00    -0.164 F 
ENDBRANCH   6  13
ENDBRANCH   1   2
BRANCH   1  18
ATOM     17  C   UNL     1      -0.019   1.526   0.010  0.00  0.00    +0.029 C 
ATOM     18  C   UNL     1       0.002  -0.004   0.002  0.00  0.00    +0.137 C 
BRANCH  18  19
ATOM     19  C   UNL     1       0.707  -0.490  -1.238  0.00  0.00    +0.226 C 
ATOM     20  O   UNL     1       0.066  -0.782  -2.225  0.00  0.00    -0.275 OA
ATOM     21  N   UNL     1       2.051  -0.601  -1.250  0.00  0.00    -0.310 N 
ATOM     22  H   UNL     1       2.563  -0.367  -0.460  0.00  0.00    +0.149 HD
BRANCH  21  23
ATOM     23  C   UNL     1       2.736  -1.073  -2.455  0.00  0.00    +0.139 C 
BRANCH  23  24
ATOM     24  C   UNL     1       4.223  -1.105  -2.207  0.00  0.00    -0.030 A 
ATOM     25  C   UNL     1       4.992   0.011  -2.480  0.00  0.00    +0.006 A 
ATOM     26  C   UNL     1       6.356  -0.018  -2.253  0.00  0.00    +0.020 A 
ATOM     27  C   UNL     1       6.949  -1.163  -1.753  0.00  0.00    +0.041 A 
ATOM     28  C   UNL     1       6.178  -2.279  -1.481  0.00  0.00    +0.020 A 
ATOM     29  C   UNL     1       4.815  -2.248  -1.703  0.00  0.00    +0.006 A 
ATOM     30 CL   UNL     1       8.662  -1.200  -1.469  0.00  0.00    -0.084 Cl
ENDBRANCH  23  24
ENDBRANCH  21  23
ENDBRANCH  18  19
ENDBRANCH   1  18
TORSDOF 7
