REMARK  Name = ZINC39943973
REMARK  9 active torsions:
REMARK  status: ('A' for Active; 'I' for Inactive)
REMARK    1  A    between atoms: C_1  and  C_2
REMARK    2  A    between atoms: C_5  and  C_15
REMARK    3  A    between atoms: C_6  and  C_14
REMARK    4  A    between atoms: N_7  and  C_8
REMARK    5  A    between atoms: C_15  and  O_17
REMARK    6  A    between atoms: O_17  and  C_18
REMARK    7  A    between atoms: C_18  and  C_20
REMARK    8  A    between atoms: C_18  and  C_26
REMARK    9  A    between atoms: C_26  and  C_28
REMARK                            x       y       z     vdW  Elec       q    Type
REMARK                         _______ _______ _______ _____ _____    ______ ____
ROOT
ATOM      1  C   UNL     1       3.798  -2.759  -3.437  0.00  0.00    +0.277 C 
ENDROOT
BRANCH   1   2
ATOM      2  C   UNL     1       4.929  -1.823  -3.773  0.00  0.00    +0.000 A 
ATOM      3  C   UNL     1       4.664  -0.503  -4.087  0.00  0.00    +0.008 A 
ATOM      4  C   UNL     1       5.703   0.356  -4.394  0.00  0.00    +0.000 A 
ATOM      5  C   UNL     1       7.006  -0.104  -4.388  0.00  0.00    +0.000 A 
ATOM      6  C   UNL     1       7.271  -1.424  -4.073  0.00  0.00    +0.000 A 
ATOM      7  C   UNL     1       6.233  -2.282  -3.761  0.00  0.00    +0.008 A 
ENDBRANCH   1   2
BRANCH   1   8
ATOM      8  C   UNL     1       3.227  -3.333  -4.708  0.00  0.00    +0.206 C 
ATOM      9  O   UNL     1       2.207  -2.872  -5.179  0.00  0.00    -0.288 OA
BRANCH   8  10
ATOM     10  C   UNL     1       3.878  -4.407  -5.352  0.00  0.00    +0.027 C 
ATOM     11  C   UNL     1       3.492  -5.040  -6.519  0.00  0.00    +0.006 A 
ATOM     12  C   UNL     1       2.402  -4.851  -7.402  0.00  0.00    +0.010 A 
ATOM     13  C   UNL     1       2.267  -5.635  -8.495  0.00  0.00    +0.001 A 
ATOM     14  C   UNL     1       3.179  -6.656  -8.809  0.00  0.00    +0.002 A 
ATOM     15  C   UNL     1       4.252  -6.918  -8.032  0.00  0.00    +0.026 A 
ATOM     16  C   UNL     1       4.474  -6.111  -6.821  0.00  0.00    +0.043 A 
ATOM     17  N   UNL     1       5.406  -6.145  -5.911  0.00  0.00    -0.380 N 
ATOM     18  C   UNL     1       5.148  -5.102  -4.913  0.00  0.00    +0.152 C 
ATOM     19  H   UNL     1       6.154  -6.762  -5.898  0.00  0.00    +0.160 HD
ENDBRANCH   8  10
ENDBRANCH   1   8
BRANCH   1  20
ATOM     20  O   UNL     1       2.778  -2.043  -2.738  0.00  0.00    -0.445 OA
BRANCH  20  21
ATOM     21  C   UNL     1       2.871  -2.002  -1.392  0.00  0.00    +0.338 C 
ATOM     22  O   UNL     1       3.794  -2.559  -0.829  0.00  0.00    -0.245 OA
BRANCH  21  26
ATOM     23  C   UNL     1       0.062   1.561   0.106  0.00  0.00    +0.029 C 
ATOM     24  C   UNL     1       0.028   0.033   0.048  0.00  0.00    +0.080 C 
ATOM     25  C   UNL     1       0.768  -0.476  -1.204  0.00  0.00    +0.066 C 
ATOM     26  C   UNL     1       1.897  -1.311  -0.638  0.00  0.00    +0.055 C 
ATOM     27  C   UNL     1       1.815  -1.284   0.702  0.00  0.00    +0.018 C 
ATOM     28  N   UNL     1       0.777  -0.541   1.174  0.00  0.00    -0.300 N 
ATOM     29  C   UNL     1       2.783  -2.009   1.601  0.00  0.00    +0.061 C 
BRANCH  28  30
ATOM     30  C   UNL     1       0.470  -0.351   2.524  0.00  0.00    +0.034 A 
ATOM     31  C   UNL     1       1.334   0.369   3.340  0.00  0.00    +0.023 A 
ATOM     32  C   UNL     1       1.027   0.555   4.673  0.00  0.00    +0.002 A 
ATOM     33  C   UNL     1      -0.139   0.026   5.197  0.00  0.00    +0.000 A 
ATOM     34  C   UNL     1      -1.001  -0.692   4.387  0.00  0.00    +0.002 A 
ATOM     35  C   UNL     1      -0.703  -0.876   3.051  0.00  0.00    +0.023 A 
ENDBRANCH  28  30
ENDBRANCH  21  26
ENDBRANCH  20  21
ENDBRANCH   1  20
TORSDOF 7
