REMARK  Name = ZINC39444281
REMARK  6 active torsions:
REMARK  status: ('A' for Active; 'I' for Inactive)
REMARK    1  A    between atoms: N_9  and  C_28
REMARK    2  A    between atoms: C_10  and  C_13
REMARK    3  A    between atoms: C_13  and  S_14
REMARK    4  A    between atoms: S_14  and  C_15
REMARK    5  A    between atoms: C_19  and  C_21
REMARK    6  A    between atoms: C_28  and  C_29
REMARK                            x       y       z     vdW  Elec       q    Type
REMARK                         _______ _______ _______ _____ _____    ______ ____
ROOT
ATOM      1  C   UNL     1      -0.017   1.375   0.010  0.00  0.00    +0.001 A 
ATOM      2  C   UNL     1       1.168   2.095   0.002  0.00  0.00    +0.002 A 
ATOM      3  C   UNL     1       2.386   1.443  -0.018  0.00  0.00    +0.024 A 
ATOM      4  C   UNL     1       2.422   0.059  -0.028  0.00  0.00    +0.041 A 
ATOM      5  C   UNL     1       1.223  -0.674  -0.012  0.00  0.00    +0.058 A 
ATOM      6  C   UNL     1       0.002  -0.004   0.002  0.00  0.00    +0.015 A 
ATOM      7  C   UNL     1       1.296  -2.146   0.004  0.00  0.00    +0.250 C 
ATOM      8  O   UNL     1       0.290  -2.812  -0.146  0.00  0.00    -0.270 OA
ATOM      9  N   UNL     1       2.489  -2.748   0.187  0.00  0.00    -0.269 N 
ATOM     10  C   UNL     1       3.679  -1.977   0.545  0.00  0.00    +0.172 C 
ATOM     11  N   UNL     1       3.623  -0.642  -0.062  0.00  0.00    -0.324 N 
ATOM     12  H   UNL     1       4.408  -0.255  -0.480  0.00  0.00    +0.148 HD
ENDROOT
BRANCH  10  13
ATOM     13  C   UNL     1       3.752  -1.835   2.067  0.00  0.00    +0.115 C 
BRANCH  13  14
ATOM     14  S   UNL     1       2.270  -0.977   2.665  0.00  0.00    -0.108 S 
BRANCH  14  15
ATOM     15  C   UNL     1       2.508  -0.891   4.461  0.00  0.00    +0.280 C 
ATOM     16  N   UNL     1       2.675  -2.240   5.014  0.00  0.00    -0.253 NA
ATOM     17  C   UNL     1       3.840  -2.292   5.565  0.00  0.00    +0.136 C 
ATOM     18  C   UNL     1       4.521  -0.990   5.417  0.00  0.00    +0.087 C 
ATOM     19  N   UNL     1       3.746  -0.164   4.772  0.00  0.00    -0.245 NA
BRANCH  18  20
ATOM     20  C   UNL     1       5.875  -0.670   5.924  0.00  0.00    +0.002 A 
ATOM     21  C   UNL     1       6.414   0.602   5.729  0.00  0.00    +0.011 A 
ATOM     22  C   UNL     1       7.675   0.893   6.205  0.00  0.00    +0.016 A 
ATOM     23  C   UNL     1       8.407  -0.073   6.874  0.00  0.00    +0.018 A 
ATOM     24  C   UNL     1       7.877  -1.338   7.070  0.00  0.00    +0.016 A 
ATOM     25  C   UNL     1       6.614  -1.639   6.604  0.00  0.00    +0.011 A 
ATOM     26 BR   UNL     1      10.136   0.334   7.522  0.00  0.00    -0.050 Br
ENDBRANCH  18  20
ENDBRANCH  14  15
ENDBRANCH  13  14
ENDBRANCH  10  13
BRANCH   9  27
ATOM     27  C   UNL     1       2.594  -4.200   0.023  0.00  0.00    +0.205 C 
BRANCH  27  28
ATOM     28  C   UNL     1       2.930  -4.521  -1.410  0.00  0.00    +0.228 C 
ATOM     29  O   UNL     1       3.067  -3.626  -2.216  0.00  0.00    -0.274 OA
ATOM     30  N   UNL     1       3.077  -5.804  -1.796  0.00  0.00    -0.328 N 
ATOM     31  H   UNL     1       2.967  -6.521  -1.152  0.00  0.00    +0.145 HD
ATOM     32  H   UNL     1       3.293  -6.011  -2.719  0.00  0.00    +0.145 HD
ENDBRANCH  27  28
ENDBRANCH   9  27
TORSDOF 6
