REMARK  Name = ZINC01837099
REMARK  5 active torsions:
REMARK  status: ('A' for Active; 'I' for Inactive)
REMARK    1  A    between atoms: C_1  and  N_2
REMARK    2  A    between atoms: N_2  and  C_3
REMARK    3  A    between atoms: N_2  and  C_4
REMARK    4  A    between atoms: C_7  and  C_10
REMARK    5  A    between atoms: C_13  and  C_20
REMARK                            x       y       z     vdW  Elec       q    Type
REMARK                         _______ _______ _______ _____ _____    ______ ____
ROOT
ATOM      1  C   UNL     1      -0.006  -2.813  -4.924  0.00  0.00    +0.158 C 
ATOM      2  C   UNL     1      -1.442  -2.915  -5.406  0.00  0.00    +0.030 C 
ATOM      3  C   UNL     1      -1.730  -2.392  -6.613  0.00  0.00    +0.073 C 
ATOM      4  N   UNL     1      -0.780  -1.796  -7.376  0.00  0.00    -0.216 NA
ATOM      5  C   UNL     1       0.478  -1.672  -7.024  0.00  0.00    +0.227 C 
ATOM      6  N   UNL     1       0.940  -2.147  -5.830  0.00  0.00    -0.162 N 
ATOM      7  N   UNL     1       2.303  -1.862  -5.756  0.00  0.00    -0.055 NA
ATOM      8  N   UNL     1       2.659  -1.275  -6.785  0.00  0.00    -0.058 NA
ATOM      9  N   UNL     1       1.564  -1.114  -7.642  0.00  0.00    -0.187 N 
ATOM     10  H   UNL     1       1.574  -0.686  -8.512  0.00  0.00    +0.179 HD
ENDROOT
BRANCH   3  11
ATOM     11  C   UNL     1      -3.122  -2.471  -7.122  0.00  0.00    +0.000 A 
ATOM     12  C   UNL     1      -4.115  -3.075  -6.353  0.00  0.00    +0.011 A 
ATOM     13  C   UNL     1      -5.407  -3.146  -6.830  0.00  0.00    +0.016 A 
ATOM     14  C   UNL     1      -5.719  -2.619  -8.072  0.00  0.00    +0.018 A 
ATOM     15  C   UNL     1      -4.737  -2.018  -8.840  0.00  0.00    +0.016 A 
ATOM     16  C   UNL     1      -3.442  -1.937  -8.369  0.00  0.00    +0.011 A 
ATOM     17 BR   UNL     1      -7.492  -2.720  -8.721  0.00  0.00    -0.050 Br
ENDBRANCH   3  11
BRANCH   1  21
ATOM     18  C   UNL     1       0.000  -0.696  -1.211  0.00  0.00    +0.029 A 
ATOM     19  C   UNL     1       0.013  -2.085  -1.221  0.00  0.00    +0.023 A 
ATOM     20  C   UNL     1       0.010  -2.766  -2.422  0.00  0.00    +0.007 A 
ATOM     21  C   UNL     1      -0.005  -2.066  -3.615  0.00  0.00    -0.021 A 
ATOM     22  C   UNL     1      -0.018  -0.684  -3.609  0.00  0.00    +0.007 A 
ATOM     23  C   UNL     1      -0.021   0.004  -2.411  0.00  0.00    +0.023 A 
BRANCH  18  25
ATOM     24  C   UNL     1      -0.018   1.461   0.010  0.00  0.00    +0.129 C 
ATOM     25  N   UNL     1       0.002  -0.004   0.002  0.00  0.00    -0.336 N 
ATOM     26  C   UNL     1       0.024  -0.743   1.267  0.00  0.00    +0.129 C 
ENDBRANCH  18  25
ENDBRANCH   1  21
TORSDOF 3
