REMARK  Name = ZINC16009814
REMARK  3 active torsions:
REMARK  status: ('A' for Active; 'I' for Inactive)
REMARK    1  A    between atoms: C_7  and  C_11
REMARK    2  A    between atoms: C_11  and  C_12
REMARK    3  A    between atoms: N_20  and  C_23
REMARK                            x       y       z     vdW  Elec       q    Type
REMARK                         _______ _______ _______ _____ _____    ______ ____
ROOT
ATOM      1  C   UNL     1       0.236  -3.589  -1.455  0.00  0.00    +0.072 C 
ATOM      2  C   UNL     1      -0.651  -4.830  -1.503  0.00  0.00    +0.108 C 
ATOM      3  C   UNL     1       0.465  -5.892  -1.183  0.00  0.00    +0.123 C 
ATOM      4  C   UNL     1      -0.315  -7.052  -0.827  0.00  0.00    +0.233 C 
ATOM      5  O   UNL     1      -0.037  -8.216  -1.017  0.00  0.00    -0.274 OA
ATOM      6  N   UNL     1      -1.443  -6.548  -0.224  0.00  0.00    -0.207 N 
ATOM      7  C   UNL     1      -1.566  -5.178  -0.371  0.00  0.00    +0.232 C 
ATOM      8  O   UNL     1      -2.256  -4.419   0.274  0.00  0.00    -0.274 OA
ATOM      9  C   UNL     1       1.638  -5.477  -1.947  0.00  0.00    +0.136 C 
ATOM     10  N   UNL     1       1.410  -4.031  -2.288  0.00  0.00    -0.295 NA
ATOM     11  C   UNL     1       2.946  -5.592  -1.204  0.00  0.00    +0.003 A 
ATOM     12  C   UNL     1       3.385  -5.106   0.007  0.00  0.00    +0.008 A 
ATOM     13  C   UNL     1       4.672  -5.380   0.436  0.00  0.00    +0.000 A 
ATOM     14  C   UNL     1       5.513  -6.142  -0.354  0.00  0.00    +0.002 A 
ATOM     15  C   UNL     1       5.076  -6.631  -1.568  0.00  0.00    +0.023 A 
ATOM     16  C   UNL     1       3.781  -6.360  -2.007  0.00  0.00    +0.039 A 
ATOM     17  N   UNL     1       3.117  -6.735  -3.175  0.00  0.00    -0.283 N 
ATOM     18  C   UNL     1       1.860  -6.261  -3.220  0.00  0.00    +0.243 C 
ATOM     19  O   UNL     1       1.056  -6.430  -4.112  0.00  0.00    -0.273 OA
ATOM     20  H   UNL     1       1.216  -3.924  -3.272  0.00  0.00    +0.124 HD
ATOM     21  H   UNL     1       3.517  -7.275  -3.875  0.00  0.00    +0.155 HD
ENDROOT
BRANCH   6  22
ATOM     22  C   UNL     1      -2.380  -7.338   0.458  0.00  0.00    +0.079 A 
ATOM     23  C   UNL     1      -2.233  -7.571   1.818  0.00  0.00    +0.027 A 
ATOM     24  C   UNL     1      -3.158  -8.349   2.488  0.00  0.00    +0.002 A 
ATOM     25  C   UNL     1      -4.229  -8.896   1.806  0.00  0.00    +0.003 A 
ATOM     26  C   UNL     1      -4.379  -8.666   0.451  0.00  0.00    +0.040 A 
ATOM     27  C   UNL     1      -3.460  -7.884  -0.225  0.00  0.00    +0.145 A 
ATOM     28  F   UNL     1      -3.610  -7.654  -1.548  0.00  0.00    -0.204 F 
ENDBRANCH   6  22
BRANCH   1  29
ATOM     29  C   UNL     1       0.666  -3.275  -0.021  0.00  0.00    +0.056 C 
BRANCH  29  36
ATOM     30  C   UNL     1      -0.205   1.329   0.073  0.00  0.00    +0.001 A 
ATOM     31  C   UNL     1       0.951   2.099   0.064  0.00  0.00    +0.002 A 
ATOM     32  C   UNL     1       2.192   1.502   0.030  0.00  0.00    +0.026 A 
ATOM     33  C   UNL     1       2.291   0.115   0.005  0.00  0.00    +0.047 A 
ATOM     34  C   UNL     1       1.117  -0.660   0.014  0.00  0.00    +0.003 A 
ATOM     35  C   UNL     1      -0.131  -0.035   0.048  0.00  0.00    +0.010 A 
ATOM     36  C   UNL     1       1.555  -2.058  -0.018  0.00  0.00    -0.021 A 
ATOM     37  C   UNL     1       2.897  -2.049  -0.044  0.00  0.00    +0.087 A 
ATOM     38  N   UNL     1       3.354  -0.759  -0.031  0.00  0.00    -0.360 N 
ATOM     39  H   UNL     1       4.289  -0.500  -0.044  0.00  0.00    +0.165 HD
ENDBRANCH  29  36
ENDBRANCH   1  29
TORSDOF 3
