REMARK  Name = ZINC14925466
REMARK  6 active torsions:
REMARK  status: ('A' for Active; 'I' for Inactive)
REMARK    1  A    between atoms: C_1  and  C_2
REMARK    2  A    between atoms: C_2  and  C_4
REMARK    3  A    between atoms: C_2  and  N_48
REMARK    4  A    between atoms: N_6  and  C_7
REMARK    5  A    between atoms: N_17  and  C_20
REMARK    6  A    between atoms: C_25  and  N_26
REMARK                            x       y       z     vdW  Elec       q    Type
REMARK                         _______ _______ _______ _____ _____    ______ ____
ROOT
ATOM      1  C   UNL     1      -2.420  -2.832  -0.922  0.00  0.00    -0.059 C 
ATOM      2  C   UNL     1      -2.104  -4.328  -0.868  0.00  0.00    +0.086 C 
ATOM      3  N   UNL     1      -3.346  -5.095  -1.040  0.00  0.00    -0.332 N 
ATOM      4  C   UNL     1      -4.317  -4.763   0.012  0.00  0.00    +0.086 C 
ATOM      5  C   UNL     1      -4.633  -3.266  -0.043  0.00  0.00    -0.059 C 
ATOM      6  N   UNL     1      -3.379  -2.508   0.154  0.00  0.00    +0.389 N 
ATOM      7  H   UNL     1      -2.969  -2.770   1.058  0.00  0.00    -0.081 HD
ENDROOT
BRANCH   3   8
ATOM      8  C   UNL     1      -3.087  -6.468  -1.068  0.00  0.00    +0.060 A 
ATOM      9  C   UNL     1      -2.429  -7.073  -0.005  0.00  0.00    +0.027 A 
ATOM     10  C   UNL     1      -2.175  -8.430  -0.035  0.00  0.00    +0.022 A 
ATOM     11  C   UNL     1      -2.576  -9.187  -1.122  0.00  0.00    +0.043 A 
ATOM     12  C   UNL     1      -3.232  -8.586  -2.182  0.00  0.00    +0.054 A 
ATOM     13  C   UNL     1      -3.493  -7.230  -2.155  0.00  0.00    +0.148 A 
ATOM     14 CL   UNL     1      -2.255 -10.893  -1.156  0.00  0.00    -0.083 Cl
BRANCH  13  15
ATOM     15  N   UNL     1      -4.200  -6.590  -3.287  0.00  0.00    +0.058 N 
ATOM     16  O   UNL     1      -4.639  -7.272  -4.196  0.00  0.00    -0.126 OA
ATOM     17  O   UNL     1      -4.342  -5.380  -3.310  0.00  0.00    -0.126 OA
ENDBRANCH  13  15
ENDBRANCH   3   8
BRANCH   6  19
ATOM     18  C   UNL     1      -4.543  -0.679  -1.034  0.00  0.00    -0.004 C 
ATOM     19  C   UNL     1      -3.663  -1.056   0.159  0.00  0.00    +0.017 C 
BRANCH  19  20
ATOM     20  C   UNL     1      -4.375  -0.705   1.440  0.00  0.00    +0.203 C 
ATOM     21  O   UNL     1      -4.630  -1.572   2.249  0.00  0.00    -0.277 OA
ATOM     22  N   UNL     1      -4.728   0.572   1.686  0.00  0.00    -0.285 N 
ATOM     23  H   UNL     1      -4.584   1.254   1.012  0.00  0.00    +0.155 HD
BRANCH  22  24
ATOM     24  C   UNL     1      -5.304   0.915   2.916  0.00  0.00    +0.069 A 
ATOM     25  C   UNL     1      -6.120   0.008   3.579  0.00  0.00    +0.027 A 
ATOM     26  C   UNL     1      -6.681   0.346   4.795  0.00  0.00    +0.017 A 
ATOM     27  C   UNL     1      -6.436   1.589   5.351  0.00  0.00    +0.021 A 
ATOM     28  C   UNL     1      -5.628   2.498   4.691  0.00  0.00    +0.055 A 
ATOM     29  C   UNL     1      -5.063   2.165   3.474  0.00  0.00    +0.146 A 
ATOM     30  F   UNL     1      -4.274   3.053   2.829  0.00  0.00    -0.204 F 
ATOM     31 BR   UNL     1      -7.208   2.047   7.016  0.00  0.00    -0.050 Br
ENDBRANCH  22  24
ENDBRANCH  19  20
ENDBRANCH   6  19
TORSDOF 5
