REMARK  Name = ZINC11997813
REMARK  11 active torsions:
REMARK  status: ('A' for Active; 'I' for Inactive)
REMARK    1  A    between atoms: C_1  and  C_2
REMARK    2  A    between atoms: C_5  and  C_8
REMARK    3  A    between atoms: C_8  and  C_10
REMARK    4  A    between atoms: C_8  and  N_58
REMARK    5  A    between atoms: C_10  and  N_11
REMARK    6  A    between atoms: N_11  and  S_12
REMARK    7  A    between atoms: S_12  and  C_15
REMARK    8  A    between atoms: C_17  and  N_22
REMARK    9  A    between atoms: C_20  and  C_21
REMARK   10  A    between atoms: C_30  and  N_58
REMARK   11  A    between atoms: C_31  and  N_58
REMARK                            x       y       z     vdW  Elec       q    Type
REMARK                         _______ _______ _______ _____ _____    ______ ____
ROOT
ATOM      1  S   UNL     1       0.560   5.000  -0.880  0.00  0.00    +0.059 S 
ATOM      2  O   UNL     1      -0.124   5.075   0.363  0.00  0.00    -0.153 OA
ATOM      3  O   UNL     1       1.940   5.310  -1.010  0.00  0.00    -0.153 OA
ENDROOT
BRANCH   1   4
ATOM      4  C   UNL     1       0.356   3.352  -1.468  0.00  0.00    +0.110 A 
ATOM      5  C   UNL     1      -0.389   2.446  -0.738  0.00  0.00    +0.054 A 
ATOM      6  C   UNL     1      -0.549   1.147  -1.202  0.00  0.00    +0.061 A 
ATOM      7  C   UNL     1       0.042   0.763  -2.399  0.00  0.00    +0.025 A 
ATOM      8  C   UNL     1       0.790   1.671  -3.121  0.00  0.00    +0.007 A 
ATOM      9  C   UNL     1       0.943   2.966  -2.659  0.00  0.00    -0.024 A 
ATOM     10  C   UNL     1       1.756   3.956  -3.452  0.00  0.00    +0.046 C 
BRANCH   6  11
ATOM     11  N   UNL     1      -1.304   0.228  -0.466  0.00  0.00    -0.144 N 
ATOM     12  C   UNL     1      -2.280   0.525   0.406  0.00  0.00    +0.240 C 
ATOM     13  O   UNL     1      -2.607   1.677   0.600  0.00  0.00    -0.274 OA
ATOM     14  C   UNL     1      -2.958  -0.598   1.131  0.00  0.00    +0.122 C 
ATOM     15  C   UNL     1      -2.691  -1.919   0.363  0.00  0.00    +0.198 C 
ATOM     16  S   UNL     1      -1.145  -1.439  -0.511  0.00  0.00    +0.052 S 
ATOM     17  O   UNL     1      -1.209  -1.793  -1.886  0.00  0.00    -0.155 OA
ATOM     18  O   UNL     1      -0.002  -1.738   0.277  0.00  0.00    -0.155 OA
ENDBRANCH   6  11
ENDBRANCH   1   4
BRANCH   1  19
ATOM     19  N   UNL     1      -0.250   5.996  -1.926  0.00  0.00    -0.191 NA
ATOM     20  H   UNL     1       0.235   6.670  -2.428  0.00  0.00    +0.148 HD
BRANCH  19  21
ATOM     21  C   UNL     1      -1.699   5.860  -2.095  0.00  0.00    +0.095 C 
BRANCH  21  22
ATOM     22  C   UNL     1      -2.252   7.109  -2.784  0.00  0.00    -0.023 C 
BRANCH  22  27
ATOM     23  C   UNL     1      -7.913   6.440  -3.728  0.00  0.00    +0.044 C 
ATOM     24  C   UNL     1      -6.437   6.615  -3.482  0.00  0.00    -0.050 A 
ATOM     25  C   UNL     1      -5.976   7.728  -2.804  0.00  0.00    +0.003 A 
ATOM     26  C   UNL     1      -4.622   7.887  -2.578  0.00  0.00    +0.002 A 
ATOM     27  C   UNL     1      -3.728   6.934  -3.030  0.00  0.00    -0.060 A 
ATOM     28  C   UNL     1      -4.189   5.825  -3.714  0.00  0.00    +0.002 A 
ATOM     29  C   UNL     1      -5.543   5.662  -3.935  0.00  0.00    +0.003 A 
ENDBRANCH  22  27
BRANCH  22  32
ATOM     30  C   UNL     1      -1.209   6.019  -4.678  0.00  0.00    -0.096 C 
ATOM     31  C   UNL     1      -2.374   8.120  -4.981  0.00  0.00    -0.096 C 
ATOM     32  N   UNL     1      -1.537   7.321  -4.061  0.00  0.00    +0.381 N 
ATOM     33  H   UNL     1      -0.666   7.831  -3.874  0.00  0.00    -0.082 HD
ENDBRANCH  22  32
ENDBRANCH  21  22
ENDBRANCH  19  21
ENDBRANCH   1  19
TORSDOF 7
