REMARK  Name = ZINC33575021
REMARK  13 active torsions:
REMARK  status: ('A' for Active; 'I' for Inactive)
REMARK    1  A    between atoms: C_1  and  C_2
REMARK    2  A    between atoms: C_2  and  C_3
REMARK    3  A    between atoms: C_3  and  N_4
REMARK    4  A    between atoms: N_4  and  C_5
REMARK    5  A    between atoms: C_5  and  C_6
REMARK    6  A    between atoms: C_6  and  C_7
REMARK    7  A    between atoms: C_8  and  C_10
REMARK    8  A    between atoms: C_14  and  N_15
REMARK    9  A    between atoms: C_16  and  C_18
REMARK   10  A    between atoms: C_26  and  C_30
REMARK   11  A    between atoms: C_30  and  C_31
REMARK   12  A    between atoms: C_30  and  C_32
REMARK   13  A    between atoms: C_30  and  C_33
REMARK                            x       y       z     vdW  Elec       q    Type
REMARK                         _______ _______ _______ _____ _____    ______ ____
ROOT
ATOM      1  C   UNL     1       3.557  -5.040  -0.060  0.00  0.00    +0.069 A 
ATOM      2  C   UNL     1       3.308  -6.472  -0.065  0.00  0.00    -0.023 A 
ATOM      3  C   UNL     1       2.006  -6.830  -0.055  0.00  0.00    -0.004 A 
ATOM      4  S   UNL     1       1.116  -5.300  -0.031  0.00  0.00    -0.077 S 
ATOM      5  C   UNL     1       2.454  -4.198  -0.045  0.00  0.00    +0.085 A 
ATOM      6  C   UNL     1       1.451  -8.221  -0.058  0.00  0.00    +0.046 C 
ATOM      7  C   UNL     1       2.576  -9.189  -0.453  0.00  0.00    -0.000 C 
ATOM      8  C   UNL     1       3.823  -8.860   0.374  0.00  0.00    +0.009 C 
ATOM      9  C   UNL     1       4.411  -7.524  -0.081  0.00  0.00    +0.037 C 
ENDROOT
BRANCH   5  10
ATOM     10  N   UNL     1       2.428  -2.813  -0.037  0.00  0.00    -0.275 N 
ATOM     11  C   UNL     1       1.249  -2.161  -0.022  0.00  0.00    +0.249 C 
ATOM     12  O   UNL     1       0.208  -2.788  -0.016  0.00  0.00    -0.270 OA
ATOM     13  H   UNL     1       3.371  -2.245  -0.042  0.00  0.00    +0.156 HD
BRANCH  11  14
ATOM     14  C   UNL     1       1.222  -0.683  -0.013  0.00  0.00    +0.038 A 
ATOM     15  C   UNL     1       0.002  -0.004   0.002  0.00  0.00    +0.013 A 
ATOM     16  C   UNL     1      -0.017   1.375   0.010  0.00  0.00    +0.002 A 
ATOM     17  C   UNL     1       1.170   2.087   0.002  0.00  0.00    +0.015 A 
ATOM     18  C   UNL     1       2.383   1.420  -0.013  0.00  0.00    +0.019 A 
ATOM     19  C   UNL     1       2.416   0.040  -0.021  0.00  0.00    +0.028 A 
ATOM     20 BR   UNL     1       3.999   2.402  -0.023  0.00  0.00    -0.050 Br
ENDBRANCH  11  14
ENDBRANCH   5  10
BRANCH   7  21
ATOM     21  C   UNL     1       2.138 -10.627  -0.170  0.00  0.00    -0.035 C 
ATOM     22  C   UNL     1       0.882 -10.947  -0.984  0.00  0.00    +0.011 C 
ATOM     23  C   UNL     1       3.260 -11.589  -0.565  0.00  0.00    +0.011 C 
ATOM     24  C   UNL     1       1.833 -10.784   1.321  0.00  0.00    +0.011 C 
ENDBRANCH   7  21
BRANCH   1  26
ATOM     25  N   UNL     1       5.538  -4.254  -1.242  0.00  0.00    -0.297 N 
ATOM     26  C   UNL     1       4.922  -4.506  -0.070  0.00  0.00    +0.249 C 
ATOM     27  O   UNL     1       5.498  -4.289   0.980  0.00  0.00    -0.270 OA
BRANCH  25  28
ATOM     28  C   UNL     1       4.844  -4.515  -2.506  0.00  0.00    +0.108 C 
BRANCH  28  30
ATOM     29  C   UNL     1       3.352  -3.535  -4.253  0.00  0.00    +0.005 C 
ATOM     30  C   UNL     1       4.077  -3.262  -2.934  0.00  0.00    +0.016 C 
ENDBRANCH  28  30
ENDBRANCH  25  28
BRANCH  25  31
ATOM     31  C   UNL     1       6.902  -3.719  -1.252  0.00  0.00    +0.108 C 
BRANCH  31  32
ATOM     32  C   UNL     1       7.903  -4.876  -1.267  0.00  0.00    +0.016 C 
ATOM     33  C   UNL     1       9.328  -4.318  -1.278  0.00  0.00    +0.005 C 
ENDBRANCH  31  32
ENDBRANCH  25  31
ENDBRANCH   1  26
TORSDOF 8
