REMARK  Name = ZINC14382968
REMARK  9 active torsions:
REMARK  status: ('A' for Active; 'I' for Inactive)
REMARK    1  A    between atoms: C_1  and  C_2
REMARK    2  A    between atoms: C_10  and  C_11
REMARK    3  A    between atoms: C_11  and  C_12
REMARK    4  A    between atoms: N_14  and  C_15
REMARK    5  A    between atoms: N_14  and  C_22
REMARK    6  A    between atoms: C_15  and  C_16
REMARK    7  A    between atoms: C_23  and  N_38
REMARK    8  A    between atoms: N_24  and  C_31
REMARK    9  A    between atoms: C_31  and  C_32
REMARK                            x       y       z     vdW  Elec       q    Type
REMARK                         _______ _______ _______ _____ _____    ______ ____
ROOT
ATOM      1  C   UNL     1       3.564  -2.104  -1.929  0.00  0.00    +0.225 C 
ATOM      2  O   UNL     1       3.993  -2.438  -3.014  0.00  0.00    -0.275 OA
ATOM      3  N   UNL     1       3.837  -0.875  -1.445  0.00  0.00    -0.260 N 
ENDROOT
BRANCH   3   4
ATOM      4  C   UNL     1       4.702  -0.014  -2.153  0.00  0.00    +0.140 A 
ATOM      5  C   UNL     1       5.930   0.333  -1.629  0.00  0.00    +0.128 A 
ATOM      6  N   UNL     1       6.753   1.171  -2.344  0.00  0.00    -0.276 N 
ATOM      7  C   UNL     1       6.362   1.655  -3.537  0.00  0.00    +0.331 A 
ATOM      8  O   UNL     1       7.102   2.397  -4.152  0.00  0.00    -0.246 OA
ATOM      9  N   UNL     1       5.166   1.332  -4.061  0.00  0.00    -0.273 N 
ATOM     10  H   UNL     1       4.899   1.705  -4.950  0.00  0.00    +0.173 HD
ATOM     11  C   UNL     1       4.324   0.511  -3.403  0.00  0.00    +0.277 A 
ATOM     12  O   UNL     1       3.243   0.224  -3.888  0.00  0.00    -0.266 OA
BRANCH   5  13
ATOM     13  N   UNL     1       6.328  -0.157  -0.408  0.00  0.00    -0.343 N 
ATOM     14  H   UNL     1       5.775  -0.802   0.059  0.00  0.00    +0.144 HD
ATOM     15  H   UNL     1       7.162   0.143  -0.014  0.00  0.00    +0.144 HD
ENDBRANCH   5  13
BRANCH   6  16
ATOM     16  C   UNL     1       8.062   1.543  -1.802  0.00  0.00    +0.163 C 
BRANCH  16  17
ATOM     17  C   UNL     1       7.925   2.792  -0.969  0.00  0.00    -0.028 A 
ATOM     18  C   UNL     1       8.078   4.034  -1.555  0.00  0.00    +0.005 A 
ATOM     19  C   UNL     1       7.947   5.179  -0.792  0.00  0.00    +0.000 A 
ATOM     20  C   UNL     1       7.672   5.082   0.559  0.00  0.00    +0.000 A 
ATOM     21  C   UNL     1       7.524   3.839   1.146  0.00  0.00    +0.000 A 
ATOM     22  C   UNL     1       7.650   2.694   0.382  0.00  0.00    +0.005 A 
ENDBRANCH  16  17
ENDBRANCH   6  16
ENDBRANCH   3   4
BRANCH   1  23
ATOM     23  C   UNL     1       2.727  -3.063  -1.123  0.00  0.00    +0.135 C 
BRANCH  23  33
ATOM     24  C   UNL     1       5.058  -9.233  -3.110  0.00  0.00    +0.044 C 
ATOM     25  C   UNL     1       4.437  -7.908  -2.750  0.00  0.00    -0.047 A 
ATOM     26  C   UNL     1       5.112  -7.041  -1.904  0.00  0.00    +0.004 A 
ATOM     27  C   UNL     1       4.564  -5.834  -1.568  0.00  0.00    +0.012 A 
ATOM     28  C   UNL     1       3.318  -5.475  -2.079  0.00  0.00    +0.024 A 
ATOM     29  C   UNL     1       2.627  -6.350  -2.934  0.00  0.00    +0.135 A 
ATOM     30  C   UNL     1       3.201  -7.573  -3.260  0.00  0.00    +0.050 A 
ATOM     31  O   UNL     1       1.470  -5.749  -3.274  0.00  0.00    -0.463 OA
ATOM     32  C   UNL     1       1.367  -4.543  -2.689  0.00  0.00    +0.200 A 
ATOM     33  C   UNL     1       2.451  -4.299  -1.940  0.00  0.00    +0.007 A 
ENDBRANCH  23  33
ENDBRANCH   1  23
BRANCH   3  34
ATOM     34  C   UNL     1       3.234  -0.434  -0.185  0.00  0.00    +0.149 C 
BRANCH  34  35
ATOM     35  C   UNL     1       1.994   0.371  -0.475  0.00  0.00    -0.030 A 
ATOM     36  C   UNL     1       0.762  -0.253  -0.529  0.00  0.00    +0.005 A 
ATOM     37  C   UNL     1      -0.376   0.485  -0.795  0.00  0.00    +0.000 A 
ATOM     38  C   UNL     1      -0.282   1.848  -1.009  0.00  0.00    +0.000 A 
ATOM     39  C   UNL     1       0.950   2.472  -0.955  0.00  0.00    +0.000 A 
ATOM     40  C   UNL     1       2.088   1.734  -0.688  0.00  0.00    +0.005 A 
ENDBRANCH  34  35
ENDBRANCH   3  34
TORSDOF 8
