REMARK  Name = ZINC19827313
REMARK  4 active torsions:
REMARK  status: ('A' for Active; 'I' for Inactive)
REMARK    1  A    between atoms: C_1  and  C_2
REMARK    2  A    between atoms: C_6  and  C_8
REMARK    3  A    between atoms: C_11  and  C_16
REMARK    4  A    between atoms: C_18  and  C_22
REMARK                            x       y       z     vdW  Elec       q    Type
REMARK                         _______ _______ _______ _____ _____    ______ ____
ROOT
ATOM      1  C   UNL     1      -0.070   5.324   0.030  0.00  0.00    +0.132 A 
ATOM      2  N   UNL     1      -1.099   6.133   0.039  0.00  0.00    -0.155 NA
ATOM      3  N   UNL     1      -0.931   7.511   0.050  0.00  0.00    -0.184 N 
ATOM      4  C   UNL     1      -1.692   8.672   0.064  0.00  0.00    +0.203 A 
ATOM      5  N   UNL     1      -0.864   9.694   0.061  0.00  0.00    -0.125 NA
ATOM      6  N   UNL     1       0.352   9.272   0.048  0.00  0.00    -0.120 NA
ATOM      7  C   UNL     1       0.363   7.971   0.041  0.00  0.00    +0.219 A 
ATOM      8  S   UNL     1       1.304   6.465   0.023  0.00  0.00    -0.026 S 
ENDROOT
BRANCH   1  14
ATOM      9  C   UNL     1       2.490   1.041  -0.015  0.00  0.00    +0.044 C 
ATOM     10  C   UNL     1       1.178   1.781   0.000  0.00  0.00    -0.050 A 
ATOM     11  C   UNL     1      -0.013   1.076   0.008  0.00  0.00    +0.003 A 
ATOM     12  C   UNL     1      -1.221   1.748   0.017  0.00  0.00    +0.001 A 
ATOM     13  C   UNL     1      -1.247   3.128   0.030  0.00  0.00    +0.010 A 
ATOM     14  C   UNL     1      -0.050   3.844   0.022  0.00  0.00    +0.009 A 
ATOM     15  C   UNL     1       1.166   3.161   0.007  0.00  0.00    +0.014 A 
ENDBRANCH   1  14
BRANCH   4  16
ATOM     16  C   UNL     1      -3.163   8.746   0.078  0.00  0.00    +0.105 A 
ATOM     17  C   UNL     1      -3.927   9.859  -0.196  0.00  0.00    +0.061 A 
ATOM     18  C   UNL     1      -5.276   9.490  -0.069  0.00  0.00    +0.093 A 
ATOM     19  N   UNL     1      -5.329   8.217   0.265  0.00  0.00    -0.173 NA
ATOM     20  N   UNL     1      -4.023   7.723   0.359  0.00  0.00    -0.273 N 
ATOM     21  H   UNL     1      -3.629   6.725   0.603  0.00  0.00    +0.189 HD
BRANCH  18  22
ATOM     22  C   UNL     1      -6.444  10.382  -0.276  0.00  0.00    +0.002 A 
ATOM     23  C   UNL     1      -6.250  11.717  -0.624  0.00  0.00    +0.013 A 
ATOM     24  C   UNL     1      -7.338  12.542  -0.821  0.00  0.00    +0.039 A 
ATOM     25  C   UNL     1      -8.623  12.048  -0.662  0.00  0.00    +0.123 A 
ATOM     26  C   UNL     1      -8.820  10.722  -0.311  0.00  0.00    +0.039 A 
ATOM     27  C   UNL     1      -7.737   9.889  -0.118  0.00  0.00    +0.013 A 
ATOM     28  F   UNL     1      -9.685  12.860  -0.850  0.00  0.00    -0.205 F 
ENDBRANCH  18  22
ENDBRANCH   4  16
TORSDOF 3
