REMARK  Name = ZINC39747372
REMARK  9 active torsions:
REMARK  status: ('A' for Active; 'I' for Inactive)
REMARK    1  A    between atoms: C_1  and  C_2
REMARK    2  A    between atoms: C_2  and  C_3
REMARK    3  A    between atoms: C_2  and  C_4
REMARK    4  A    between atoms: C_4  and  C_6
REMARK    5  A    between atoms: C_4  and  N_16
REMARK    6  A    between atoms: C_17  and  C_19
REMARK    7  A    between atoms: C_19  and  S_20
REMARK    8  A    between atoms: S_20  and  C_21
REMARK    9  A    between atoms: C_25  and  C_27
REMARK                            x       y       z     vdW  Elec       q    Type
REMARK                         _______ _______ _______ _____ _____    ______ ____
ROOT
ATOM      1  N   UNL     1      -1.413  -1.998   0.005  0.00  0.00    -0.308 N 
ATOM      2  C   UNL     1      -1.292  -2.677   1.163  0.00  0.00    +0.224 C 
ATOM      3  O   UNL     1      -1.198  -2.075   2.212  0.00  0.00    -0.275 OA
ATOM      4  H   UNL     1      -1.488  -2.480  -0.834  0.00  0.00    +0.149 HD
ENDROOT
BRANCH   1   5
ATOM      5  C   UNL     1      -1.433  -0.534   0.013  0.00  0.00    +0.106 C 
BRANCH   5   6
ATOM      6  C   UNL     1      -2.162  -0.034  -1.208  0.00  0.00    -0.023 A 
ATOM      7  C   UNL     1      -1.981  -0.664  -2.425  0.00  0.00    +0.009 A 
ATOM      8  C   UNL     1      -2.647  -0.208  -3.547  0.00  0.00    +0.050 A 
ATOM      9  C   UNL     1      -3.499   0.882  -3.455  0.00  0.00    +0.162 A 
ATOM     10  C   UNL     1      -3.683   1.513  -2.231  0.00  0.00    +0.162 A 
ATOM     11  C   UNL     1      -3.015   1.048  -1.108  0.00  0.00    +0.055 A 
ATOM     12  O   UNL     1      -4.521   2.580  -2.116  0.00  0.00    -0.485 OA
ATOM     13  C   UNL     1      -4.887   3.244  -3.331  0.00  0.00    +0.270 C 
ATOM     14  C   UNL     1      -5.274   2.177  -4.364  0.00  0.00    +0.270 C 
ATOM     15  O   UNL     1      -4.144   1.322  -4.570  0.00  0.00    -0.485 OA
ENDBRANCH   5   6
BRANCH   5  17
ATOM     16  C   UNL     1      -0.019   1.526   0.010  0.00  0.00    +0.009 C 
ATOM     17  C   UNL     1       0.002  -0.004   0.002  0.00  0.00    +0.008 C 
ATOM     18  C   UNL     1       0.742  -0.511   1.242  0.00  0.00    +0.009 C 
ENDBRANCH   5  17
ENDBRANCH   1   5
BRANCH   2  19
ATOM     19  C   UNL     1      -1.271  -4.184   1.155  0.00  0.00    +0.170 C 
BRANCH  19  20
ATOM     20  S   UNL     1      -1.097  -4.796   2.853  0.00  0.00    -0.087 S 
BRANCH  20  21
ATOM     21  C   UNL     1      -1.090  -6.601   2.671  0.00  0.00    +0.339 C 
ATOM     22  N   UNL     1       0.010  -7.024   1.788  0.00  0.00    -0.219 N 
ATOM     23  N   UNL     1      -0.605  -7.660   0.701  0.00  0.00    -0.145 NA
ATOM     24  C   UNL     1      -1.903  -7.654   0.851  0.00  0.00    +0.238 C 
ATOM     25  O   UNL     1      -2.280  -7.042   2.003  0.00  0.00    -0.443 OA
ATOM     26  H   UNL     1       0.961  -6.889   1.929  0.00  0.00    +0.173 HD
BRANCH  24  27
ATOM     27  C   UNL     1      -2.801  -8.214  -0.068  0.00  0.00    +0.043 C 
ATOM     28  C   UNL     1      -2.489  -8.863  -1.264  0.00  0.00    +0.008 A 
ATOM     29  C   UNL     1      -1.264  -9.151  -1.901  0.00  0.00    +0.010 A 
ATOM     30  C   UNL     1      -1.260  -9.812  -3.087  0.00  0.00    +0.001 A 
ATOM     31  C   UNL     1      -2.446 -10.219  -3.701  0.00  0.00    +0.002 A 
ATOM     32  C   UNL     1      -3.659  -9.976  -3.146  0.00  0.00    +0.026 A 
ATOM     33  C   UNL     1      -3.743  -9.290  -1.907  0.00  0.00    +0.043 A 
ATOM     34  N   UNL     1      -4.780  -8.938  -1.173  0.00  0.00    -0.380 N 
ATOM     35  C   UNL     1      -4.310  -8.248   0.032  0.00  0.00    +0.154 C 
ATOM     36  H   UNL     1      -5.709  -9.112  -1.394  0.00  0.00    +0.160 HD
ENDBRANCH  24  27
ENDBRANCH  20  21
ENDBRANCH  19  20
ENDBRANCH   2  19
TORSDOF 7
