REMARK  Name = ZINC64188187
REMARK  6 active torsions:
REMARK  status: ('A' for Active; 'I' for Inactive)
REMARK    1  A    between atoms: C_4  and  C_7
REMARK    2  A    between atoms: C_7  and  C_9
REMARK    3  A    between atoms: C_7  and  N_18
REMARK    4  A    between atoms: C_19  and  C_21
REMARK    5  A    between atoms: C_21  and  C_22
REMARK    6  A    between atoms: C_22  and  C_23
REMARK                            x       y       z     vdW  Elec       q    Type
REMARK                         _______ _______ _______ _____ _____    ______ ____
ROOT
ATOM      1  C   UNL     1       3.711  -0.707  -0.038  0.00  0.00    +0.134 C 
ENDROOT
BRANCH   1   2
ATOM      2  C   UNL     1       4.044  -1.175   1.356  0.00  0.00    -0.021 A 
ATOM      3  C   UNL     1       3.450  -2.325   1.857  0.00  0.00    +0.008 A 
ATOM      4  C   UNL     1       3.739  -2.765   3.118  0.00  0.00    +0.030 A 
ATOM      5  C   UNL     1       4.640  -2.054   3.914  0.00  0.00    +0.089 A 
ATOM      6  C   UNL     1       5.241  -0.890   3.408  0.00  0.00    +0.066 A 
ATOM      7  C   UNL     1       4.940  -0.460   2.122  0.00  0.00    +0.033 A 
ATOM      8  N   UNL     1       6.066  -0.420   4.410  0.00  0.00    -0.344 N 
ATOM      9  C   UNL     1       5.952  -1.275   5.462  0.00  0.00    +0.197 A 
ATOM     10  N   UNL     1       5.119  -2.231   5.173  0.00  0.00    -0.236 NA
ATOM     11  H   UNL     1       6.624   0.373   4.371  0.00  0.00    +0.167 HD
ENDBRANCH   1   2
BRANCH   1  15
ATOM     12  C   UNL     1      -0.017   1.378   0.010  0.00  0.00    +0.000 A 
ATOM     13  C   UNL     1       1.171   2.086   0.002  0.00  0.00    +0.000 A 
ATOM     14  C   UNL     1       2.377   1.411  -0.013  0.00  0.00    +0.006 A 
ATOM     15  C   UNL     1       2.396   0.029  -0.020  0.00  0.00    -0.023 A 
ATOM     16  C   UNL     1       1.208  -0.679  -0.012  0.00  0.00    +0.006 A 
ATOM     17  C   UNL     1       0.002  -0.004   0.002  0.00  0.00    +0.000 A 
ENDBRANCH   1  15
BRANCH   1  18
ATOM     18  N   UNL     1       3.611  -1.865  -0.930  0.00  0.00    -0.304 N 
ATOM     19  C   UNL     1       3.825  -1.716  -2.253  0.00  0.00    +0.214 C 
ATOM     20  O   UNL     1       4.099  -0.624  -2.704  0.00  0.00    -0.276 OA
ATOM     21  H   UNL     1       3.392  -2.738  -0.569  0.00  0.00    +0.150 HD
BRANCH  19  22
ATOM     22  C   UNL     1       3.722  -2.906  -3.171  0.00  0.00    +0.098 C 
BRANCH  22  23
ATOM     23  C   UNL     1       4.007  -2.468  -4.609  0.00  0.00    +0.043 C 
BRANCH  23  24
ATOM     24  C   UNL     1       3.903  -3.676  -5.541  0.00  0.00    +0.134 C 
ATOM     25  N   UNL     1       4.250  -3.311  -6.921  0.00  0.00    -0.331 N 
ATOM     26  C   UNL     1       5.353  -3.940  -7.497  0.00  0.00    +0.042 A 
ATOM     27  C   UNL     1       5.832  -3.720  -8.800  0.00  0.00    +0.024 A 
ATOM     28  C   UNL     1       6.932  -4.393  -9.278  0.00  0.00    +0.002 A 
ATOM     29  C   UNL     1       7.605  -5.311  -8.492  0.00  0.00    +0.001 A 
ATOM     30  C   UNL     1       7.155  -5.548  -7.203  0.00  0.00    +0.016 A 
ATOM     31  C   UNL     1       6.053  -4.873  -6.727  0.00  0.00    +0.030 A 
ATOM     32  S   UNL     1       5.205  -4.917  -5.163  0.00  0.00    -0.101 S 
ATOM     33  H   UNL     1       3.730  -2.656  -7.413  0.00  0.00    +0.147 HD
ENDBRANCH  23  24
ENDBRANCH  22  23
ENDBRANCH  19  22
ENDBRANCH   1  18
TORSDOF 6
