REMARK  Name = ZINC36647947
REMARK  10 active torsions:
REMARK  status: ('A' for Active; 'I' for Inactive)
REMARK    1  A    between atoms: C_1  and  C_2
REMARK    2  A    between atoms: C_2  and  N_3
REMARK    3  A    between atoms: N_3  and  C_4
REMARK    4  A    between atoms: N_3  and  C_6
REMARK    5  A    between atoms: C_4  and  C_5
REMARK    6  A    between atoms: C_6  and  C_7
REMARK    7  A    between atoms: C_7  and  N_8
REMARK    8  A    between atoms: C_19  and  C_21
REMARK    9  A    between atoms: N_26  and  S_28
REMARK   10  A    between atoms: S_28  and  C_31
REMARK                            x       y       z     vdW  Elec       q    Type
REMARK                         _______ _______ _______ _____ _____    ______ ____
ROOT
ATOM      1  N   UNL     1      -2.136  -4.165   0.095  0.00  0.00    -0.252 N 
ATOM      2  C   UNL     1      -2.248  -4.803   1.320  0.00  0.00    +0.168 A 
ATOM      3  N   UNL     1      -2.063  -4.312   2.523  0.00  0.00    -0.224 NA
ATOM      4  C   UNL     1      -2.209  -5.056   3.641  0.00  0.00    +0.080 A 
ATOM      5  C   UNL     1      -2.040  -4.653   4.986  0.00  0.00    +0.032 A 
ATOM      6  C   UNL     1      -2.227  -5.541   6.013  0.00  0.00    +0.040 A 
ATOM      7  C   UNL     1      -2.587  -6.862   5.773  0.00  0.00    +0.125 A 
ATOM      8  C   UNL     1      -2.761  -7.290   4.468  0.00  0.00    +0.055 A 
ATOM      9  C   UNL     1      -2.576  -6.406   3.435  0.00  0.00    +0.043 A 
ATOM     10  S   UNL     1      -2.690  -6.500   1.664  0.00  0.00    -0.052 S 
ATOM     11  F   UNL     1      -2.764  -7.719   6.803  0.00  0.00    -0.205 F 
ATOM     12  C   UNL     1      -2.375  -4.846  -1.044  0.00  0.00    +0.226 C 
ATOM     13  O   UNL     1      -2.795  -5.983  -0.994  0.00  0.00    -0.275 OA
ENDROOT
BRANCH  12  14
ATOM     14  C   UNL     1      -2.120  -4.196  -2.379  0.00  0.00    +0.091 C 
ATOM     15  C   UNL     1      -3.284  -3.264  -2.724  0.00  0.00    +0.015 C 
ATOM     16  C   UNL     1      -3.010  -2.578  -4.064  0.00  0.00    +0.018 C 
ATOM     17  C   UNL     1      -2.898  -3.639  -5.163  0.00  0.00    +0.109 C 
ATOM     18  N   UNL     1      -1.880  -4.622  -4.769  0.00  0.00    -0.175 NA
ATOM     19  C   UNL     1      -1.997  -5.275  -3.459  0.00  0.00    +0.122 C 
BRANCH  18  20
ATOM     20  S   UNL     1      -0.623  -4.987  -5.784  0.00  0.00    +0.067 S 
ATOM     21  O   UNL     1      -0.171  -6.284  -5.421  0.00  0.00    -0.152 OA
ATOM     22  O   UNL     1      -1.058  -4.673  -7.100  0.00  0.00    -0.152 OA
BRANCH  20  23
ATOM     23  C   UNL     1       0.690  -3.873  -5.409  0.00  0.00    +0.143 A 
ATOM     24  C   UNL     1       1.704  -4.017  -4.521  0.00  0.00    +0.036 A 
ATOM     25  C   UNL     1       2.632  -3.001  -4.393  0.00  0.00    +0.010 A 
ATOM     26  C   UNL     1       2.501  -1.891  -5.159  0.00  0.00    +0.047 A 
ATOM     27  S   UNL     1       1.034  -2.265  -6.104  0.00  0.00    -0.077 S 
ENDBRANCH  20  23
ENDBRANCH  18  20
ENDBRANCH  12  14
BRANCH   1  28
ATOM     28  C   UNL     1      -1.757  -2.752   0.036  0.00  0.00    +0.097 C 
BRANCH  28  29
ATOM     29  C   UNL     1      -0.232  -2.634  -0.009  0.00  0.00    -0.059 C 
BRANCH  29  30
ATOM     30  N   UNL     1       0.146  -1.223  -0.167  0.00  0.00    +0.380 N 
ATOM     31  H   UNL     1      -0.284  -0.851  -1.000  0.00  0.00    -0.082 HD
BRANCH  30  33
ATOM     32  C   UNL     1      -0.030   1.028   0.783  0.00  0.00    -0.017 C 
ATOM     33  C   UNL     1      -0.311  -0.460   1.002  0.00  0.00    -0.082 C 
ENDBRANCH  30  33
BRANCH  30  34
ATOM     34  C   UNL     1       1.606  -1.117  -0.281  0.00  0.00    -0.082 C 
ATOM     35  C   UNL     1       2.064  -1.755  -1.594  0.00  0.00    -0.017 C 
ENDBRANCH  30  34
ENDBRANCH  29  30
ENDBRANCH  28  29
ENDBRANCH   1  28
TORSDOF 8
