REMARK  Name = ZINC45637932
REMARK  9 active torsions:
REMARK  status: ('A' for Active; 'I' for Inactive)
REMARK    1  A    between atoms: C_1  and  C_2
REMARK    2  A    between atoms: C_2  and  C_3
REMARK    3  A    between atoms: C_8  and  O_9
REMARK    4  A    between atoms: O_9  and  C_10
REMARK    5  A    between atoms: C_10  and  C_11
REMARK    6  A    between atoms: C_11  and  O_13
REMARK    7  A    between atoms: O_13  and  C_14
REMARK    8  A    between atoms: C_14  and  C_15
REMARK    9  A    between atoms: C_26  and  C_28
REMARK                            x       y       z     vdW  Elec       q    Type
REMARK                         _______ _______ _______ _____ _____    ______ ____
ROOT
ATOM      1  C   UNL     1      -5.520   0.116   4.668  0.00  0.00    +0.328 C 
ENDROOT
BRANCH   1   2
ATOM      2  C   UNL     1      -6.217   0.283   5.993  0.00  0.00    +0.258 C 
ATOM      3  O   UNL     1      -5.592   0.166   7.026  0.00  0.00    -0.272 OA
ATOM      4  N   UNL     1      -7.535   0.562   6.031  0.00  0.00    -0.266 N 
ATOM      5  C   UNL     1      -8.229   0.558   7.249  0.00  0.00    +0.040 A 
ATOM      6  C   UNL     1      -7.628  -0.004   8.370  0.00  0.00    +0.024 A 
ATOM      7  C   UNL     1      -8.294  -0.014   9.579  0.00  0.00    +0.002 A 
ATOM      8  C   UNL     1      -9.559   0.536   9.674  0.00  0.00    +0.000 A 
ATOM      9  C   UNL     1     -10.159   1.093   8.562  0.00  0.00    +0.005 A 
ATOM     10  C   UNL     1      -9.499   1.106   7.344  0.00  0.00    -0.026 A 
ATOM     11  C   UNL     1     -10.185   1.713   6.150  0.00  0.00    +0.039 C 
ATOM     12  C   UNL     1      -9.162   2.090   5.079  0.00  0.00    +0.027 C 
ATOM     13  C   UNL     1      -8.267   0.881   4.798  0.00  0.00    +0.079 C 
ATOM     14  C   UNL     1      -7.277   1.218   3.681  0.00  0.00    +0.028 C 
ENDBRANCH   1   2
BRANCH   1  15
ATOM     15  O   UNL     1      -4.184  -0.342   4.886  0.00  0.00    -0.453 OA
BRANCH  15  16
ATOM     16  C   UNL     1      -3.423  -0.542   3.799  0.00  0.00    +0.346 C 
ATOM     17  O   UNL     1      -3.876  -0.336   2.698  0.00  0.00    -0.247 OA
BRANCH  16  18
ATOM     18  C   UNL     1      -2.003  -1.024   3.951  0.00  0.00    +0.349 C 
BRANCH  18  19
ATOM     19  O   UNL     1      -1.405  -1.160   2.660  0.00  0.00    -0.481 OA
BRANCH  19  25
ATOM     20  C   UNL     1       0.526  -1.743   1.400  0.00  0.00    -0.006 A 
ATOM     21  C   UNL     1       1.838  -2.173   1.361  0.00  0.00    +0.007 A 
ATOM     22  C   UNL     1       2.509  -2.456   2.537  0.00  0.00    +0.000 A 
ATOM     23  C   UNL     1       1.869  -2.308   3.753  0.00  0.00    +0.004 A 
ATOM     24  C   UNL     1       0.557  -1.878   3.797  0.00  0.00    +0.046 A 
ATOM     25  C   UNL     1      -0.117  -1.589   2.619  0.00  0.00    +0.124 A 
BRANCH  20  27
ATOM     26  C   UNL     1      -0.100   0.061  -0.182  0.00  0.00    +0.009 C 
ATOM     27  C   UNL     1      -0.205  -1.435   0.118  0.00  0.00    +0.035 C 
ENDBRANCH  20  27
ENDBRANCH  19  25
ENDBRANCH  18  19
ENDBRANCH  16  18
ENDBRANCH  15  16
ENDBRANCH   1  15
TORSDOF 7
