REMARK  Name = ZINC28290370
REMARK  11 active torsions:
REMARK  status: ('A' for Active; 'I' for Inactive)
REMARK    1  A    between atoms: C_1  and  C_2
REMARK    2  A    between atoms: C_9  and  C_14
REMARK    3  A    between atoms: C_12  and  C_13
REMARK    4  A    between atoms: N_16  and  C_17
REMARK    5  A    between atoms: C_17  and  C_18
REMARK    6  A    between atoms: C_18  and  C_20
REMARK    7  A    between atoms: C_18  and  N_30
REMARK    8  A    between atoms: C_23  and  C_26
REMARK    9  A    between atoms: C_26  and  C_27
REMARK   10  A    between atoms: C_26  and  C_28
REMARK   11  A    between atoms: C_26  and  C_29
REMARK                            x       y       z     vdW  Elec       q    Type
REMARK                         _______ _______ _______ _____ _____    ______ ____
ROOT
ATOM      1  C   UNL     1       0.551   1.108  -0.421  0.00  0.00    +0.094 C 
ENDROOT
BRANCH   1   4
ATOM      2  C   UNL     1       0.547  -1.026  -1.597  0.00  0.00    +0.279 C 
ATOM      3  O   UNL     1      -0.638  -1.127  -1.349  0.00  0.00    -0.267 OA
ATOM      4  N   UNL     1       1.234   0.055  -1.177  0.00  0.00    -0.310 N 
ATOM      5  H   UNL     1       2.307   0.146  -1.401  0.00  0.00    +0.149 HD
BRANCH   2  14
ATOM      6  C   UNL     1       6.805  -3.393  -4.505  0.00  0.00    +0.044 C 
ATOM      7  C   UNL     1       5.336  -3.612  -4.249  0.00  0.00    -0.044 A 
ATOM      8  C   UNL     1       4.720  -4.761  -4.724  0.00  0.00    +0.004 A 
ATOM      9  C   UNL     1       3.388  -4.975  -4.502  0.00  0.00    +0.015 A 
ATOM     10  C   UNL     1       2.647  -4.032  -3.791  0.00  0.00    +0.064 A 
ATOM     11  C   UNL     1       1.208  -4.225  -3.529  0.00  0.00    +0.193 A 
ATOM     12  O   UNL     1       0.615  -5.214  -3.922  0.00  0.00    -0.287 OA
ATOM     13  C   UNL     1       0.523  -3.167  -2.770  0.00  0.00    +0.103 A 
ATOM     14  C   UNL     1       1.238  -2.092  -2.361  0.00  0.00    +0.193 A 
ATOM     15  O   UNL     1       2.546  -1.951  -2.625  0.00  0.00    -0.450 OA
ATOM     16  C   UNL     1       3.263  -2.865  -3.306  0.00  0.00    +0.143 A 
ATOM     17  C   UNL     1       4.620  -2.668  -3.545  0.00  0.00    -0.005 A 
ATOM     18  C   UNL     1       5.303  -1.426  -3.036  0.00  0.00    +0.048 C 
ENDBRANCH   2  14
ENDBRANCH   1   4
BRANCH   1  19
ATOM     19  C   UNL     1       1.579   2.124   0.081  0.00  0.00    -0.020 C 
BRANCH  19  20
ATOM     20  C   UNL     1       0.865   3.321   0.653  0.00  0.00    -0.059 A 
ATOM     21  C   UNL     1       0.159   3.205   1.836  0.00  0.00    +0.002 A 
ATOM     22  C   UNL     1      -0.492   4.304   2.363  0.00  0.00    +0.004 A 
ATOM     23  C   UNL     1      -0.447   5.517   1.701  0.00  0.00    -0.042 A 
ATOM     24  C   UNL     1       0.254   5.632   0.515  0.00  0.00    +0.004 A 
ATOM     25  C   UNL     1       0.909   4.534  -0.009  0.00  0.00    +0.002 A 
BRANCH  23  26
ATOM     26  C   UNL     1      -1.163   6.714   2.273  0.00  0.00    -0.013 C 
ATOM     27  C   UNL     1      -2.209   7.209   1.272  0.00  0.00    +0.015 C 
ATOM     28  C   UNL     1      -1.854   6.320   3.579  0.00  0.00    +0.015 C 
ATOM     29  C   UNL     1      -0.152   7.830   2.547  0.00  0.00    +0.015 C 
ENDBRANCH  23  26
ENDBRANCH  19  20
BRANCH  19  30
ATOM     30  N   UNL     1       2.410   1.506   1.123  0.00  0.00    +0.385 N 
ATOM     31  C   UNL     1       3.217   0.389   0.568  0.00  0.00    -0.078 C 
ATOM     32  C   UNL     1       4.358   0.227   1.603  0.00  0.00    -0.020 C 
ATOM     33  C   UNL     1       4.661   1.687   2.015  0.00  0.00    -0.020 C 
ATOM     34  C   UNL     1       3.384   2.475   1.669  0.00  0.00    -0.078 C 
ATOM     35  H   UNL     1       1.710   1.159   1.897  0.00  0.00    -0.081 HD
ENDBRANCH  19  30
ENDBRANCH   1  19
TORSDOF 6
