REMARK  Name = ZINC09471303
REMARK  7 active torsions:
REMARK  status: ('A' for Active; 'I' for Inactive)
REMARK    1  A    between atoms: C_1  and  C_2
REMARK    2  A    between atoms: C_7  and  C_12
REMARK    3  A    between atoms: C_12  and  C_13
REMARK    4  A    between atoms: C_14  and  C_29
REMARK    5  A    between atoms: N_16  and  C_21
REMARK    6  A    between atoms: C_21  and  C_22
REMARK    7  A    between atoms: C_22  and  C_23
REMARK                            x       y       z     vdW  Elec       q    Type
REMARK                         _______ _______ _______ _____ _____    ______ ____
ROOT
ATOM      1  C   UNL     1       7.404  -1.421  -0.405  0.00  0.00    +0.076 C 
ATOM      2  C   UNL     1       7.299  -1.264   1.094  0.00  0.00    +0.145 C 
ATOM      3  N   UNL     1       8.677  -1.196   1.596  0.00  0.00    -0.283 N 
ATOM      4  C   UNL     1       9.506  -1.298   0.541  0.00  0.00    +0.288 C 
ATOM      5  O   UNL     1      10.720  -1.278   0.605  0.00  0.00    -0.266 OA
ATOM      6  C   UNL     1       8.724  -1.444  -0.704  0.00  0.00    +0.249 C 
ATOM      7  O   UNL     1       9.245  -1.577  -1.946  0.00  0.00    -0.282 OA
ENDROOT
BRANCH   2   8
ATOM      8  C   UNL     1       6.588  -2.452   1.690  0.00  0.00    -0.021 A 
ATOM      9  C   UNL     1       7.215  -3.683   1.732  0.00  0.00    +0.006 A 
ATOM     10  C   UNL     1       6.564  -4.773   2.279  0.00  0.00    +0.001 A 
ATOM     11  C   UNL     1       5.285  -4.631   2.785  0.00  0.00    +0.015 A 
ATOM     12  C   UNL     1       4.658  -3.400   2.744  0.00  0.00    +0.018 A 
ATOM     13  C   UNL     1       5.312  -2.308   2.201  0.00  0.00    +0.021 A 
ATOM     14 BR   UNL     1       2.908  -3.206   3.434  0.00  0.00    -0.050 Br
ENDBRANCH   2   8
BRANCH   1  15
ATOM     15  C   UNL     1       6.291  -1.534  -1.353  0.00  0.00    +0.195 C 
ATOM     16  O   UNL     1       6.121  -2.567  -1.972  0.00  0.00    -0.287 OA
BRANCH  15  22
ATOM     17  C   UNL     1       2.897   3.022  -4.667  0.00  0.00    +0.052 C 
ATOM     18  C   UNL     1       2.128   2.336  -3.535  0.00  0.00    +0.175 C 
ATOM     19  C   UNL     1       2.312   0.801  -3.599  0.00  0.00    +0.083 C 
ATOM     20  C   UNL     1       3.497   0.589  -2.676  0.00  0.00    -0.002 A 
ATOM     21  C   UNL     1       4.341  -0.477  -2.493  0.00  0.00    +0.019 A 
ATOM     22  C   UNL     1       5.377  -0.393  -1.556  0.00  0.00    +0.023 A 
ATOM     23  C   UNL     1       5.539   0.781  -0.814  0.00  0.00    +0.015 A 
ATOM     24  C   UNL     1       4.685   1.842  -1.003  0.00  0.00    +0.046 A 
ATOM     25  C   UNL     1       3.649   1.758  -1.935  0.00  0.00    +0.124 A 
ATOM     26  O   UNL     1       2.692   2.676  -2.257  0.00  0.00    -0.488 OA
ENDBRANCH  15  22
ENDBRANCH   1  15
BRANCH   3  27
ATOM     27  C   UNL     1       9.077  -1.044   2.997  0.00  0.00    +0.114 C 
BRANCH  27  28
ATOM     28  C   UNL     1       9.232  -2.426   3.635  0.00  0.00    +0.054 C 
BRANCH  28  29
ATOM     29  C   UNL     1       9.644  -2.269   5.077  0.00  0.00    -0.046 A 
ATOM     30  C   UNL     1      10.985  -2.213   5.410  0.00  0.00    +0.004 A 
ATOM     31  C   UNL     1      11.363  -2.070   6.732  0.00  0.00    +0.000 A 
ATOM     32  C   UNL     1      10.400  -1.982   7.720  0.00  0.00    +0.000 A 
ATOM     33  C   UNL     1       9.060  -2.036   7.387  0.00  0.00    +0.000 A 
ATOM     34  C   UNL     1       8.682  -2.176   6.064  0.00  0.00    +0.004 A 
ENDBRANCH  28  29
ENDBRANCH  27  28
ENDBRANCH   3  27
TORSDOF 6
