REMARK  Name = ZINC05231370
REMARK  4 active torsions:
REMARK  status: ('A' for Active; 'I' for Inactive)
REMARK    1  A    between atoms: C_1  and  C_2
REMARK    2  A    between atoms: C_2  and  C_28
REMARK    3  A    between atoms: C_6  and  C_20
REMARK    4  A    between atoms: N_11  and  N_16
REMARK                            x       y       z     vdW  Elec       q    Type
REMARK                         _______ _______ _______ _____ _____    ______ ____
ROOT
ATOM      1  C   UNL     1       2.718  10.581  -1.570  0.00  0.00    +0.012 C 
ATOM      2  C   UNL     1       2.527  10.650  -0.054  0.00  0.00    -0.021 C 
ATOM      3  C   UNL     1       1.381   9.726   0.362  0.00  0.00    +0.081 C 
ATOM      4  C   UNL     1       1.716   8.301  -0.015  0.00  0.00    +0.115 C 
ATOM      5  C   UNL     1       2.993   7.877  -0.025  0.00  0.00    +0.046 C 
ATOM      6  C   UNL     1       3.324   6.450  -0.390  0.00  0.00    +0.101 C 
ATOM      7  C   UNL     1       2.100   5.588  -0.275  0.00  0.00    +0.068 A 
ATOM      8  C   UNL     1       2.225   4.182  -0.183  0.00  0.00    +0.133 A 
ATOM      9  N   UNL     1       3.409   3.606  -0.198  0.00  0.00    -0.383 N 
ATOM     10  N   UNL     1       1.071   3.430  -0.083  0.00  0.00    -0.231 N 
ATOM     11  C   UNL     1      -0.132   4.058  -0.061  0.00  0.00    +0.224 A 
ATOM     12  N   UNL     1      -0.227   5.354  -0.141  0.00  0.00    -0.201 NA
ATOM     13  C   UNL     1       0.857   6.144  -0.251  0.00  0.00    +0.229 A 
ATOM     14  O   UNL     1       0.701   7.481  -0.341  0.00  0.00    -0.441 OA
ATOM     15  C   UNL     1       4.055   8.742   0.299  0.00  0.00    +0.164 C 
ATOM     16  O   UNL     1       5.193   8.316   0.298  0.00  0.00    -0.292 OA
ATOM     17  C   UNL     1       3.807  10.184   0.649  0.00  0.00    +0.086 C 
ATOM     18  C   UNL     1       2.203  12.088   0.358  0.00  0.00    +0.012 C 
ATOM     19  H   UNL     1       3.489   2.512  -0.126  0.00  0.00    +0.157 HD
ATOM     20  H   UNL     1       4.319   4.220  -0.283  0.00  0.00    +0.157 HD
ENDROOT
BRANCH  10  21
ATOM     21  N   UNL     1       1.142   2.033   0.002  0.00  0.00    -0.204 N 
ATOM     22  C   UNL     1       0.145   1.342   0.590  0.00  0.00    +0.315 C 
ATOM     23  O   UNL     1      -0.766   1.935   1.135  0.00  0.00    -0.251 OA
ATOM     24  N   UNL     1       0.156  -0.005   0.570  0.00  0.00    -0.312 N 
ATOM     25  H   UNL     1       2.011   1.500  -0.411  0.00  0.00    +0.177 HD
ATOM     26  H   UNL     1      -0.658  -0.569   1.050  0.00  0.00    +0.147 HD
ATOM     27  H   UNL     1       0.978  -0.541   0.073  0.00  0.00    +0.147 HD
ENDBRANCH  10  21
BRANCH   6  28
ATOM     28  C   UNL     1       3.836   6.403  -1.806  0.00  0.00    +0.002 A 
ATOM     29  C   UNL     1       5.043   5.987  -2.264  0.00  0.00    +0.012 A 
ATOM     30  C   UNL     1       5.296   6.033  -3.623  0.00  0.00    +0.008 A 
ATOM     31  C   UNL     1       4.331   6.492  -4.456  0.00  0.00    +0.045 A 
ATOM     32  S   UNL     1       3.010   6.873  -3.317  0.00  0.00    -0.101 S 
ENDBRANCH   6  28
TORSDOF 2
