REMARK  Name = ZINC00633684
REMARK  4 active torsions:
REMARK  status: ('A' for Active; 'I' for Inactive)
REMARK    1  A    between atoms: C_4  and  C_7
REMARK    2  A    between atoms: C_7  and  C_9
REMARK    3  A    between atoms: C_14  and  N_15
REMARK    4  A    between atoms: C_16  and  C_18
REMARK                            x       y       z     vdW  Elec       q    Type
REMARK                         _______ _______ _______ _____ _____    ______ ____
ROOT
ATOM      1  C   UNL     1       3.806   1.746   0.029  0.00  0.00    +0.045 A 
ATOM      2  C   UNL     1       3.896   3.139   0.115  0.00  0.00    +0.033 A 
ATOM      3  C   UNL     1       5.133   3.747   0.152  0.00  0.00    +0.042 A 
ATOM      4  C   UNL     1       6.290   2.984   0.095  0.00  0.00    +0.022 A 
ATOM      5  C   UNL     1       6.217   1.609   0.005  0.00  0.00    +0.025 A 
ATOM      6  C   UNL     1       4.980   0.978  -0.029  0.00  0.00    +0.044 A 
ATOM      7 CL   UNL     1       5.243   5.475   0.266  0.00  0.00    -0.084 Cl
ENDROOT
BRANCH   6   8
ATOM      8  N   UNL     1       4.904  -0.409  -0.121  0.00  0.00    -0.282 N 
ATOM      9  C   UNL     1       5.923  -1.105  -0.664  0.00  0.00    +0.261 C 
ATOM     10  O   UNL     1       6.857  -0.519  -1.169  0.00  0.00    -0.271 OA
ATOM     11  H   UNL     1       4.119  -0.875   0.206  0.00  0.00    +0.155 HD
BRANCH   9  12
ATOM     12  C   UNL     1       5.901  -2.612  -0.643  0.00  0.00    +0.296 C 
ATOM     13  C   UNL     1       4.745  -3.125  -1.513  0.00  0.00    +0.283 C 
ATOM     14  O   UNL     1       4.763  -4.556  -1.483  0.00  0.00    -0.484 OA
ATOM     15  C   UNL     1       5.971  -5.157  -1.661  0.00  0.00    +0.162 A 
ATOM     16  C   UNL     1       6.019  -6.502  -1.999  0.00  0.00    +0.049 A 
ATOM     17  C   UNL     1       7.238  -7.127  -2.181  0.00  0.00    +0.004 A 
ATOM     18  C   UNL     1       8.412  -6.415  -2.026  0.00  0.00    +0.004 A 
ATOM     19  C   UNL     1       8.372  -5.075  -1.690  0.00  0.00    +0.049 A 
ATOM     20  C   UNL     1       7.152  -4.441  -1.508  0.00  0.00    +0.163 A 
ATOM     21  O   UNL     1       7.127  -3.120  -1.181  0.00  0.00    -0.473 OA
ENDBRANCH   9  12
ENDBRANCH   6   8
BRANCH   1  22
ATOM     22  C   UNL     1       2.487   1.089  -0.007  0.00  0.00    +0.195 C 
ATOM     23  O   UNL     1       1.795   1.062   0.992  0.00  0.00    -0.287 OA
BRANCH  22  27
ATOM     24  C   UNL     1       1.107  -0.709  -3.599  0.00  0.00    +0.000 A 
ATOM     25  C   UNL     1       0.368  -0.838  -2.436  0.00  0.00    +0.001 A 
ATOM     26  C   UNL     1       0.808  -0.252  -1.267  0.00  0.00    +0.012 A 
ATOM     27  C   UNL     1       2.007   0.463  -1.257  0.00  0.00    +0.022 A 
ATOM     28  C   UNL     1       2.750   0.585  -2.433  0.00  0.00    +0.012 A 
ATOM     29  C   UNL     1       2.296  -0.001  -3.596  0.00  0.00    +0.001 A 
ENDBRANCH  22  27
ENDBRANCH   1  22
TORSDOF 4
