REMARK  Name = ZINC34793363
REMARK  6 active torsions:
REMARK  status: ('A' for Active; 'I' for Inactive)
REMARK    1  A    between atoms: C_1  and  C_2
REMARK    2  A    between atoms: C_2  and  N_3
REMARK    3  A    between atoms: C_6  and  C_11
REMARK    4  A    between atoms: N_21  and  C_23
REMARK    5  A    between atoms: C_23  and  C_24
REMARK    6  A    between atoms: N_29  and  C_32
REMARK                            x       y       z     vdW  Elec       q    Type
REMARK                         _______ _______ _______ _____ _____    ______ ____
ROOT
ATOM      1  N   UNL     1       0.688  -0.476  -1.203  0.00  0.00    -0.257 N 
ATOM      2  C   UNL     1      -0.057  -0.690  -2.328  0.00  0.00    +0.042 C 
ATOM      3  C   UNL     1       0.512  -1.125  -3.471  0.00  0.00    +0.058 C 
ATOM      4  C   UNL     1       2.007  -1.367  -3.465  0.00  0.00    +0.143 C 
ATOM      5  N   UNL     1       2.720  -1.107  -2.203  0.00  0.00    -0.288 N 
ATOM      6  C   UNL     1       2.012  -0.670  -1.144  0.00  0.00    +0.307 C 
ATOM      7  O   UNL     1       2.592  -0.448  -0.099  0.00  0.00    -0.252 OA
ATOM      8  C   UNL     1      -0.463  -1.267  -4.480  0.00  0.00    +0.247 C 
ATOM      9  O   UNL     1      -0.229  -1.644  -5.614  0.00  0.00    -0.270 OA
ATOM     10  N   UNL     1      -1.684  -0.932  -4.027  0.00  0.00    -0.283 N 
ATOM     11  C   UNL     1      -1.533  -0.536  -2.619  0.00  0.00    +0.160 C 
ATOM     12  H   UNL     1       3.679  -1.244  -2.137  0.00  0.00    +0.151 HD
ENDROOT
BRANCH   4  13
ATOM     13  C   UNL     1       2.246  -2.806  -3.845  0.00  0.00    -0.004 A 
ATOM     14  C   UNL     1       2.397  -3.765  -2.860  0.00  0.00    +0.008 A 
ATOM     15  C   UNL     1       2.616  -5.084  -3.208  0.00  0.00    +0.020 A 
ATOM     16  C   UNL     1       2.683  -5.447  -4.542  0.00  0.00    +0.042 A 
ATOM     17  C   UNL     1       2.531  -4.489  -5.527  0.00  0.00    +0.040 A 
ATOM     18  C   UNL     1       2.307  -3.169  -5.179  0.00  0.00    +0.048 A 
ATOM     19 CL   UNL     1       2.110  -1.966  -6.415  0.00  0.00    -0.083 Cl
ATOM     20 CL   UNL     1       2.958  -7.105  -4.978  0.00  0.00    -0.083 Cl
ENDBRANCH   4  13
BRANCH   1  22
ATOM     21  C   UNL     1      -0.019   1.526   0.010  0.00  0.00    +0.025 C 
ATOM     22  C   UNL     1       0.002  -0.004   0.002  0.00  0.00    +0.111 C 
ENDBRANCH   1  22
BRANCH  10  23
ATOM     23  C   UNL     1      -2.932  -0.957  -4.793  0.00  0.00    +0.204 C 
BRANCH  23  24
ATOM     24  C   UNL     1      -3.580  -2.310  -4.655  0.00  0.00    +0.233 C 
ATOM     25  O   UNL     1      -3.052  -3.170  -3.982  0.00  0.00    -0.274 OA
ATOM     26  N   UNL     1      -4.747  -2.566  -5.279  0.00  0.00    -0.298 N 
ATOM     27  C   UNL     1      -5.402  -1.540  -6.104  0.00  0.00    +0.123 C 
ATOM     28  C   UNL     1      -6.862  -1.412  -5.655  0.00  0.00    +0.103 C 
ATOM     29  N   UNL     1      -7.499  -2.736  -5.687  0.00  0.00    -0.296 NA
ATOM     30  C   UNL     1      -6.859  -3.658  -4.739  0.00  0.00    +0.103 C 
ATOM     31  C   UNL     1      -5.397  -3.880  -5.156  0.00  0.00    +0.123 C 
BRANCH  29  32
ATOM     32  C   UNL     1      -8.941  -2.632  -5.430  0.00  0.00    +0.057 C 
ATOM     33  C   UNL     1      -9.187  -2.193  -3.971  0.00  0.00    +0.019 C 
ATOM     34  C   UNL     1     -10.446  -2.987  -3.543  0.00  0.00    +0.002 C 
ATOM     35  C   UNL     1     -10.233  -4.360  -4.226  0.00  0.00    +0.002 C 
ATOM     36  C   UNL     1      -9.606  -4.010  -5.592  0.00  0.00    +0.019 C 
ENDBRANCH  29  32
ENDBRANCH  23  24
ENDBRANCH  10  23
TORSDOF 5
