REMARK  Name = ZINC39486303
REMARK  6 active torsions:
REMARK  status: ('A' for Active; 'I' for Inactive)
REMARK    1  A    between atoms: C_1  and  S_2
REMARK    2  A    between atoms: S_2  and  C_3
REMARK    3  A    between atoms: C_7  and  C_9
REMARK    4  A    between atoms: C_21  and  C_23
REMARK    5  A    between atoms: C_23  and  C_25
REMARK    6  A    between atoms: C_30  and  O_31
REMARK                            x       y       z     vdW  Elec       q    Type
REMARK                         _______ _______ _______ _____ _____    ______ ____
ROOT
ATOM      1  C   UNL     1      -3.803  -3.596   0.033  0.00  0.00    +0.062 C 
ATOM      2  C   UNL     1      -4.612  -3.888  -1.202  0.00  0.00    -0.025 A 
ATOM      3  C   UNL     1      -4.273  -3.266  -2.388  0.00  0.00    +0.054 A 
ATOM      4  C   UNL     1      -4.996  -3.516  -3.546  0.00  0.00    +0.167 A 
ATOM      5  C   UNL     1      -6.076  -4.402  -3.522  0.00  0.00    +0.167 A 
ATOM      6  C   UNL     1      -6.424  -5.028  -2.343  0.00  0.00    +0.061 A 
ATOM      7  C   UNL     1      -5.694  -4.772  -1.176  0.00  0.00    +0.026 A 
ATOM      8  C   UNL     1      -6.075  -5.436   0.083  0.00  0.00    +0.178 C 
ATOM      9  O   UNL     1      -7.122  -6.041   0.180  0.00  0.00    -0.291 OA
ATOM     10  C   UNL     1      -5.115  -5.337   1.250  0.00  0.00    +0.139 C 
ATOM     11  C   UNL     1      -4.602  -3.892   1.299  0.00  0.00    +0.093 C 
ATOM     12 BR   UNL     1      -3.611  -6.575   0.985  0.00  0.00    -0.079 Br
ATOM     13  O   UNL     1      -6.610  -4.471  -4.776  0.00  0.00    -0.453 OA
ATOM     14  C   UNL     1      -6.109  -3.314  -5.471  0.00  0.00    +0.466 C 
ATOM     15  O   UNL     1      -4.859  -3.035  -4.814  0.00  0.00    -0.453 OA
ENDROOT
BRANCH   1  20
ATOM     16  C   UNL     1      -1.702  -0.454   0.016  0.00  0.00    +0.008 A 
ATOM     17  C   UNL     1      -2.682   0.532   0.025  0.00  0.00    +0.015 A 
ATOM     18  C   UNL     1      -4.016   0.176   0.036  0.00  0.00    +0.001 A 
ATOM     19  C   UNL     1      -4.377  -1.159   0.038  0.00  0.00    +0.004 A 
ATOM     20  C   UNL     1      -3.405  -2.142   0.029  0.00  0.00    -0.038 A 
ATOM     21  C   UNL     1      -2.068  -1.794   0.012  0.00  0.00    +0.019 A 
BRANCH  16  23
ATOM     22  C   UNL     1      -0.022   1.810   0.012  0.00  0.00    +0.090 C 
ATOM     23  S   UNL     1       0.002  -0.004   0.002  0.00  0.00    -0.129 S 
ENDBRANCH  16  23
ENDBRANCH   1  20
BRANCH  11  24
ATOM     24  C   UNL     1      -3.716  -3.715   2.505  0.00  0.00    +0.172 C 
ATOM     25  O   UNL     1      -2.514  -3.835   2.398  0.00  0.00    -0.292 OA
BRANCH  24  26
ATOM     26  C   UNL     1      -4.309  -3.397   3.810  0.00  0.00    +0.059 A 
ATOM     27  C   UNL     1      -5.697  -3.264   3.941  0.00  0.00    +0.015 A 
ATOM     28  C   UNL     1      -6.245  -2.966   5.168  0.00  0.00    +0.001 A 
ATOM     29  C   UNL     1      -5.429  -2.797   6.277  0.00  0.00    +0.004 A 
ATOM     30  C   UNL     1      -4.059  -2.926   6.164  0.00  0.00    +0.046 A 
ATOM     31  C   UNL     1      -3.488  -3.231   4.938  0.00  0.00    +0.127 A 
BRANCH  31  32
ATOM     32  O   UNL     1      -2.143  -3.363   4.827  0.00  0.00    -0.506 OA
ATOM     33  H   UNL     1      -1.683  -2.539   4.616  0.00  0.00    +0.292 HD
ENDBRANCH  31  32
ENDBRANCH  24  26
ENDBRANCH  11  24
TORSDOF 5
