REMARK  Name = ZINC11193624
REMARK  9 active torsions:
REMARK  status: ('A' for Active; 'I' for Inactive)
REMARK    1  A    between atoms: C_1  and  C_2
REMARK    2  A    between atoms: C_2  and  C_3
REMARK    3  A    between atoms: C_2  and  C_4
REMARK    4  A    between atoms: C_7  and  C_10
REMARK    5  A    between atoms: C_10  and  C_36
REMARK    6  A    between atoms: N_13  and  C_17
REMARK    7  A    between atoms: C_17  and  C_18
REMARK    8  A    between atoms: C_21  and  C_31
REMARK    9  A    between atoms: C_24  and  C_26
REMARK                            x       y       z     vdW  Elec       q    Type
REMARK                         _______ _______ _______ _____ _____    ______ ____
ROOT
ATOM      1  C   UNL     1      -8.893  -0.728   0.710  0.00  0.00    +0.135 C 
ATOM      2  C   UNL     1      -7.463  -0.553   1.180  0.00  0.00    +0.251 C 
ATOM      3  O   UNL     1      -7.068  -0.512   2.325  0.00  0.00    -0.272 OA
ATOM      4  N   UNL     1      -6.721  -0.453   0.059  0.00  0.00    -0.215 N 
ATOM      5  C   UNL     1      -7.477  -0.535  -1.042  0.00  0.00    +0.310 C 
ATOM      6  O   UNL     1      -7.035  -0.467  -2.172  0.00  0.00    -0.252 OA
ATOM      7  N   UNL     1      -8.781  -0.704  -0.758  0.00  0.00    -0.281 N 
ATOM      8  C   UNL     1      -9.456  -2.068   1.189  0.00  0.00    +0.047 C 
ATOM      9  H   UNL     1      -9.507  -0.791  -1.397  0.00  0.00    +0.152 HD
ENDROOT
BRANCH   1  13
ATOM     10  C   UNL     1     -11.333   2.498   2.084  0.00  0.00    -0.045 A 
ATOM     11  C   UNL     1     -11.635   1.861   0.895  0.00  0.00    +0.004 A 
ATOM     12  C   UNL     1     -10.845   0.817   0.451  0.00  0.00    +0.006 A 
ATOM     13  C   UNL     1      -9.754   0.410   1.195  0.00  0.00    -0.015 A 
ATOM     14  C   UNL     1      -9.455   1.044   2.386  0.00  0.00    +0.006 A 
ATOM     15  C   UNL     1     -10.241   2.091   2.828  0.00  0.00    +0.004 A 
BRANCH  10  17
ATOM     16  C   UNL     1     -12.787   3.282   3.933  0.00  0.00    +0.012 C 
ATOM     17  C   UNL     1     -12.193   3.636   2.568  0.00  0.00    +0.013 C 
ATOM     18  C   UNL     1     -11.341   4.901   2.696  0.00  0.00    +0.012 C 
ENDBRANCH  10  17
ENDBRANCH   1  13
BRANCH   4  19
ATOM     19  C   UNL     1      -5.268  -0.270   0.047  0.00  0.00    +0.215 C 
BRANCH  19  20
ATOM     20  C   UNL     1      -4.592  -1.617   0.034  0.00  0.00    +0.253 C 
ATOM     21  O   UNL     1      -5.260  -2.630   0.035  0.00  0.00    -0.272 OA
ATOM     22  N   UNL     1      -3.247  -1.697   0.022  0.00  0.00    -0.181 N 
ATOM     23  C   UNL     1      -2.463  -2.942   0.009  0.00  0.00    +0.173 C 
ATOM     24  C   UNL     1      -1.002  -2.451  -0.008  0.00  0.00    +0.090 C 
ATOM     25  C   UNL     1      -1.123  -0.944   0.007  0.00  0.00    +0.075 C 
ATOM     26  N   UNL     1      -2.371  -0.613   0.020  0.00  0.00    -0.180 NA
BRANCH  25  27
ATOM     27  C   UNL     1       0.002  -0.004   0.002  0.00  0.00    +0.035 A 
ATOM     28  C   UNL     1      -0.017   1.380   0.010  0.00  0.00    +0.017 A 
ATOM     29  C   UNL     1       1.185   2.050   0.002  0.00  0.00    +0.008 A 
ATOM     30  C   UNL     1       2.342   1.339  -0.013  0.00  0.00    +0.046 A 
ATOM     31  S   UNL     1       1.754  -0.346  -0.017  0.00  0.00    -0.095 S 
ENDBRANCH  25  27
BRANCH  23  32
ATOM     32  C   UNL     1      -2.743  -3.757   1.245  0.00  0.00    +0.128 A 
ATOM     33  C   UNL     1      -2.852  -5.097   1.296  0.00  0.00    +0.046 A 
ATOM     34  C   UNL     1      -3.116  -5.436   2.643  0.00  0.00    +0.041 A 
ATOM     35  C   UNL     1      -3.153  -4.283   3.335  0.00  0.00    +0.195 A 
ATOM     36  O   UNL     1      -2.920  -3.270   2.484  0.00  0.00    -0.466 OA
ENDBRANCH  23  32
ENDBRANCH  19  20
ENDBRANCH   4  19
TORSDOF 6
