REMARK  Name = ZINC27102827
REMARK  7 active torsions:
REMARK  status: ('A' for Active; 'I' for Inactive)
REMARK    1  A    between atoms: C_1  and  C_2
REMARK    2  A    between atoms: C_2  and  C_4
REMARK    3  A    between atoms: C_2  and  N_11
REMARK    4  A    between atoms: C_12  and  C_14
REMARK    5  A    between atoms: C_14  and  O_15
REMARK    6  A    between atoms: O_15  and  C_16
REMARK    7  A    between atoms: C_24  and  C_27
REMARK                            x       y       z     vdW  Elec       q    Type
REMARK                         _______ _______ _______ _____ _____    ______ ____
ROOT
ATOM      1  C   UNL     1      -0.016   1.353   0.009  0.00  0.00    +0.125 A 
ATOM      2  C   UNL     1      -1.236   2.027   0.019  0.00  0.00    +0.046 A 
ATOM      3  C   UNL     1      -1.269   3.392   0.032  0.00  0.00    +0.019 A 
ATOM      4  C   UNL     1      -0.075   4.114   0.025  0.00  0.00    +0.065 A 
ATOM      5  C   UNL     1       1.161   3.444   0.009  0.00  0.00    +0.142 A 
ATOM      6  C   UNL     1       1.177   2.055   0.002  0.00  0.00    +0.092 A 
ATOM      7  O   UNL     1       2.313   4.143   0.002  0.00  0.00    -0.462 OA
ATOM      8  C   UNL     1       2.362   5.477   0.009  0.00  0.00    +0.208 A 
ATOM      9  C   UNL     1       1.244   6.249   0.024  0.00  0.00    +0.064 A 
ATOM     10  C   UNL     1      -0.072   5.588   0.033  0.00  0.00    +0.200 A 
ATOM     11  O   UNL     1      -1.109   6.229   0.046  0.00  0.00    -0.286 OA
ENDROOT
BRANCH   9  12
ATOM     12  C   UNL     1       1.347   7.729   0.030  0.00  0.00    -0.011 A 
ATOM     13  C   UNL     1       0.619   8.484  -0.887  0.00  0.00    +0.010 A 
ATOM     14  C   UNL     1       0.714   9.861  -0.873  0.00  0.00    +0.020 A 
ATOM     15  C   UNL     1       1.541  10.491   0.041  0.00  0.00    +0.041 A 
ATOM     16  C   UNL     1       2.270   9.744   0.951  0.00  0.00    +0.020 A 
ATOM     17  C   UNL     1       2.178   8.368   0.949  0.00  0.00    +0.010 A 
ATOM     18 CL   UNL     1       1.662  12.223   0.048  0.00  0.00    -0.084 Cl
ENDBRANCH   9  12
BRANCH   1  19
ATOM     19  O   UNL     1       0.002  -0.004   0.002  0.00  0.00    -0.483 OA
BRANCH  19  20
ATOM     20  C   UNL     1      -1.262  -0.670   0.011  0.00  0.00    +0.324 C 
BRANCH  20  22
ATOM     21  N   UNL     1      -2.102  -2.997   0.006  0.00  0.00    -0.306 N 
ATOM     22  C   UNL     1      -1.044  -2.161   0.000  0.00  0.00    +0.251 C 
ATOM     23  O   UNL     1       0.082  -2.610  -0.013  0.00  0.00    -0.272 OA
ATOM     24  H   UNL     1      -3.124  -2.590   0.018  0.00  0.00    +0.149 HD
BRANCH  21  26
ATOM     25  C   UNL     1      -1.679  -4.941   1.429  0.00  0.00    +0.033 C 
ATOM     26  C   UNL     1      -1.891  -4.446  -0.004  0.00  0.00    +0.100 C 
BRANCH  26  27
ATOM     27  C   UNL     1      -3.098  -5.126  -0.596  0.00  0.00    -0.027 A 
ATOM     28  C   UNL     1      -4.367  -4.676  -0.284  0.00  0.00    +0.006 A 
ATOM     29  C   UNL     1      -5.474  -5.296  -0.831  0.00  0.00    +0.015 A 
ATOM     30  C   UNL     1      -5.313  -6.374  -1.683  0.00  0.00    +0.018 A 
ATOM     31  C   UNL     1      -4.043  -6.828  -1.991  0.00  0.00    +0.015 A 
ATOM     32  C   UNL     1      -2.936  -6.204  -1.447  0.00  0.00    +0.006 A 
ATOM     33 BR   UNL     1      -6.828  -7.228  -2.426  0.00  0.00    -0.050 Br
ENDBRANCH  26  27
ENDBRANCH  21  26
ENDBRANCH  20  22
ENDBRANCH  19  20
ENDBRANCH   1  19
TORSDOF 6
