REMARK  Name = ZINC36013984
REMARK  12 active torsions:
REMARK  status: ('A' for Active; 'I' for Inactive)
REMARK    1  A    between atoms: C_1  and  C_2
REMARK    2  A    between atoms: C_2  and  N_3
REMARK    3  A    between atoms: N_10  and  C_13
REMARK    4  A    between atoms: C_13  and  C_14
REMARK    5  A    between atoms: C_15  and  C_31
REMARK    6  A    between atoms: C_16  and  C_24
REMARK    7  A    between atoms: N_21  and  C_22
REMARK    8  A    between atoms: C_22  and  C_23
REMARK    9  A    between atoms: C_27  and  C_30
REMARK   10  A    between atoms: C_31  and  O_33
REMARK   11  A    between atoms: O_33  and  C_34
REMARK   12  A    between atoms: C_34  and  C_35
REMARK                            x       y       z     vdW  Elec       q    Type
REMARK                         _______ _______ _______ _____ _____    ______ ____
ROOT
ATOM      1  C   UNL     1       5.125  -5.808  -2.678  0.00  0.00    +0.010 C 
ATOM      2  C   UNL     1       5.973  -6.599  -3.371  0.00  0.00    +0.076 C 
ATOM      3  C   UNL     1       5.759  -8.097  -3.295  0.00  0.00    +0.143 C 
ATOM      4  N   UNL     1       4.637  -8.570  -2.467  0.00  0.00    -0.288 N 
ATOM      5  C   UNL     1       3.877  -7.655  -1.834  0.00  0.00    +0.307 C 
ATOM      6  O   UNL     1       2.948  -8.036  -1.148  0.00  0.00    -0.252 OA
ATOM      7  N   UNL     1       4.114  -6.341  -1.931  0.00  0.00    -0.261 N 
ATOM      8  H   UNL     1       4.450  -9.518  -2.380  0.00  0.00    +0.151 HD
ENDROOT
BRANCH   3   9
ATOM      9  C   UNL     1       7.024  -8.720  -2.763  0.00  0.00    -0.022 A 
ATOM     10  C   UNL     1       7.281  -8.709  -1.405  0.00  0.00    +0.006 A 
ATOM     11  C   UNL     1       8.441  -9.281  -0.916  0.00  0.00    +0.004 A 
ATOM     12  C   UNL     1       9.344  -9.864  -1.786  0.00  0.00    -0.050 A 
ATOM     13  C   UNL     1       9.086  -9.876  -3.144  0.00  0.00    +0.004 A 
ATOM     14  C   UNL     1       7.924  -9.308  -3.632  0.00  0.00    +0.006 A 
ATOM     15  C   UNL     1      10.609 -10.486  -1.253  0.00  0.00    +0.044 C 
ENDBRANCH   3   9
BRANCH   7  16
ATOM     16  C   UNL     1       3.236  -5.424  -1.201  0.00  0.00    +0.111 C 
ATOM     17  C   UNL     1       1.991  -5.132  -2.041  0.00  0.00    +0.025 C 
ENDBRANCH   7  16
BRANCH   2  18
ATOM     18  C   UNL     1       7.024  -6.048  -4.141  0.00  0.00    +0.339 C 
ATOM     19  O   UNL     1       7.257  -4.855  -4.086  0.00  0.00    -0.245 OA
BRANCH  18  20
ATOM     20  O   UNL     1       7.767  -6.845  -4.936  0.00  0.00    -0.462 OA
BRANCH  20  21
ATOM     21  C   UNL     1       8.812  -6.221  -5.685  0.00  0.00    +0.229 C 
ATOM     22  C   UNL     1       9.540  -7.276  -6.521  0.00  0.00    +0.048 C 
ENDBRANCH  20  21
ENDBRANCH  18  20
ENDBRANCH   2  18
BRANCH   1  23
ATOM     23  C   UNL     1       5.302  -4.312  -2.726  0.00  0.00    -0.026 C 
BRANCH  23  31
ATOM     24  N   UNL     1      10.406  -3.393  -1.267  0.00  0.00    -0.300 N 
ATOM     25  C   UNL     1       9.641  -2.446  -0.688  0.00  0.00    +0.302 C 
ATOM     26  O   UNL     1      10.044  -1.301  -0.613  0.00  0.00    -0.253 OA
ATOM     27  N   UNL     1       8.430  -2.767  -0.192  0.00  0.00    -0.287 N 
ATOM     28  C   UNL     1       7.563  -1.689   0.325  0.00  0.00    +0.107 C 
ATOM     29  C   UNL     1       6.099  -1.904  -0.100  0.00  0.00    +0.000 C 
ATOM     30  C   UNL     1       6.058  -2.404  -1.527  0.00  0.00    -0.077 C 
ATOM     31  N   UNL     1       6.020  -3.865  -1.525  0.00  0.00    +0.384 N 
ATOM     32  C   UNL     1       7.284  -4.494  -1.502  0.00  0.00    -0.059 C 
ATOM     33  C   UNL     1       8.023  -4.157  -0.191  0.00  0.00    +0.091 C 
ATOM     34  H   UNL     1      10.117  -4.319  -1.262  0.00  0.00    +0.150 HD
ATOM     35  H   UNL     1       5.498  -4.168  -0.716  0.00  0.00    -0.081 HD
BRANCH  24  37
ATOM     36  C   UNL     1      12.339  -4.275  -2.477  0.00  0.00    +0.024 C 
ATOM     37  C   UNL     1      11.673  -3.023  -1.902  0.00  0.00    +0.102 C 
ENDBRANCH  24  37
ENDBRANCH  23  31
ENDBRANCH   1  23
TORSDOF 8
