REMARK  Name = ZINC13408745
REMARK  6 active torsions:
REMARK  status: ('A' for Active; 'I' for Inactive)
REMARK    1  A    between atoms: C_1  and  C_2
REMARK    2  A    between atoms: C_2  and  C_8
REMARK    3  A    between atoms: N_3  and  N_4
REMARK    4  A    between atoms: C_11  and  C_30
REMARK    5  A    between atoms: C_27  and  C_28
REMARK    6  A    between atoms: C_27  and  C_29
REMARK                            x       y       z     vdW  Elec       q    Type
REMARK                         _______ _______ _______ _____ _____    ______ ____
ROOT
ATOM      1  C   UNL     1      -2.985   3.535   2.344  0.00  0.00    -0.028 C 
ATOM      2  C   UNL     1      -2.094   4.232   1.671  0.00  0.00    -0.021 C 
ATOM      3  C   UNL     1      -1.096   3.616   0.737  0.00  0.00    +0.034 C 
ATOM      4  C   UNL     1      -0.888   2.131   1.097  0.00  0.00    -0.022 C 
ATOM      5  C   UNL     1      -2.276   1.478   1.110  0.00  0.00    -0.000 C 
ATOM      6  C   UNL     1      -3.112   2.044   2.258  0.00  0.00    +0.040 C 
ATOM      7  C   UNL     1      -2.139  -0.034   1.300  0.00  0.00    +0.005 C 
ATOM      8  C   UNL     1      -1.383  -0.620   0.109  0.00  0.00    +0.008 C 
ATOM      9  C   UNL     1       0.002  -0.004   0.002  0.00  0.00    +0.019 C 
ATOM     10  C   UNL     1      -0.018   1.510   0.010  0.00  0.00    +0.003 C 
ATOM     11  C   UNL     1       1.386   2.095   0.000  0.00  0.00    +0.009 C 
ATOM     12  C   UNL     1       2.354   1.511   1.012  0.00  0.00    +0.031 C 
ATOM     13  C   UNL     1       1.966   0.140   1.502  0.00  0.00    -0.064 C 
ATOM     14  C   UNL     1       0.929  -0.534   1.065  0.00  0.00    -0.066 C 
ATOM     15  C   UNL     1       0.802  -1.866   1.761  0.00  0.00    +0.032 C 
ATOM     16  C   UNL     1       2.165  -2.089   2.452  0.00  0.00    +0.015 C 
ATOM     17  C   UNL     1       2.708  -0.647   2.559  0.00  0.00    -0.013 C 
ATOM     18  C   UNL     1       4.214  -0.631   2.279  0.00  0.00    +0.015 C 
ATOM     19  C   UNL     1       2.425  -0.077   3.951  0.00  0.00    +0.015 C 
ATOM     20  C   UNL     1      -0.248   2.047   2.479  0.00  0.00    +0.012 C 
ENDROOT
BRANCH   1  22
ATOM     21  C   UNL     1      -3.804   5.757   3.356  0.00  0.00    +0.067 C 
ATOM     22  C   UNL     1      -3.901   4.258   3.233  0.00  0.00    +0.059 C 
ATOM     23  N   UNL     1      -4.794   3.607   3.915  0.00  0.00    -0.184 NA
BRANCH  23  24
ATOM     24  N   UNL     1      -5.669   4.298   4.764  0.00  0.00    -0.191 N 
ATOM     25  C   UNL     1      -6.596   3.622   5.471  0.00  0.00    +0.317 C 
ATOM     26  O   UNL     1      -7.355   4.222   6.208  0.00  0.00    -0.251 OA
ATOM     27  N   UNL     1      -6.682   2.282   5.362  0.00  0.00    -0.312 N 
ATOM     28  H   UNL     1      -5.607   5.263   4.843  0.00  0.00    +0.179 HD
ATOM     29  H   UNL     1      -6.077   1.803   4.774  0.00  0.00    +0.147 HD
ATOM     30  H   UNL     1      -7.349   1.795   5.870  0.00  0.00    +0.147 HD
ENDBRANCH  23  24
ENDBRANCH   1  22
TORSDOF 2
