REMARK  Name = ZINC02417608
REMARK  10 active torsions:
REMARK  status: ('A' for Active; 'I' for Inactive)
REMARK    1  A    between atoms: C_1  and  C_2
REMARK    2  A    between atoms: C_2  and  C_4
REMARK    3  A    between atoms: C_2  and  O_34
REMARK    4  A    between atoms: C_4  and  N_5
REMARK    5  A    between atoms: N_5  and  C_6
REMARK    6  A    between atoms: C_6  and  C_7
REMARK    7  A    between atoms: C_7  and  C_9
REMARK    8  A    between atoms: C_7  and  O_10
REMARK    9  A    between atoms: C_27  and  C_29
REMARK   10  A    between atoms: C_27  and  C_30
REMARK                            x       y       z     vdW  Elec       q    Type
REMARK                         _______ _______ _______ _____ _____    ______ ____
ROOT
ATOM      1  N   UNL     1       4.157   6.154  -0.193  0.00  0.00    -0.309 N 
ATOM      2  C   UNL     1       4.096   4.769  -0.172  0.00  0.00    +0.139 A 
ATOM      3  C   UNL     1       3.061   4.113   0.480  0.00  0.00    +0.080 A 
ATOM      4  C   UNL     1       2.998   2.714   0.502  0.00  0.00    +0.093 A 
ATOM      5  C   UNL     1       1.852   2.133   1.226  0.00  0.00    +0.035 A 
ATOM      6  C   UNL     1       1.550   0.760   1.402  0.00  0.00    -0.024 A 
ATOM      7  C   UNL     1       0.444   0.402   2.107  0.00  0.00    +0.020 A 
ATOM      8  C   UNL     1      -0.387   1.389   2.648  0.00  0.00    +0.105 A 
ATOM      9  C   UNL     1       0.961   3.051   1.805  0.00  0.00    +0.089 A 
ATOM     10  S   UNL     1       1.638   4.640   1.393  0.00  0.00    -0.066 S 
ATOM     11  N   UNL     1      -1.517   1.021   3.366  0.00  0.00    -0.316 N 
ATOM     12  C   UNL     1      -1.148   0.254   4.583  0.00  0.00    +0.106 C 
ATOM     13  C   UNL     1      -2.400   0.395   5.485  0.00  0.00    +0.020 C 
ATOM     14  C   UNL     1      -2.860   1.846   5.213  0.00  0.00    +0.020 C 
ATOM     15  C   UNL     1      -2.251   2.212   3.846  0.00  0.00    +0.106 C 
ATOM     16  C   UNL     1       0.086  -1.046   2.328  0.00  0.00    +0.199 C 
ATOM     17  O   UNL     1       0.808  -1.877   1.420  0.00  0.00    -0.369 OA
ATOM     18  C   UNL     1       2.219  -1.630   1.427  0.00  0.00    +0.068 C 
ATOM     19  C   UNL     1       2.473  -0.261   0.792  0.00  0.00    +0.070 C 
ATOM     20  C   UNL     1       2.734  -1.634   2.868  0.00  0.00    +0.041 C 
ATOM     21  C   UNL     1       2.936  -2.714   0.620  0.00  0.00    +0.041 C 
ATOM     22  N   UNL     1       3.994   2.064  -0.142  0.00  0.00    -0.234 NA
ATOM     23  C   UNL     1       4.954   2.716  -0.746  0.00  0.00    +0.224 A 
ATOM     24  N   UNL     1       5.028   4.035  -0.778  0.00  0.00    -0.220 NA
ATOM     25  N   UNL     1      -0.150   2.723   2.510  0.00  0.00    -0.337 N 
ATOM     26  H   UNL     1      -0.772   3.434   2.913  0.00  0.00    +0.168 HD
ENDROOT
BRANCH   1  27
ATOM     27  C   UNL     1       5.511   6.616  -0.528  0.00  0.00    +0.137 C 
BRANCH  27  29
ATOM     28  C   UNL     1       7.804   7.017   0.378  0.00  0.00    +0.039 C 
ATOM     29  C   UNL     1       6.433   6.406   0.674  0.00  0.00    +0.129 C 
BRANCH  29  30
ATOM     30  O   UNL     1       6.579   5.007   0.924  0.00  0.00    -0.391 OA
ATOM     31  H   UNL     1       7.152   4.799   1.674  0.00  0.00    +0.210 HD
ENDBRANCH  29  30
ENDBRANCH  27  29
ENDBRANCH   1  27
BRANCH   1  32
ATOM     32  C   UNL     1       3.166   6.710  -1.124  0.00  0.00    +0.137 C 
BRANCH  32  33
ATOM     33  C   UNL     1       2.973   8.200  -0.833  0.00  0.00    +0.129 C 
ATOM     34  C   UNL     1       2.049   8.810  -1.889  0.00  0.00    +0.039 C 
BRANCH  33  35
ATOM     35  O   UNL     1       2.389   8.361   0.461  0.00  0.00    -0.391 OA
ATOM     36  H   UNL     1       1.525   7.937   0.558  0.00  0.00    +0.210 HD
ENDBRANCH  33  35
ENDBRANCH  32  33
ENDBRANCH   1  32
TORSDOF 6
