REMARK  Name = ZINC08766782
REMARK  7 active torsions:
REMARK  status: ('A' for Active; 'I' for Inactive)
REMARK    1  A    between atoms: C_1  and  O_2
REMARK    2  A    between atoms: O_2  and  C_3
REMARK    3  A    between atoms: C_3  and  C_4
REMARK    4  A    between atoms: C_4  and  N_5
REMARK    5  A    between atoms: C_6  and  C_31
REMARK    6  A    between atoms: C_8  and  C_18
REMARK    7  A    between atoms: N_23  and  C_26
REMARK                            x       y       z     vdW  Elec       q    Type
REMARK                         _______ _______ _______ _____ _____    ______ ____
ROOT
ATOM      1  N   UNL     1      -0.963   3.609   0.670  0.00  0.00    -0.287 N 
ATOM      2  C   UNL     1      -1.298   2.334   0.040  0.00  0.00    +0.125 C 
ATOM      3  C   UNL     1      -1.728   2.538  -1.411  0.00  0.00    +0.131 C 
ATOM      4  C   UNL     1      -0.714   3.380  -2.138  0.00  0.00    -0.021 A 
ATOM      5  C   UNL     1      -0.458   3.173  -3.477  0.00  0.00    +0.005 A 
ATOM      6  C   UNL     1       0.468   3.965  -4.134  0.00  0.00    +0.000 A 
ATOM      7  C   UNL     1       1.140   4.967  -3.456  0.00  0.00    +0.001 A 
ATOM      8  C   UNL     1       0.896   5.181  -2.114  0.00  0.00    +0.013 A 
ATOM      9  C   UNL     1      -0.029   4.381  -1.447  0.00  0.00    +0.041 A 
ATOM     10  C   UNL     1      -0.285   4.559  -0.002  0.00  0.00    +0.247 C 
ATOM     11  O   UNL     1       0.112   5.553   0.574  0.00  0.00    -0.270 OA
ENDROOT
BRANCH   2  12
ATOM     12  C   UNL     1      -0.092   1.431   0.076  0.00  0.00    -0.001 A 
ATOM     13  C   UNL     1       1.194   1.816   0.059  0.00  0.00    +0.089 A 
ATOM     14  N   UNL     1       2.009   0.718   0.098  0.00  0.00    -0.360 N 
ATOM     15  H   UNL     1       2.979   0.744   0.095  0.00  0.00    +0.165 HD
ATOM     16  C   UNL     1       1.249  -0.429   0.142  0.00  0.00    +0.047 A 
ATOM     17  C   UNL     1      -0.101  -0.032   0.130  0.00  0.00    +0.005 A 
ATOM     18  C   UNL     1      -1.111  -0.996   0.168  0.00  0.00    +0.010 A 
ATOM     19  C   UNL     1      -0.782  -2.321   0.216  0.00  0.00    +0.001 A 
ATOM     20  C   UNL     1       0.548  -2.718   0.228  0.00  0.00    +0.002 A 
ATOM     21  C   UNL     1       1.560  -1.784   0.192  0.00  0.00    +0.026 A 
ENDBRANCH   2  12
BRANCH   3  22
ATOM     22  C   UNL     1      -1.846   1.198  -2.090  0.00  0.00    +0.225 C 
ATOM     23  O   UNL     1      -0.874   0.697  -2.614  0.00  0.00    -0.275 OA
ATOM     24  N   UNL     1      -3.031   0.557  -2.116  0.00  0.00    -0.298 N 
ATOM     25  C   UNL     1      -4.245   1.192  -1.580  0.00  0.00    +0.126 C 
ATOM     26  C   UNL     1      -5.346   1.104  -2.648  0.00  0.00    +0.125 C 
ATOM     27  N   UNL     1      -5.510  -0.296  -3.061  0.00  0.00    -0.314 N 
ATOM     28  C   UNL     1      -4.288  -0.810  -3.695  0.00  0.00    +0.125 C 
ATOM     29  C   UNL     1      -3.144  -0.798  -2.675  0.00  0.00    +0.126 C 
BRANCH  27  30
ATOM     30  C   UNL     1      -6.607  -0.443  -3.902  0.00  0.00    +0.099 A 
ATOM     31  C   UNL     1      -7.861  -0.013  -3.480  0.00  0.00    +0.042 A 
ATOM     32  C   UNL     1      -8.944  -0.165  -4.327  0.00  0.00    +0.005 A 
ATOM     33  C   UNL     1      -8.735  -0.744  -5.572  0.00  0.00    +0.018 A 
ATOM     34  C   UNL     1      -7.463  -1.147  -5.926  0.00  0.00    +0.084 A 
ATOM     35  N   UNL     1      -6.375  -1.008  -5.122  0.00  0.00    -0.350 N 
ATOM     36  H   UNL     1      -5.439  -1.309  -5.415  0.00  0.00    +0.166 HD
ENDBRANCH  27  30
ENDBRANCH   3  22
BRANCH   1  37
ATOM     37  C   UNL     1      -1.370   3.858   2.055  0.00  0.00    +0.137 C 
BRANCH  37  38
ATOM     38  C   UNL     1      -0.267   3.386   3.004  0.00  0.00    +0.178 C 
BRANCH  38  40
ATOM     39  C   UNL     1       2.001   3.820   3.648  0.00  0.00    +0.194 C 
ATOM     40  O   UNL     1       0.904   4.181   2.806  0.00  0.00    -0.381 OA
ENDBRANCH  38  40
ENDBRANCH  37  38
ENDBRANCH   1  37
TORSDOF 6
