REMARK  Name = ZINC63398413
REMARK  4 active torsions:
REMARK  status: ('A' for Active; 'I' for Inactive)
REMARK    1  A    between atoms: N_9  and  C_24
REMARK    2  A    between atoms: C_10  and  C_12
REMARK    3  A    between atoms: C_12  and  N_13
REMARK    4  A    between atoms: C_24  and  C_25
REMARK                            x       y       z     vdW  Elec       q    Type
REMARK                         _______ _______ _______ _____ _____    ______ ____
ROOT
ATOM      1  C   UNL     1      -0.288   1.018   0.003  0.00  0.00    +0.000 A 
ATOM      2  C   UNL     1       0.794   1.878  -0.034  0.00  0.00    +0.000 A 
ATOM      3  C   UNL     1       2.077   1.371  -0.003  0.00  0.00    +0.005 A 
ATOM      4  C   UNL     1       2.288   0.001   0.067  0.00  0.00    -0.026 A 
ATOM      5  C   UNL     1       1.209  -0.856   0.107  0.00  0.00    -0.041 A 
ATOM      6  C   UNL     1      -0.080  -0.345   0.073  0.00  0.00    +0.004 A 
ATOM      7  C   UNL     1       1.388  -2.349   0.194  0.00  0.00    +0.051 C 
ATOM      8  C   UNL     1       2.818  -2.727  -0.194  0.00  0.00    +0.090 C 
ATOM      9  N   UNL     1       3.749  -1.888   0.577  0.00  0.00    -0.285 NA
ATOM     10  C   UNL     1       3.706  -0.505   0.092  0.00  0.00    +0.105 C 
ENDROOT
BRANCH  10  11
ATOM     11  C   UNL     1       4.543   0.381   1.018  0.00  0.00    +0.140 C 
BRANCH  11  12
ATOM     12  N   UNL     1       4.076   0.224   2.397  0.00  0.00    -0.232 N 
ATOM     13  C   UNL     1       3.116   0.976   2.966  0.00  0.00    +0.254 C 
ATOM     14  O   UNL     1       2.509   1.878   2.426  0.00  0.00    -0.270 OA
ATOM     15  C   UNL     1       2.924   0.519   4.359  0.00  0.00    +0.049 A 
ATOM     16  C   UNL     1       2.095   0.908   5.399  0.00  0.00    +0.014 A 
ATOM     17  C   UNL     1       2.168   0.252   6.618  0.00  0.00    +0.001 A 
ATOM     18  C   UNL     1       3.061  -0.787   6.802  0.00  0.00    +0.001 A 
ATOM     19  C   UNL     1       3.896  -1.187   5.771  0.00  0.00    +0.014 A 
ATOM     20  C   UNL     1       3.835  -0.540   4.547  0.00  0.00    +0.049 A 
ATOM     21  C   UNL     1       4.546  -0.694   3.260  0.00  0.00    +0.254 C 
ATOM     22  O   UNL     1       5.412  -1.512   3.023  0.00  0.00    -0.270 OA
ENDBRANCH  11  12
ENDBRANCH  10  11
BRANCH   9  23
ATOM     23  C   UNL     1       5.115  -2.425   0.517  0.00  0.00    +0.181 C 
BRANCH  23  24
ATOM     24  C   UNL     1       5.205  -3.663   1.372  0.00  0.00    +0.230 C 
ATOM     25  O   UNL     1       4.258  -4.005   2.047  0.00  0.00    -0.274 OA
ATOM     26  N   UNL     1       6.340  -4.391   1.386  0.00  0.00    -0.296 N 
ATOM     27  C   UNL     1       7.530  -3.928   0.664  0.00  0.00    +0.110 C 
ATOM     28  C   UNL     1       8.725  -3.797   1.615  0.00  0.00    +0.048 C 
ATOM     29  C   UNL     1       9.007  -5.165   2.242  0.00  0.00    +0.109 C 
ATOM     30  C   UNL     1       7.709  -5.630   2.889  0.00  0.00    -0.021 C 
ATOM     31  C   UNL     1       7.991  -5.881   4.161  0.00  0.00    +0.003 A 
ATOM     32  C   UNL     1       7.172  -6.420   5.259  0.00  0.00    +0.048 A 
ATOM     33  C   UNL     1       7.790  -6.541   6.465  0.00  0.00    +0.124 A 
ATOM     34  C   UNL     1       9.126  -6.182   6.684  0.00  0.00    +0.040 A 
ATOM     35  C   UNL     1       9.952  -5.684   5.731  0.00  0.00    +0.029 A 
ATOM     36  C   UNL     1       9.417  -5.516   4.420  0.00  0.00    +0.043 A 
ATOM     37  N   UNL     1       9.996  -5.082   3.317  0.00  0.00    -0.377 N 
ATOM     38  F   UNL     1       7.079  -7.031   7.504  0.00  0.00    -0.205 F 
ATOM     39  C   UNL     1       6.406  -5.664   2.135  0.00  0.00    +0.141 C 
ATOM     40  H   UNL     1      10.907  -4.761   3.227  0.00  0.00    +0.160 HD
ENDBRANCH  23  24
ENDBRANCH   9  23
TORSDOF 4
