REMARK  Name = ZINC25452380
REMARK  10 active torsions:
REMARK  status: ('A' for Active; 'I' for Inactive)
REMARK    1  A    between atoms: C_1  and  C_2
REMARK    2  A    between atoms: C_2  and  N_3
REMARK    3  A    between atoms: C_4  and  C_26
REMARK    4  A    between atoms: C_7  and  S_8
REMARK    5  A    between atoms: S_8  and  C_9
REMARK    6  A    between atoms: C_9  and  C_11
REMARK    7  A    between atoms: C_9  and  C_12
REMARK    8  A    between atoms: N_17  and  C_18
REMARK    9  A    between atoms: C_21  and  C_25
REMARK   10  A    between atoms: C_23  and  C_24
REMARK                            x       y       z     vdW  Elec       q    Type
REMARK                         _______ _______ _______ _____ _____    ______ ____
ROOT
ATOM      1  C   UNL     1      -4.063  -0.527   0.142  0.00  0.00    +0.234 C 
ATOM      2  O   UNL     1      -4.162  -1.704  -0.135  0.00  0.00    -0.274 OA
ATOM      3  N   UNL     1      -5.140   0.154   0.580  0.00  0.00    -0.239 N 
ATOM      4  C   UNL     1      -6.327  -0.472   0.711  0.00  0.00    +0.310 C 
ATOM      5  O   UNL     1      -6.425  -1.652   0.433  0.00  0.00    -0.252 OA
ATOM      6  N   UNL     1      -7.404   0.209   1.149  0.00  0.00    -0.269 N 
ATOM      7  H   UNL     1      -5.051   1.221   0.831  0.00  0.00    +0.159 HD
ATOM      8  H   UNL     1      -7.296   1.250   1.488  0.00  0.00    +0.156 HD
ENDROOT
BRANCH   6   9
ATOM      9  C   UNL     1      -8.660  -0.408   1.173  0.00  0.00    +0.038 A 
ATOM     10  C   UNL     1      -8.931  -1.467   0.317  0.00  0.00    +0.024 A 
ATOM     11  C   UNL     1     -10.172  -2.074   0.343  0.00  0.00    +0.005 A 
ATOM     12  C   UNL     1     -11.143  -1.628   1.221  0.00  0.00    -0.050 A 
ATOM     13  C   UNL     1     -10.876  -0.573   2.074  0.00  0.00    +0.008 A 
ATOM     14  C   UNL     1      -9.635   0.034   2.057  0.00  0.00    -0.029 A 
ATOM     15  C   UNL     1      -9.343   1.179   2.992  0.00  0.00    +0.045 C 
ATOM     16  C   UNL     1     -12.495  -2.292   1.247  0.00  0.00    +0.044 C 
ENDBRANCH   6   9
BRANCH   1  17
ATOM     17  C   UNL     1      -2.737   0.173  -0.004  0.00  0.00    +0.137 C 
ATOM     18  C   UNL     1      -2.720   0.966  -1.312  0.00  0.00    +0.029 C 
BRANCH  17  19
ATOM     19  S   UNL     1      -1.406  -1.054  -0.024  0.00  0.00    -0.074 S 
BRANCH  19  24
ATOM     20  N   UNL     1       1.306  -0.369  -0.069  0.00  0.00    -0.300 N 
ATOM     21  C   UNL     1       2.035   0.800  -0.082  0.00  0.00    +0.200 A 
ATOM     22  N   UNL     1       1.171   1.792  -0.068  0.00  0.00    -0.125 NA
ATOM     23  N   UNL     1      -0.028   1.329  -0.048  0.00  0.00    -0.122 NA
ATOM     24  C   UNL     1      -0.005   0.015  -0.048  0.00  0.00    +0.193 A 
BRANCH  21  25
ATOM     25  C   UNL     1       3.501   0.918  -0.106  0.00  0.00    +0.172 A 
ATOM     26  C   UNL     1       4.209   2.042  -0.409  0.00  0.00    +0.053 A 
ATOM     27  C   UNL     1       5.572   1.702  -0.306  0.00  0.00    +0.042 A 
ATOM     28  C   UNL     1       5.631   0.402   0.043  0.00  0.00    +0.196 A 
ATOM     29  O   UNL     1       4.378  -0.070   0.163  0.00  0.00    -0.460 OA
ENDBRANCH  21  25
BRANCH  20  31
ATOM     30  C   UNL     1       1.986  -2.215  -1.523  0.00  0.00    +0.027 C 
ATOM     31  C   UNL     1       1.829  -1.738  -0.078  0.00  0.00    +0.122 C 
ENDBRANCH  20  31
ENDBRANCH  19  24
ENDBRANCH  17  19
ENDBRANCH   1  17
TORSDOF 6
