REMARK  Name = ZINC31055841
REMARK  7 active torsions:
REMARK  status: ('A' for Active; 'I' for Inactive)
REMARK    1  A    between atoms: C_1  and  N_2
REMARK    2  A    between atoms: N_2  and  C_3
REMARK    3  A    between atoms: C_9  and  O_11
REMARK    4  A    between atoms: C_12  and  C_14
REMARK    5  A    between atoms: N_19  and  C_21
REMARK    6  A    between atoms: C_21  and  C_22
REMARK    7  A    between atoms: C_24  and  C_27
REMARK                            x       y       z     vdW  Elec       q    Type
REMARK                         _______ _______ _______ _____ _____    ______ ____
ROOT
ATOM      1  C   UNL     1      -0.554   1.588  -0.217  0.00  0.00    +0.059 C 
ATOM      2  C   UNL     1       0.973   1.470  -0.227  0.00  0.00    +0.009 C 
ATOM      3  C   UNL     1       1.427   0.929  -1.585  0.00  0.00    -0.018 C 
ATOM      4  C   UNL     1       0.755  -0.421  -1.842  0.00  0.00    -0.078 C 
ATOM      5  N   UNL     1      -0.704  -0.255  -1.824  0.00  0.00    +0.386 N 
ATOM      6  C   UNL     1      -1.169   0.218  -0.513  0.00  0.00    -0.065 C 
ATOM      7  H   UNL     1      -0.964   0.512  -2.568  0.00  0.00    -0.081 HD
ENDROOT
BRANCH   1  10
ATOM      8  C   UNL     1      -1.138   3.768   2.873  0.00  0.00    +0.132 C 
ATOM      9  N   UNL     1      -0.773   3.332   1.523  0.00  0.00    -0.299 N 
ATOM     10  C   UNL     1      -1.014   2.063   1.137  0.00  0.00    +0.217 C 
ATOM     11  O   UNL     1      -1.600   1.304   1.879  0.00  0.00    -0.275 OA
BRANCH   9  12
ATOM     12  C   UNL     1      -0.147   4.274   0.593  0.00  0.00    +0.104 C 
ATOM     13  C   UNL     1       1.091   4.890   1.248  0.00  0.00    +0.025 C 
ATOM     14  C   UNL     1       1.746   5.875   0.276  0.00  0.00    +0.002 C 
ATOM     15  C   UNL     1       0.750   6.982  -0.075  0.00  0.00    +0.003 C 
ATOM     16  C   UNL     1      -0.488   6.366  -0.730  0.00  0.00    +0.033 C 
ATOM     17  C   UNL     1      -1.142   5.382   0.242  0.00  0.00    +0.135 C 
BRANCH  17  18
ATOM     18  O   UNL     1      -2.298   4.807  -0.370  0.00  0.00    -0.390 OA
ATOM     19  H   UNL     1      -3.128   5.452  -0.693  0.00  0.00    +0.210 HD
ENDBRANCH  17  18
ENDBRANCH   9  12
ENDBRANCH   1  10
BRANCH   5  20
ATOM     20  C   UNL     1      -1.381  -1.503  -2.203  0.00  0.00    +0.022 C 
BRANCH  20  21
ATOM     21  C   UNL     1      -0.713  -2.086  -3.421  0.00  0.00    +0.211 A 
ATOM     22  N   UNL     1       0.287  -2.932  -3.430  0.00  0.00    -0.193 NA
ATOM     23  C   UNL     1       0.548  -3.172  -4.735  0.00  0.00    +0.203 A 
ATOM     24  N   UNL     1      -0.301  -2.466  -5.435  0.00  0.00    -0.056 NA
ATOM     25  O   UNL     1      -1.034  -1.843  -4.696  0.00  0.00    -0.340 OA
BRANCH  23  26
ATOM     26  C   UNL     1       1.601  -4.070  -5.272  0.00  0.00    +0.041 A 
ATOM     27  C   UNL     1       2.442  -4.760  -4.401  0.00  0.00    +0.014 A 
ATOM     28  C   UNL     1       3.416  -5.597  -4.905  0.00  0.00    +0.021 A 
ATOM     29  C   UNL     1       3.566  -5.745  -6.274  0.00  0.00    +0.042 A 
ATOM     30  C   UNL     1       2.737  -5.058  -7.144  0.00  0.00    +0.040 A 
ATOM     31  C   UNL     1       1.755  -4.222  -6.649  0.00  0.00    +0.053 A 
ATOM     32 CL   UNL     1       0.715  -3.361  -7.741  0.00  0.00    -0.083 Cl
ATOM     33 CL   UNL     1       4.798  -6.795  -6.901  0.00  0.00    -0.083 Cl
ENDBRANCH  23  26
ENDBRANCH  20  21
ENDBRANCH   5  20
TORSDOF 6
