REMARK  Name = ZINC63920008
REMARK  9 active torsions:
REMARK  status: ('A' for Active; 'I' for Inactive)
REMARK    1  A    between atoms: C_1  and  C_2
REMARK    2  A    between atoms: C_2  and  C_3
REMARK    3  A    between atoms: C_2  and  C_4
REMARK    4  A    between atoms: C_4  and  C_5
REMARK    5  A    between atoms: N_7  and  C_8
REMARK    6  A    between atoms: C_11  and  N_14
REMARK    7  A    between atoms: N_17  and  C_18
REMARK    8  A    between atoms: C_18  and  C_19
REMARK    9  A    between atoms: C_19  and  C_20
REMARK                            x       y       z     vdW  Elec       q    Type
REMARK                         _______ _______ _______ _____ _____    ______ ____
ROOT
ATOM      1  N   UNL     1      -2.134  -8.269  -0.434  0.00  0.00    -0.269 N 
ATOM      2  C   UNL     1      -3.239  -9.025  -0.589  0.00  0.00    +0.304 C 
ATOM      3  O   UNL     1      -4.338  -8.506  -0.572  0.00  0.00    -0.253 OA
ATOM      4  N   UNL     1      -3.124 -10.357  -0.763  0.00  0.00    -0.299 N 
ATOM      5  H   UNL     1      -1.262  -8.690  -0.381  0.00  0.00    +0.156 HD
ATOM      6  H   UNL     1      -2.247 -10.771  -0.777  0.00  0.00    +0.150 HD
ENDROOT
BRANCH   1  10
ATOM      7  C   UNL     1      -2.466  -4.120  -0.184  0.00  0.00    +0.033 A 
ATOM      8  C   UNL     1      -1.370  -4.691  -0.816  0.00  0.00    +0.025 A 
ATOM      9  C   UNL     1      -1.260  -6.065  -0.899  0.00  0.00    +0.025 A 
ATOM     10  C   UNL     1      -2.245  -6.875  -0.350  0.00  0.00    +0.035 A 
ATOM     11  C   UNL     1      -3.342  -6.303   0.281  0.00  0.00    +0.025 A 
ATOM     12  C   UNL     1      -3.449  -4.929   0.369  0.00  0.00    +0.025 A 
BRANCH   7  15
ATOM     13  C   UNL     1      -3.122  -2.158   0.994  0.00  0.00    +0.217 C 
ATOM     14  O   UNL     1      -3.590  -2.854   1.869  0.00  0.00    -0.275 OA
ATOM     15  N   UNL     1      -2.578  -2.726  -0.101  0.00  0.00    -0.285 N 
ATOM     16  H   UNL     1      -2.264  -2.169  -0.831  0.00  0.00    +0.155 HD
BRANCH  13  17
ATOM     17  C   UNL     1      -3.147  -0.657   1.130  0.00  0.00    +0.099 C 
BRANCH  17  19
ATOM     18  C   UNL     1      -3.729   1.239   2.650  0.00  0.00    +0.008 C 
ATOM     19  C   UNL     1      -3.814  -0.276   2.453  0.00  0.00    -0.008 C 
ATOM     20  C   UNL     1      -5.282  -0.706   2.427  0.00  0.00    +0.008 C 
ENDBRANCH  17  19
ENDBRANCH  13  17
ENDBRANCH   7  15
ENDBRANCH   1  10
BRANCH   4  21
ATOM     21  C   UNL     1      -4.325 -11.179  -0.932  0.00  0.00    +0.110 C 
BRANCH  21  22
ATOM     22  C   UNL     1      -3.920 -12.644  -1.110  0.00  0.00    +0.052 C 
BRANCH  22  23
ATOM     23  C   UNL     1      -5.155 -13.489  -1.283  0.00  0.00    -0.040 C 
ATOM     24  C   UNL     1      -5.713 -13.883  -2.451  0.00  0.00    -0.001 A 
ATOM     25  C   UNL     1      -5.352 -13.651  -3.854  0.00  0.00    +0.010 A 
ATOM     26  C   UNL     1      -6.123 -14.187  -4.827  0.00  0.00    +0.001 A 
ATOM     27  C   UNL     1      -7.256 -14.957  -4.530  0.00  0.00    +0.002 A 
ATOM     28  C   UNL     1      -7.651 -15.215  -3.265  0.00  0.00    +0.026 A 
ATOM     29  C   UNL     1      -6.914 -14.701  -2.163  0.00  0.00    +0.043 A 
ATOM     30  N   UNL     1      -7.090 -14.808  -0.869  0.00  0.00    -0.380 N 
ATOM     31  C   UNL     1      -6.018 -14.075  -0.188  0.00  0.00    +0.144 C 
ATOM     32  H   UNL     1      -7.808 -15.294  -0.433  0.00  0.00    +0.160 HD
ENDBRANCH  22  23
ENDBRANCH  21  22
ENDBRANCH   4  21
TORSDOF 7
