REMARK  Name = ZINC09470843
REMARK  14 active torsions:
REMARK  status: ('A' for Active; 'I' for Inactive)
REMARK    1  A    between atoms: C_1  and  C_2
REMARK    2  A    between atoms: C_4  and  C_12
REMARK    3  A    between atoms: C_5  and  C_11
REMARK    4  A    between atoms: N_6  and  C_7
REMARK    5  A    between atoms: C_7  and  C_8
REMARK    6  A    between atoms: C_8  and  O_9
REMARK    7  A    between atoms: O_9  and  C_10
REMARK    8  A    between atoms: C_12  and  C_14
REMARK    9  A    between atoms: C_14  and  S_15
REMARK   10  A    between atoms: S_15  and  C_16
REMARK   11  A    between atoms: C_19  and  C_28
REMARK   12  A    between atoms: N_20  and  C_21
REMARK   13  A    between atoms: C_28  and  C_30
REMARK   14  A    between atoms: C_28  and  N_69
REMARK                            x       y       z     vdW  Elec       q    Type
REMARK                         _______ _______ _______ _____ _____    ______ ____
ROOT
ATOM      1  C   UNL     1       6.832  -1.656  -0.071  0.00  0.00    +0.196 A 
ATOM      2  N   UNL     1       6.162  -2.785  -0.072  0.00  0.00    -0.122 NA
ATOM      3  N   UNL     1       6.979  -3.778  -0.086  0.00  0.00    -0.135 NA
ATOM      4  C   UNL     1       8.209  -3.347  -0.095  0.00  0.00    +0.125 A 
ATOM      5  N   UNL     1       8.161  -1.979  -0.091  0.00  0.00    -0.275 N 
ENDROOT
BRANCH   5   6
ATOM      6  C   UNL     1       9.249  -1.092  -0.102  0.00  0.00    +0.050 A 
ATOM      7  C   UNL     1      10.096  -1.046  -1.200  0.00  0.00    +0.029 A 
ATOM      8  C   UNL     1      11.162  -0.168  -1.212  0.00  0.00    +0.040 A 
ATOM      9  C   UNL     1      11.394   0.656  -0.124  0.00  0.00    +0.124 A 
ATOM     10  C   UNL     1      10.553   0.607   0.975  0.00  0.00    +0.040 A 
ATOM     11  C   UNL     1       9.482  -0.265   0.988  0.00  0.00    +0.029 A 
ATOM     12  F   UNL     1      12.441   1.510  -0.135  0.00  0.00    -0.205 F 
ENDBRANCH   5   6
BRANCH   4  13
ATOM     13  C   UNL     1       9.453  -4.198  -0.111  0.00  0.00    -0.002 C 
ATOM     14  C   UNL     1       9.650  -4.785  -1.510  0.00  0.00    -0.005 C 
BRANCH  13  20
ATOM     15  C   UNL     1       9.022  -4.764   2.203  0.00  0.00    -0.078 C 
ATOM     16  C   UNL     1       8.740  -5.927   3.157  0.00  0.00    -0.019 C 
ATOM     17  C   UNL     1       9.961  -6.850   3.204  0.00  0.00    -0.004 C 
ATOM     18  C   UNL     1      10.272  -7.344   1.788  0.00  0.00    -0.019 C 
ATOM     19  C   UNL     1      10.510  -6.140   0.874  0.00  0.00    -0.078 C 
ATOM     20  N   UNL     1       9.290  -5.305   0.853  0.00  0.00    +0.386 N 
ATOM     21  H   UNL     1       8.494  -5.885   0.563  0.00  0.00    -0.081 HD
ENDBRANCH  13  20
ENDBRANCH   4  13
BRANCH   1  22
ATOM     22  S   UNL     1       6.148  -0.032  -0.056  0.00  0.00    -0.078 S 
BRANCH  22  23
ATOM     23  C   UNL     1       4.383  -0.435  -0.042  0.00  0.00    +0.157 C 
BRANCH  23  24
ATOM     24  C   UNL     1       3.577   0.839  -0.027  0.00  0.00    +0.175 C 
ATOM     25  O   UNL     1       4.141   1.913  -0.026  0.00  0.00    -0.291 OA
BRANCH  24  29
ATOM     26  C   UNL     1      -1.214  -0.894   0.008  0.00  0.00    +0.063 C 
ATOM     27  C   UNL     1       0.002  -0.004   0.002  0.00  0.00    +0.017 A 
ATOM     28  C   UNL     1       1.277  -0.428  -0.012  0.00  0.00    +0.034 A 
ATOM     29  C   UNL     1       2.114   0.779  -0.014  0.00  0.00    +0.039 A 
ATOM     30  C   UNL     1       1.237   1.848   0.000  0.00  0.00    +0.026 A 
ATOM     31  N   UNL     1      -0.016   1.361   0.009  0.00  0.00    -0.345 N 
ATOM     32  C   UNL     1       1.619   3.305   0.004  0.00  0.00    +0.064 C 
BRANCH  31  33
ATOM     33  C   UNL     1      -1.231   2.180   0.020  0.00  0.00    +0.149 C 
BRANCH  33  34
ATOM     34  C   UNL     1      -1.646   2.458   1.466  0.00  0.00    +0.181 C 
BRANCH  34  35
ATOM     35  O   UNL     1      -2.831   3.257   1.476  0.00  0.00    -0.381 OA
ATOM     36  C   UNL     1      -3.306   3.575   2.786  0.00  0.00    +0.194 C 
ENDBRANCH  34  35
ENDBRANCH  33  34
ENDBRANCH  31  33
ENDBRANCH  24  29
ENDBRANCH  23  24
ENDBRANCH  22  23
ENDBRANCH   1  22
TORSDOF 10
