REMARK  Name = ZINC02578153
REMARK  7 active torsions:
REMARK  status: ('A' for Active; 'I' for Inactive)
REMARK    1  A    between atoms: C_5  and  C_28
REMARK    2  A    between atoms: C_7  and  C_9
REMARK    3  A    between atoms: N_11  and  C_12
REMARK    4  A    between atoms: C_12  and  C_13
REMARK    5  A    between atoms: C_13  and  N_14
REMARK    6  A    between atoms: C_15  and  C_17
REMARK    7  A    between atoms: C_23  and  C_25
REMARK                            x       y       z     vdW  Elec       q    Type
REMARK                         _______ _______ _______ _____ _____    ______ ____
ROOT
ATOM      1  C   UNL     1       0.119  -0.872  -3.729  0.00  0.00    +0.123 C 
ENDROOT
BRANCH   1   4
ATOM      2  C   UNL     1       0.363  -0.685  -1.312  0.00  0.00    +0.217 C 
ATOM      3  O   UNL     1       1.377  -1.344  -1.393  0.00  0.00    -0.275 OA
ATOM      4  N   UNL     1      -0.341  -0.393  -2.424  0.00  0.00    -0.314 N 
ATOM      5  H   UNL     1      -1.153   0.135  -2.359  0.00  0.00    +0.149 HD
BRANCH   2  11
ATOM      6  C   UNL     1       1.092   0.233   0.876  0.00  0.00    +0.040 C 
ATOM      7  C   UNL     1       1.885  -0.972   1.290  0.00  0.00    -0.030 C 
ATOM      8  C   UNL     1       1.434  -2.184   1.252  0.00  0.00    -0.030 C 
ATOM      9  C   UNL     1       0.059  -2.556   0.780  0.00  0.00    +0.042 C 
ATOM     10  C   UNL     1      -0.845  -1.321   0.765  0.00  0.00    +0.118 C 
ATOM     11  C   UNL     1      -0.111  -0.192   0.031  0.00  0.00    +0.093 C 
BRANCH  10  12
ATOM     12  C   UNL     1      -2.131  -1.644   0.049  0.00  0.00    +0.360 C 
ATOM     13  O   UNL     1      -2.856  -2.531   0.467  0.00  0.00    -0.246 OA
ATOM     14  O   UNL     1      -2.448  -1.017  -0.948  0.00  0.00    -0.246 OA
ENDBRANCH  10  12
ENDBRANCH   2  11
ENDBRANCH   1   4
BRANCH   1  15
ATOM     15  C   UNL     1      -0.852  -0.405  -4.815  0.00  0.00    +0.123 C 
BRANCH  15  16
ATOM     16  N   UNL     1      -0.392  -0.884  -6.121  0.00  0.00    -0.314 N 
ATOM     17  C   UNL     1      -1.095  -0.592  -7.232  0.00  0.00    +0.217 C 
ATOM     18  O   UNL     1      -2.110   0.068  -7.152  0.00  0.00    -0.275 OA
ATOM     19  H   UNL     1       0.420  -1.411  -6.185  0.00  0.00    +0.149 HD
BRANCH  17  20
ATOM     20  C   UNL     1      -0.622  -1.085  -8.576  0.00  0.00    +0.093 C 
ATOM     21  C   UNL     1      -1.037  -0.092  -9.664  0.00  0.00    +0.040 C 
ATOM     22  C   UNL     1      -2.523  -0.136  -9.864  0.00  0.00    -0.030 C 
ATOM     23  C   UNL     1      -3.282  -1.101  -9.454  0.00  0.00    -0.030 C 
ATOM     24  C   UNL     1      -2.783  -2.306  -8.712  0.00  0.00    +0.042 C 
ATOM     25  C   UNL     1      -1.264  -2.443  -8.882  0.00  0.00    +0.118 C 
BRANCH  25  26
ATOM     26  C   UNL     1      -0.732  -3.482  -7.929  0.00  0.00    +0.360 C 
ATOM     27  O   UNL     1      -1.429  -4.428  -7.606  0.00  0.00    -0.246 OA
ATOM     28  O   UNL     1       0.397  -3.376  -7.480  0.00  0.00    -0.246 OA
ENDBRANCH  25  26
ENDBRANCH  17  20
ENDBRANCH  15  16
ENDBRANCH   1  15
TORSDOF 7
