REMARK  Name = ZINC63571353
REMARK  7 active torsions:
REMARK  status: ('A' for Active; 'I' for Inactive)
REMARK    1  A    between atoms: C_1  and  C_2
REMARK    2  A    between atoms: C_2  and  O_3
REMARK    3  A    between atoms: O_3  and  C_4
REMARK    4  A    between atoms: C_4  and  C_6
REMARK    5  A    between atoms: C_9  and  C_12
REMARK    6  A    between atoms: C_12  and  N_13
REMARK    7  A    between atoms: C_29  and  C_31
REMARK                            x       y       z     vdW  Elec       q    Type
REMARK                         _______ _______ _______ _____ _____    ______ ____
ROOT
ATOM      1  N   UNL     1       1.404  -6.060   6.621  0.00  0.00    -0.299 N 
ATOM      2  C   UNL     1       2.217  -6.783   7.416  0.00  0.00    +0.303 C 
ATOM      3  O   UNL     1       2.946  -6.222   8.211  0.00  0.00    -0.253 OA
ATOM      4  N   UNL     1       2.223  -8.128   7.330  0.00  0.00    -0.276 N 
ATOM      5  C   UNL     1       1.437  -8.791   6.285  0.00  0.00    +0.114 C 
ATOM      6  C   UNL     1       0.441  -9.769   6.935  0.00  0.00    +0.052 C 
ATOM      7  C   UNL     1       1.209 -10.537   7.982  0.00  0.00    -0.035 C 
ATOM      8  C   UNL     1       1.333 -11.841   8.200  0.00  0.00    -0.001 A 
ATOM      9  C   UNL     1       0.683 -13.004   7.575  0.00  0.00    +0.010 A 
ATOM     10  C   UNL     1       1.066 -14.224   8.037  0.00  0.00    +0.001 A 
ATOM     11  C   UNL     1       2.018 -14.400   9.046  0.00  0.00    +0.002 A 
ATOM     12  C   UNL     1       2.658 -13.387   9.681  0.00  0.00    +0.026 A 
ATOM     13  C   UNL     1       2.334 -12.056   9.288  0.00  0.00    +0.043 A 
ATOM     14  N   UNL     1       2.771 -10.917   9.737  0.00  0.00    -0.375 N 
ATOM     15  C   UNL     1       2.061  -9.844   9.039  0.00  0.00    +0.131 C 
ATOM     16  C   UNL     1       3.023  -8.915   8.282  0.00  0.00    +0.137 C 
ATOM     17  H   UNL     1       0.877  -6.502   5.937  0.00  0.00    +0.150 HD
ATOM     18  H   UNL     1       3.450 -10.798  10.418  0.00  0.00    +0.160 HD
ENDROOT
BRANCH  16  19
ATOM     19  C   UNL     1       3.715  -7.993   9.252  0.00  0.00    +0.010 A 
ATOM     20  C   UNL     1       3.153  -7.742  10.489  0.00  0.00    +0.008 A 
ATOM     21  C   UNL     1       3.787  -6.896  11.379  0.00  0.00    +0.000 A 
ATOM     22  C   UNL     1       4.985  -6.299  11.033  0.00  0.00    +0.003 A 
ATOM     23  C   UNL     1       5.550  -6.548   9.796  0.00  0.00    +0.039 A 
ATOM     24  C   UNL     1       4.918  -7.400   8.906  0.00  0.00    +0.128 A 
ATOM     25  F   UNL     1       5.471  -7.648   7.699  0.00  0.00    -0.205 F 
ENDBRANCH  16  19
BRANCH   1  26
ATOM     26  C   UNL     1       1.316  -4.608   6.790  0.00  0.00    +0.109 C 
BRANCH  26  30
ATOM     27  C   UNL     1      -0.295  -2.176   3.593  0.00  0.00    +0.098 C 
ATOM     28  C   UNL     1      -0.843  -1.965   5.006  0.00  0.00    +0.015 C 
ATOM     29  C   UNL     1       0.143  -2.538   6.026  0.00  0.00    +0.006 C 
ATOM     30  C   UNL     1       0.330  -4.035   5.770  0.00  0.00    +0.006 C 
ATOM     31  C   UNL     1       0.878  -4.245   4.357  0.00  0.00    +0.006 C 
ATOM     32  C   UNL     1      -0.108  -3.672   3.337  0.00  0.00    +0.015 C 
BRANCH  27  33
ATOM     33  C   UNL     1      -1.266  -1.611   2.589  0.00  0.00    +0.310 C 
ATOM     34  O   UNL     1      -1.758  -2.332   1.753  0.00  0.00    -0.251 OA
BRANCH  33  35
ATOM     35  O   UNL     1      -1.584  -0.307   2.622  0.00  0.00    -0.465 OA
BRANCH  35  37
ATOM     36  C   UNL     1      -2.749   1.658   1.834  0.00  0.00    +0.048 C 
ATOM     37  C   UNL     1      -2.511   0.160   1.639  0.00  0.00    +0.229 C 
ENDBRANCH  35  37
ENDBRANCH  33  35
ENDBRANCH  27  33
ENDBRANCH  26  30
ENDBRANCH   1  26
TORSDOF 6
