REMARK  Name = ZINC65575660
REMARK  4 active torsions:
REMARK  status: ('A' for Active; 'I' for Inactive)
REMARK    1  A    between atoms: C_4  and  C_7
REMARK    2  A    between atoms: C_10  and  C_12
REMARK    3  A    between atoms: C_12  and  N_13
REMARK    4  A    between atoms: C_14  and  C_16
REMARK                            x       y       z     vdW  Elec       q    Type
REMARK                         _______ _______ _______ _____ _____    ______ ____
ROOT
ATOM      1  N   UNL     1       7.817  -0.758  -1.453  0.00  0.00    -0.303 N 
ATOM      2  C   UNL     1       9.124  -0.554  -1.707  0.00  0.00    +0.261 C 
ATOM      3  O   UNL     1       9.913  -0.442  -0.788  0.00  0.00    -0.269 OA
ATOM      4  H   UNL     1       7.188  -0.846  -2.186  0.00  0.00    +0.150 HD
ENDROOT
BRANCH   2   5
ATOM      5  C   UNL     1       9.599  -0.466  -3.101  0.00  0.00    +0.105 A 
ATOM      6  C   UNL     1      10.920  -0.265  -3.333  0.00  0.00    +0.039 A 
ATOM      7  C   UNL     1      11.402  -0.177  -4.712  0.00  0.00    -0.011 A 
ATOM      8  C   UNL     1      12.751   0.028  -5.008  0.00  0.00    +0.009 A 
ATOM      9  C   UNL     1      13.153   0.103  -6.323  0.00  0.00    +0.001 A 
ATOM     10  C   UNL     1      12.233  -0.021  -7.355  0.00  0.00    +0.001 A 
ATOM     11  C   UNL     1      10.896  -0.223  -7.085  0.00  0.00    +0.014 A 
ATOM     12  C   UNL     1      10.465  -0.304  -5.763  0.00  0.00    +0.046 A 
ATOM     13  C   UNL     1       9.052  -0.519  -5.421  0.00  0.00    +0.257 A 
ATOM     14  O   UNL     1       8.218  -0.634  -6.301  0.00  0.00    -0.267 OA
ATOM     15  N   UNL     1       8.688  -0.595  -4.126  0.00  0.00    -0.318 N 
ATOM     16  H   UNL     1       7.754  -0.740  -3.908  0.00  0.00    +0.169 HD
ENDBRANCH   2   5
BRANCH   1  17
ATOM     17  C   UNL     1       7.345  -0.845  -0.069  0.00  0.00    +0.179 C 
BRANCH  17  21
ATOM     18  C   UNL     1       3.695  -0.684  -0.038  0.00  0.00    +0.135 A 
ATOM     19  C   UNL     1       3.857  -2.034  -0.052  0.00  0.00    +0.050 A 
ATOM     20  C   UNL     1       5.246  -2.276  -0.066  0.00  0.00    +0.047 A 
ATOM     21  C   UNL     1       5.856  -1.075  -0.059  0.00  0.00    +0.123 A 
ATOM     22  O   UNL     1       4.916  -0.115  -0.048  0.00  0.00    -0.458 OA
BRANCH  18  26
ATOM     23  C   UNL     1      -0.017   1.379   0.010  0.00  0.00    +0.000 A 
ATOM     24  C   UNL     1       1.168   2.094   0.002  0.00  0.00    +0.001 A 
ATOM     25  C   UNL     1       2.377   1.429  -0.013  0.00  0.00    +0.011 A 
ATOM     26  C   UNL     1       2.404   0.034  -0.021  0.00  0.00    +0.017 A 
ATOM     27  C   UNL     1       1.204  -0.681  -0.013  0.00  0.00    +0.011 A 
ATOM     28  C   UNL     1       0.002  -0.004   0.002  0.00  0.00    +0.001 A 
ENDBRANCH  18  26
ENDBRANCH  17  21
ENDBRANCH   1  17
TORSDOF 4
