REMARK  Name = ZINC34704157
REMARK  8 active torsions:
REMARK  status: ('A' for Active; 'I' for Inactive)
REMARK    1  A    between atoms: CG_2  and  CB_7
REMARK    2  A    between atoms: CB_7  and  CA_8
REMARK    3  A    between atoms: CA_8  and  C_10
REMARK    4  A    between atoms: CA_8  and  N_13
REMARK    5  A    between atoms: C_14  and  C_16
REMARK    6  A    between atoms: C_18  and  C_28
REMARK    7  A    between atoms: C_28  and  C_30
REMARK    8  A    between atoms: C_28  and  O_41
REMARK                            x       y       z     vdW  Elec       q    Type
REMARK                         _______ _______ _______ _____ _____    ______ ____
ROOT
ATOM      1  C   UNK A   0       3.567   2.133   4.324  0.00  0.00    +0.238 C 
ATOM      2  C   UNK A   0       3.346   0.677   3.843  0.00  0.00    +0.190 C 
ATOM      3  O   UNK A   0       2.009   0.407   4.329  0.00  0.00    -0.340 OA
ATOM      4  C   UNK A   0       1.930   1.094   5.589  0.00  0.00    +0.172 C 
ATOM      5  O   UNK A   0       2.883   2.170   5.593  0.00  0.00    -0.333 OA
ATOM      6  C   UNK A   0       2.253   0.117   6.721  0.00  0.00    +0.065 C 
ATOM      7  C   UNK A   0       1.240  -1.029   6.709  0.00  0.00    +0.005 C 
ATOM      8  C   UNK A   0      -0.169  -0.466   6.901  0.00  0.00    +0.000 C 
ATOM      9  C   UNK A   0      -0.491   0.506   5.765  0.00  0.00    +0.005 C 
ATOM     10  C   UNK A   0       0.520   1.655   5.775  0.00  0.00    +0.065 C 
ENDROOT
BRANCH   1  12
ATOM     11  N   HIS A   1       3.670   3.576   2.317  0.00  0.00    -0.300 N 
ATOM     12  C   UNK A   0       2.950   3.112   3.359  0.00  0.00    +0.245 C 
ATOM     13  O   UNK A   0       1.807   3.483   3.519  0.00  0.00    -0.273 OA
ATOM     14  H   HIS A   1       4.604   3.333   2.227  0.00  0.00    +0.150 HD
BRANCH  11  15
ATOM     15  CA  HIS A   1       3.040   4.447   1.322  0.00  0.00    +0.192 C 
BRANCH  15  16
ATOM     16  C   HIS A   1       2.754   5.792   1.940  0.00  0.00    +0.376 C 
ATOM     17  O   HIS A   1       1.807   6.453   1.550  0.00  0.00    -0.244 OA
ATOM     18  OXT HIS A   1       3.471   6.218   2.829  0.00  0.00    -0.244 OA
ENDBRANCH  15  16
BRANCH  15  19
ATOM     19  CB  HIS A   1       3.982   4.623   0.129  0.00  0.00    +0.088 C 
BRANCH  19  21
ATOM     20  CD2 HIS A   1       3.392   2.753  -1.501  0.00  0.00    +0.105 A 
ATOM     21  CG  HIS A   1       4.181   3.295  -0.554  0.00  0.00    +0.035 A 
ATOM     22  ND1 HIS A   1       5.199   2.408  -0.332  0.00  0.00    -0.350 N 
ATOM     23  HD1 HIS A   1       5.930   2.515   0.297  0.00  0.00    +0.166 HD
ATOM     24  CE1 HIS A   1       4.996   1.353  -1.151  0.00  0.00    +0.171 A 
ATOM     25  NE2 HIS A   1       3.914   1.567  -1.847  0.00  0.00    -0.352 N 
ATOM     26  HE2 HIS A   1       3.544   0.963  -2.511  0.00  0.00    +0.166 HD
ENDBRANCH  19  21
ENDBRANCH  15  19
ENDBRANCH  11  15
ENDBRANCH   1  12
BRANCH   2  27
ATOM     27  C   UNK A   0       3.403   0.590   2.317  0.00  0.00    +0.177 C 
BRANCH  27  28
ATOM     28  C   UNK A   0       3.257  -0.870   1.884  0.00  0.00    +0.178 C 
ATOM     29  C   UNK A   0       3.004  -0.974   0.359  0.00  0.00    +0.197 C 
ATOM     30  O   UNK A   0       2.287  -2.218   0.231  0.00  0.00    -0.346 OA
ATOM     31  C   UNK A   0       1.709  -2.510   1.510  0.00  0.00    +0.171 C 
ATOM     32  O   UNK A   0       2.047  -1.453   2.425  0.00  0.00    -0.340 OA
ATOM     33  C   UNK A   0       2.266  -3.833   2.036  0.00  0.00    +0.065 C 
ATOM     34  C   UNK A   0       1.903  -4.960   1.067  0.00  0.00    +0.005 C 
ATOM     35  C   UNK A   0       0.381  -5.055   0.943  0.00  0.00    +0.000 C 
ATOM     36  C   UNK A   0      -0.172  -3.731   0.411  0.00  0.00    +0.005 C 
ATOM     37  C   UNK A   0       0.188  -2.602   1.379  0.00  0.00    +0.065 C 
ENDBRANCH  27  28
BRANCH  27  38
ATOM     38  O   UNK A   0       2.340   1.362   1.755  0.00  0.00    -0.386 OA
ATOM     39  H   UNK A   0       1.458   1.071   2.025  0.00  0.00    +0.210 HD
ENDBRANCH  27  38
ENDBRANCH   2  27
TORSDOF 8
