REMARK  Name = ZINC11912223
REMARK  4 active torsions:
REMARK  status: ('A' for Active; 'I' for Inactive)
REMARK    1  A    between atoms: C_6  and  C_7
REMARK    2  A    between atoms: C_12  and  C_32
REMARK    3  A    between atoms: N_13  and  C_14
REMARK    4  A    between atoms: C_20  and  C_22
REMARK                            x       y       z     vdW  Elec       q    Type
REMARK                         _______ _______ _______ _____ _____    ______ ____
ROOT
ATOM      1  C   UNL     1       2.308   7.688   0.143  0.00  0.00    +0.014 A 
ATOM      2  C   UNL     1       1.859   6.394  -0.018  0.00  0.00    +0.028 A 
ATOM      3  C   UNL     1       1.089   5.804   0.975  0.00  0.00    +0.069 A 
ATOM      4  C   UNL     1       0.763   6.533   2.132  0.00  0.00    +0.090 A 
ATOM      5  C   UNL     1       1.230   7.842   2.274  0.00  0.00    +0.042 A 
ATOM      6  C   UNL     1       1.991   8.404   1.288  0.00  0.00    +0.057 A 
ATOM      7  N   UNL     1       0.008   5.718   2.912  0.00  0.00    -0.230 NA
ATOM      8  C   UNL     1      -0.151   4.570   2.321  0.00  0.00    +0.140 A 
ATOM      9  N   UNL     1       0.491   4.569   1.122  0.00  0.00    -0.322 N 
ENDROOT
BRANCH   9  10
ATOM     10  C   UNL     1       0.544   3.460   0.166  0.00  0.00    +0.092 C 
ATOM     11  C   UNL     1      -0.069   3.903  -1.164  0.00  0.00    +0.044 C 
ATOM     12  C   UNL     1      -0.043   2.731  -2.150  0.00  0.00    +0.110 C 
ATOM     13  N   UNL     1       1.335   2.233  -2.257  0.00  0.00    -0.296 N 
ATOM     14  C   UNL     1       2.050   1.864  -1.028  0.00  0.00    +0.110 C 
ATOM     15  C   UNL     1       2.001   3.046  -0.054  0.00  0.00    +0.044 C 
ATOM     16  C   UNL     1       1.932   2.118  -3.460  0.00  0.00    +0.265 C 
ATOM     17  O   UNL     1       3.105   1.802  -3.529  0.00  0.00    -0.268 OA
BRANCH  16  18
ATOM     18  C   UNL     1       1.165   2.374  -4.689  0.00  0.00    +0.124 A 
ATOM     19  C   UNL     1       1.625   2.954  -5.844  0.00  0.00    +0.005 A 
ATOM     20  C   UNL     1       0.533   2.980  -6.721  0.00  0.00    +0.067 A 
ATOM     21  N   UNL     1      -0.484   2.454  -6.104  0.00  0.00    -0.178 NA
ATOM     22  N   UNL     1      -0.155   2.087  -4.913  0.00  0.00    -0.272 N 
ATOM     23  H   UNL     1      -0.771   1.658  -4.253  0.00  0.00    +0.189 HD
ATOM     24  C   UNL     1       0.608   3.546  -8.118  0.00  0.00    +0.057 C 
ATOM     25  C   UNL     1       1.873   4.409  -8.218  0.00  0.00    +0.007 C 
ATOM     26  C   UNL     1       3.083   3.619  -7.713  0.00  0.00    +0.005 C 
ATOM     27  C   UNL     1       2.998   3.462  -6.189  0.00  0.00    +0.039 C 
ENDBRANCH  16  18
ENDBRANCH   9  10
BRANCH   8  28
ATOM     28  C   UNL     1      -0.933   3.411   2.882  0.00  0.00    +0.184 C 
ATOM     29  C   UNL     1      -0.126   2.729   4.005  0.00  0.00    +0.042 C 
ATOM     30  C   UNL     1      -1.046   2.826   5.246  0.00  0.00    +0.031 C 
ATOM     31  C   UNL     1      -2.439   3.039   4.601  0.00  0.00    +0.161 C 
ATOM     32  O   UNL     1      -2.159   3.884   3.464  0.00  0.00    -0.369 OA
ENDBRANCH   8  28
BRANCH   6  33
ATOM     33  C   UNL     1       2.492   9.817   1.447  0.00  0.00    +0.417 C 
ATOM     34  F   UNL     1       3.739   9.801   2.081  0.00  0.00    -0.166 F 
ATOM     35  F   UNL     1       2.618  10.411   0.187  0.00  0.00    -0.166 F 
ATOM     36  F   UNL     1       1.585  10.549   2.220  0.00  0.00    -0.166 F 
ENDBRANCH   6  33
TORSDOF 4
