REMARK  Name = ZINC21810710
REMARK  9 active torsions:
REMARK  status: ('A' for Active; 'I' for Inactive)
REMARK    1  A    between atoms: C_1  and  C_2
REMARK    2  A    between atoms: C_7  and  C_36
REMARK    3  A    between atoms: N_9  and  C_10
REMARK    4  A    between atoms: C_10  and  C_11
REMARK    5  A    between atoms: C_11  and  C_12
REMARK    6  A    between atoms: C_12  and  N_13
REMARK    7  A    between atoms: C_22  and  C_23
REMARK    8  A    between atoms: C_22  and  C_24
REMARK    9  A    between atoms: N_26  and  C_27
REMARK                            x       y       z     vdW  Elec       q    Type
REMARK                         _______ _______ _______ _____ _____    ______ ____
ROOT
ATOM      1  N   UNL     1      -2.473   7.751  -3.380  0.00  0.00    -0.281 N 
ATOM      2  C   UNL     1      -1.468   8.470  -3.934  0.00  0.00    +0.264 C 
ATOM      3  O   UNL     1      -0.531   7.933  -4.496  0.00  0.00    -0.268 OA
ATOM      4  C   UNL     1      -1.569   9.930  -3.822  0.00  0.00    +0.109 A 
ATOM      5  C   UNL     1      -0.837  10.920  -4.407  0.00  0.00    +0.079 A 
ATOM      6  C   UNL     1      -1.356  12.146  -3.965  0.00  0.00    +0.153 A 
ATOM      7  C   UNL     1      -2.405  11.868  -3.088  0.00  0.00    +0.088 A 
ATOM      8  N   UNL     1      -2.522  10.514  -2.991  0.00  0.00    -0.331 N 
ATOM      9  C   UNL     1      -3.439   9.703  -2.185  0.00  0.00    +0.157 C 
ATOM     10  C   UNL     1      -3.702   8.379  -2.909  0.00  0.00    +0.128 C 
ATOM     11  C   UNL     1      -4.410   7.421  -1.949  0.00  0.00    +0.043 C 
ATOM     12  C   UNL     1      -2.905  13.123  -2.665  0.00  0.00    +0.067 A 
ATOM     13  C   UNL     1      -2.171  14.071  -3.272  0.00  0.00    +0.198 A 
ATOM     14  O   UNL     1      -1.242  13.488  -4.049  0.00  0.00    -0.461 OA
ENDROOT
BRANCH  10  15
ATOM     15  C   UNL     1      -4.603   8.634  -4.090  0.00  0.00    +0.238 C 
ATOM     16  O   UNL     1      -5.805   8.535  -3.969  0.00  0.00    -0.273 OA
ATOM     17  N   UNL     1      -4.072   8.973  -5.282  0.00  0.00    -0.311 N 
ATOM     18  H   UNL     1      -2.981   9.062  -5.393  0.00  0.00    +0.149 HD
BRANCH  17  19
ATOM     19  C   UNL     1      -4.947   9.220  -6.430  0.00  0.00    +0.073 C 
ATOM     20  C   UNL     1      -5.274   7.894  -7.118  0.00  0.00    +0.022 C 
ATOM     21  C   UNL     1      -6.189   8.153  -8.317  0.00  0.00    +0.002 C 
ATOM     22  C   UNL     1      -5.481   9.080  -9.307  0.00  0.00    +0.000 C 
ATOM     23  C   UNL     1      -5.154  10.406  -8.620  0.00  0.00    +0.002 C 
ATOM     24  C   UNL     1      -4.239  10.147  -7.420  0.00  0.00    +0.022 C 
ENDBRANCH  17  19
ENDBRANCH  10  15
BRANCH   1  25
ATOM     25  C   UNL     1      -2.324   6.299  -3.256  0.00  0.00    +0.107 C 
BRANCH  25  26
ATOM     26  C   UNL     1      -1.545   5.974  -1.980  0.00  0.00    +0.000 C 
BRANCH  26  27
ATOM     27  C   UNL     1      -1.280   4.468  -1.914  0.00  0.00    -0.077 C 
BRANCH  27  34
ATOM     28  C   UNL     1       1.593   3.953  -1.609  0.00  0.00    -0.013 C 
ATOM     29  C   UNL     1       0.725   4.668  -0.572  0.00  0.00    -0.071 C 
ATOM     30  C   UNL     1       1.303   4.434   0.826  0.00  0.00    -0.016 C 
ATOM     31  C   UNL     1       1.302   2.933   1.130  0.00  0.00    -0.003 C 
ATOM     32  C   UNL     1      -0.128   2.398   1.012  0.00  0.00    -0.016 C 
ATOM     33  C   UNL     1      -0.664   2.691  -0.391  0.00  0.00    -0.071 C 
ATOM     34  N   UNL     1      -0.644   4.139  -0.631  0.00  0.00    +0.383 N 
ATOM     35  C   UNL     1      -2.100   2.175  -0.505  0.00  0.00    -0.013 C 
ATOM     36  H   UNL     1      -1.224   4.620   0.169  0.00  0.00    -0.081 HD
ENDBRANCH  27  34
ENDBRANCH  26  27
ENDBRANCH  25  26
ENDBRANCH   1  25
TORSDOF 6
