REMARK  Name = ZINC02312249
REMARK  9 active torsions:
REMARK  status: ('A' for Active; 'I' for Inactive)
REMARK    1  A    between atoms: C_1  and  C_2
REMARK    2  A    between atoms: C_2  and  C_4
REMARK    3  A    between atoms: C_2  and  N_60
REMARK    4  A    between atoms: N_6  and  C_7
REMARK    5  A    between atoms: C_16  and  C_17
REMARK    6  A    between atoms: C_17  and  O_19
REMARK    7  A    between atoms: O_19  and  C_20
REMARK    8  A    between atoms: C_24  and  C_27
REMARK    9  A    between atoms: C_27  and  C_28
REMARK                            x       y       z     vdW  Elec       q    Type
REMARK                         _______ _______ _______ _____ _____    ______ ____
ROOT
ATOM      1  C   UNL     1      -4.483  -0.676   1.511  0.00  0.00    +0.203 C 
ATOM      2  O   UNL     1      -3.431  -1.208   1.795  0.00  0.00    -0.277 OA
ATOM      3  N   UNL     1      -4.823   0.495   2.085  0.00  0.00    -0.284 N 
ATOM      4  H   UNL     1      -5.693   0.887   1.910  0.00  0.00    +0.155 HD
ENDROOT
BRANCH   3   5
ATOM      5  C   UNL     1      -3.927   1.142   2.930  0.00  0.00    +0.073 A 
ATOM      6  C   UNL     1      -2.954   0.508   3.824  0.00  0.00    +0.023 A 
ATOM      7  C   UNL     1      -2.630  -0.823   4.105  0.00  0.00    +0.027 A 
ATOM      8  C   UNL     1      -1.649  -1.105   5.013  0.00  0.00    +0.019 A 
ATOM      9  C   UNL     1      -0.971  -0.079   5.661  0.00  0.00    +0.017 A 
ATOM     10  C   UNL     1      -1.274   1.238   5.400  0.00  0.00    +0.027 A 
ATOM     11  C   UNL     1      -2.271   1.550   4.478  0.00  0.00    +0.049 A 
ATOM     12  N   UNL     1      -2.778   2.744   4.018  0.00  0.00    -0.348 N 
ATOM     13  H   UNL     1      -2.481   3.622   4.303  0.00  0.00    +0.166 HD
ATOM     14  C   UNL     1      -3.780   2.504   3.089  0.00  0.00    +0.147 A 
ATOM     15 BR   UNL     1      -1.210  -2.905   5.391  0.00  0.00    -0.050 Br
BRANCH  14  16
ATOM     16  C   UNL     1      -4.528   3.499   2.409  0.00  0.00    +0.357 C 
ATOM     17  O   UNL     1      -5.326   3.177   1.549  0.00  0.00    -0.243 OA
BRANCH  16  18
ATOM     18  O   UNL     1      -4.354   4.801   2.716  0.00  0.00    -0.463 OA
ATOM     19  C   UNL     1      -5.141   5.749   1.991  0.00  0.00    +0.280 C 
ENDBRANCH  16  18
ENDBRANCH  14  16
ENDBRANCH   3   5
BRANCH   1  21
ATOM     20  C   UNL     1      -6.417  -2.207   1.257  0.00  0.00    -0.004 C 
ATOM     21  C   UNL     1      -5.411  -1.324   0.516  0.00  0.00    +0.016 C 
BRANCH  21  27
ATOM     22  C   UNL     1      -3.671  -1.327  -1.167  0.00  0.00    -0.078 C 
ATOM     23  C   UNL     1      -2.779  -2.234  -2.018  0.00  0.00    -0.015 C 
ATOM     24  C   UNL     1      -3.652  -3.041  -2.983  0.00  0.00    -0.010 C 
ATOM     25  C   UNL     1      -4.674  -3.849  -2.178  0.00  0.00    -0.015 C 
ATOM     26  C   UNL     1      -5.511  -2.896  -1.322  0.00  0.00    -0.078 C 
ATOM     27  N   UNL     1      -4.615  -2.167  -0.400  0.00  0.00    +0.387 N 
ATOM     28  H   UNL     1      -4.081  -2.848   0.153  0.00  0.00    -0.081 HD
BRANCH  24  29
ATOM     29  C   UNL     1      -2.773  -3.993  -3.796  0.00  0.00    +0.038 C 
BRANCH  29  30
ATOM     30  C   UNL     1      -1.850  -3.194  -4.679  0.00  0.00    -0.047 A 
ATOM     31  C   UNL     1      -2.246  -2.847  -5.957  0.00  0.00    +0.003 A 
ATOM     32  C   UNL     1      -1.401  -2.110  -6.766  0.00  0.00    +0.000 A 
ATOM     33  C   UNL     1      -0.157  -1.728  -6.301  0.00  0.00    +0.000 A 
ATOM     34  C   UNL     1       0.241  -2.079  -5.024  0.00  0.00    +0.000 A 
ATOM     35  C   UNL     1      -0.606  -2.813  -4.214  0.00  0.00    +0.003 A 
ENDBRANCH  29  30
ENDBRANCH  24  29
ENDBRANCH  21  27
ENDBRANCH   1  21
TORSDOF 7
