REMARK  Name = ZINC36584929
REMARK  2 active torsions:
REMARK  status: ('A' for Active; 'I' for Inactive)
REMARK    1  A    between atoms: C_12  and  C_16
REMARK    2  A    between atoms: N_18  and  C_19
REMARK                            x       y       z     vdW  Elec       q    Type
REMARK                         _______ _______ _______ _____ _____    ______ ____
ROOT
ATOM      1  C   UNL     1       3.691  -4.399   0.415  0.00  0.00    +0.239 C 
ATOM      2  O   UNL     1       3.577  -3.958   1.539  0.00  0.00    -0.273 OA
ATOM      3  N   UNL     1       4.064  -5.680   0.228  0.00  0.00    -0.284 N 
ATOM      4  H   UNL     1       4.091  -6.053  -0.667  0.00  0.00    +0.155 HD
ENDROOT
BRANCH   1  15
ATOM      5  C   UNL     1      -0.016   1.381   0.024  0.00  0.00    +0.000 A 
ATOM      6  C   UNL     1       1.171   2.093   0.006  0.00  0.00    +0.001 A 
ATOM      7  C   UNL     1       2.379   1.429  -0.028  0.00  0.00    +0.013 A 
ATOM      8  C   UNL     1       2.407   0.033  -0.046  0.00  0.00    +0.043 A 
ATOM      9  C   UNL     1       1.202  -0.677  -0.004  0.00  0.00    -0.005 A 
ATOM     10  C   UNL     1       0.003  -0.003   0.019  0.00  0.00    +0.007 A 
ATOM     11  C   UNL     1       1.577  -2.129   0.035  0.00  0.00    +0.166 C 
ATOM     12  N   UNL     1       3.029  -2.184  -0.291  0.00  0.00    -0.269 N 
ATOM     13  C   UNL     1       3.515  -0.939  -0.101  0.00  0.00    +0.249 C 
ATOM     14  O   UNL     1       4.693  -0.660   0.007  0.00  0.00    -0.270 OA
ATOM     15  C   UNL     1       3.414  -3.514  -0.773  0.00  0.00    +0.174 C 
ATOM     16  C   UNL     1       2.324  -4.184  -1.645  0.00  0.00    +0.103 C 
ATOM     17  S   UNL     1       0.889  -3.020  -1.424  0.00  0.00    -0.131 S 
ENDBRANCH   1  15
BRANCH   3  18
ATOM     18  C   UNL     1       4.415  -6.475   1.327  0.00  0.00    +0.034 A 
ATOM     19  C   UNL     1       3.750  -6.313   2.541  0.00  0.00    +0.027 A 
ATOM     20  C   UNL     1       4.083  -7.087   3.632  0.00  0.00    +0.049 A 
ATOM     21  C   UNL     1       5.090  -8.038   3.529  0.00  0.00    +0.139 A 
ATOM     22  C   UNL     1       5.764  -8.205   2.306  0.00  0.00    +0.019 A 
ATOM     23  C   UNL     1       5.416  -7.420   1.203  0.00  0.00    +0.035 A 
ATOM     24  C   UNL     1       6.825  -9.213   2.211  0.00  0.00    +0.018 A 
ATOM     25  C   UNL     1       7.113  -9.947   3.315  0.00  0.00    +0.092 A 
ATOM     26  C   UNL     1       6.395  -9.727   4.510  0.00  0.00    +0.337 A 
ATOM     27  O   UNL     1       6.664 -10.392   5.494  0.00  0.00    -0.245 OA
ATOM     28  O   UNL     1       5.426  -8.803   4.591  0.00  0.00    -0.422 OA
ENDBRANCH   3  18
TORSDOF 2
