REMARK  Name = ZINC36694566
REMARK  11 active torsions:
REMARK  status: ('A' for Active; 'I' for Inactive)
REMARK    1  A    between atoms: C_1  and  C_2
REMARK    2  A    between atoms: C_2  and  C_3
REMARK    3  A    between atoms: C_2  and  N_4
REMARK    4  A    between atoms: N_4  and  C_5
REMARK    5  A    between atoms: N_4  and  S_6
REMARK    6  A    between atoms: S_6  and  C_9
REMARK    7  A    between atoms: C_13  and  C_15
REMARK    8  A    between atoms: N_17  and  C_18
REMARK    9  A    between atoms: C_18  and  C_19
REMARK   10  A    between atoms: C_19  and  C_21
REMARK   11  A    between atoms: C_19  and  N_28
REMARK                            x       y       z     vdW  Elec       q    Type
REMARK                         _______ _______ _______ _____ _____    ______ ____
ROOT
ATOM      1  C   UNL     1      -3.383  -5.869   0.654  0.00  0.00    +0.245 C 
ATOM      2  O   UNL     1      -3.046  -6.995   0.966  0.00  0.00    -0.270 OA
ATOM      3  N   UNL     1      -4.547  -5.364   1.107  0.00  0.00    -0.313 N 
ATOM      4  H   UNL     1      -4.816  -4.466   0.858  0.00  0.00    +0.149 HD
ENDROOT
BRANCH   1   9
ATOM      5  C   UNL     1      -2.085  -3.007  -1.402  0.00  0.00    +0.106 A 
ATOM      6  C   UNL     1      -0.890  -3.528  -1.866  0.00  0.00    +0.030 A 
ATOM      7  C   UNL     1      -0.502  -4.808  -1.513  0.00  0.00    +0.022 A 
ATOM      8  C   UNL     1      -1.308  -5.575  -0.694  0.00  0.00    +0.053 A 
ATOM      9  C   UNL     1      -2.515  -5.055  -0.223  0.00  0.00    +0.057 A 
ATOM     10  C   UNL     1      -2.896  -3.759  -0.579  0.00  0.00    +0.043 A 
ATOM     11 CL   UNL     1      -0.821  -7.182  -0.253  0.00  0.00    -0.083 Cl
BRANCH   5  12
ATOM     12  S   UNL     1      -2.568  -1.375  -1.858  0.00  0.00    +0.061 S 
ATOM     13  O   UNL     1      -3.983  -1.320  -1.732  0.00  0.00    -0.153 OA
ATOM     14  O   UNL     1      -1.900  -1.079  -3.076  0.00  0.00    -0.153 OA
BRANCH  12  15
ATOM     15  N   UNL     1      -1.952  -0.345  -0.717  0.00  0.00    -0.177 NA
ATOM     16  C   UNL     1      -2.740  -0.012   0.472  0.00  0.00    +0.132 C 
BRANCH  15  18
ATOM     17  C   UNL     1      -0.725   1.759  -0.940  0.00  0.00    +0.025 C 
ATOM     18  C   UNL     1      -0.618   0.234  -0.898  0.00  0.00    +0.073 C 
ATOM     19  C   UNL     1       0.280  -0.182   0.269  0.00  0.00    +0.025 C 
ENDBRANCH  15  18
ENDBRANCH  12  15
ENDBRANCH   5  12
ENDBRANCH   1   9
BRANCH   3  20
ATOM     20  C   UNL     1      -5.407  -6.171   1.976  0.00  0.00    +0.094 C 
BRANCH  20  21
ATOM     21  C   UNL     1      -6.594  -5.327   2.445  0.00  0.00    -0.019 C 
BRANCH  21  22
ATOM     22  C   UNL     1      -7.456  -4.971   1.262  0.00  0.00    -0.041 A 
ATOM     23  C   UNL     1      -7.273  -3.765   0.611  0.00  0.00    +0.003 A 
ATOM     24  C   UNL     1      -8.064  -3.438  -0.474  0.00  0.00    +0.000 A 
ATOM     25  C   UNL     1      -9.039  -4.316  -0.910  0.00  0.00    +0.001 A 
ATOM     26  C   UNL     1      -9.223  -5.522  -0.260  0.00  0.00    +0.020 A 
ATOM     27  C   UNL     1      -8.427  -5.853   0.823  0.00  0.00    +0.043 A 
ATOM     28 CL   UNL     1      -8.654  -7.370   1.635  0.00  0.00    -0.083 Cl
ENDBRANCH  21  22
BRANCH  21  29
ATOM     29  N   UNL     1      -6.100  -4.098   3.079  0.00  0.00    +0.385 N 
ATOM     30  C   UNL     1      -7.235  -3.315   3.633  0.00  0.00    -0.078 C 
ATOM     31  C   UNL     1      -6.560  -2.421   4.703  0.00  0.00    -0.020 C 
ATOM     32  C   UNL     1      -5.488  -3.355   5.309  0.00  0.00    -0.020 C 
ATOM     33  C   UNL     1      -5.238  -4.430   4.235  0.00  0.00    -0.078 C 
ATOM     34  H   UNL     1      -5.587  -3.543   2.411  0.00  0.00    -0.081 HD
ENDBRANCH  21  29
ENDBRANCH  20  21
ENDBRANCH   3  20
TORSDOF 8
