REMARK  Name = ZINC02758291
REMARK  14 active torsions:
REMARK  status: ('A' for Active; 'I' for Inactive)
REMARK    1  A    between atoms: C_1  and  C_2
REMARK    2  A    between atoms: C_2  and  S_3
REMARK    3  A    between atoms: S_3  and  C_4
REMARK    4  A    between atoms: C_4  and  C_5
REMARK    5  A    between atoms: C_5  and  O_6
REMARK    6  A    between atoms: O_6  and  C_7
REMARK    7  A    between atoms: C_7  and  C_9
REMARK    8  A    between atoms: C_10  and  C_38
REMARK    9  A    between atoms: C_14  and  C_16
REMARK   10  A    between atoms: C_19  and  O_22
REMARK   11  A    between atoms: O_22  and  C_23
REMARK   12  A    between atoms: C_27  and  C_30
REMARK   13  A    between atoms: C_33  and  O_36
REMARK   14  A    between atoms: O_36  and  C_37
REMARK                            x       y       z     vdW  Elec       q    Type
REMARK                         _______ _______ _______ _____ _____    ______ ____
ROOT
ATOM      1  C   UNL     1       5.816   3.565   1.244  0.00  0.00    +0.065 C 
ATOM      2  C   UNL     1       6.816   2.688   1.049  0.00  0.00    +0.016 C 
ATOM      3  N   UNL     1       7.083   2.210  -0.204  0.00  0.00    -0.321 N 
ATOM      4  C   UNL     1       6.640   2.878  -1.314  0.00  0.00    +0.016 C 
ATOM      5  C   UNL     1       5.626   3.764  -1.221  0.00  0.00    +0.024 C 
ATOM      6  C   UNL     1       4.962   4.039   0.105  0.00  0.00    +0.092 C 
ATOM      7  C   UNL     1       5.160   4.454  -2.353  0.00  0.00    +0.162 C 
ATOM      8  O   UNL     1       4.255   5.256  -2.233  0.00  0.00    -0.292 OA
ATOM      9  C   UNL     1       5.761   4.217  -3.712  0.00  0.00    +0.088 C 
ATOM     10  C   UNL     1       6.306   2.787  -3.773  0.00  0.00    +0.032 C 
ATOM     11  C   UNL     1       7.314   2.603  -2.636  0.00  0.00    +0.059 C 
ATOM     12  C   UNL     1       7.647   2.228   2.219  0.00  0.00    +0.061 C 
ATOM     13  H   UNL     1       7.658   1.280  -0.327  0.00  0.00    +0.152 HD
ENDROOT
BRANCH   6  14
ATOM     14  C   UNL     1       3.636   3.324   0.151  0.00  0.00    -0.035 A 
ATOM     15  C   UNL     1       2.466   4.049   0.286  0.00  0.00    +0.008 A 
ATOM     16  C   UNL     1       1.249   3.396   0.328  0.00  0.00    +0.046 A 
ATOM     17  C   UNL     1       1.202   2.013   0.235  0.00  0.00    +0.120 A 
ATOM     18  C   UNL     1       2.377   1.288   0.106  0.00  0.00    +0.046 A 
ATOM     19  C   UNL     1       3.591   1.946   0.058  0.00  0.00    +0.008 A 
BRANCH  17  20
ATOM     20  O   UNL     1       0.006   1.369   0.277  0.00  0.00    -0.495 OA
ATOM     21  C   UNL     1       0.033  -0.056   0.176  0.00  0.00    +0.277 C 
ENDBRANCH  17  20
ENDBRANCH   6  14
BRANCH  10  22
ATOM     22  C   UNL     1       6.990   2.562  -5.097  0.00  0.00    -0.043 A 
ATOM     23  C   UNL     1       8.068   3.349  -5.459  0.00  0.00    +0.007 A 
ATOM     24  C   UNL     1       8.700   3.140  -6.670  0.00  0.00    +0.046 A 
ATOM     25  C   UNL     1       8.247   2.148  -7.527  0.00  0.00    +0.120 A 
ATOM     26  C   UNL     1       7.162   1.364  -7.163  0.00  0.00    +0.046 A 
ATOM     27  C   UNL     1       6.536   1.572  -5.949  0.00  0.00    +0.007 A 
BRANCH  25  28
ATOM     28  O   UNL     1       8.864   1.945  -8.720  0.00  0.00    -0.495 OA
ATOM     29  C   UNL     1       9.975   2.790  -9.028  0.00  0.00    +0.277 C 
ENDBRANCH  25  28
ENDBRANCH  10  22
BRANCH   1  30
ATOM     30  C   UNL     1       5.566   4.052   2.548  0.00  0.00    +0.338 C 
ATOM     31  O   UNL     1       6.179   3.598   3.495  0.00  0.00    -0.245 OA
BRANCH  30  32
ATOM     32  O   UNL     1       4.645   5.020   2.742  0.00  0.00    -0.460 OA
BRANCH  32  33
ATOM     33  C   UNL     1       4.444   5.464   4.085  0.00  0.00    +0.243 C 
BRANCH  33  34
ATOM     34  C   UNL     1       3.372   6.555   4.106  0.00  0.00    +0.110 C 
BRANCH  34  35
ATOM     35  S   UNL     1       3.115   7.119   5.811  0.00  0.00    -0.158 S 
BRANCH  35  37
ATOM     36  C   UNL     1       1.517   8.961   7.048  0.00  0.00    +0.015 C 
ATOM     37  C   UNL     1       1.833   8.394   5.663  0.00  0.00    +0.066 C 
ENDBRANCH  35  37
ENDBRANCH  34  35
ENDBRANCH  33  34
ENDBRANCH  32  33
ENDBRANCH  30  32
ENDBRANCH   1  30
TORSDOF 10
