REMARK  Name = ZINC12249778
REMARK  5 active torsions:
REMARK  status: ('A' for Active; 'I' for Inactive)
REMARK    1  A    between atoms: C_12  and  C_16
REMARK    2  A    between atoms: C_16  and  C_17
REMARK    3  A    between atoms: C_17  and  N_18
REMARK    4  A    between atoms: N_18  and  C_19
REMARK    5  A    between atoms: C_23  and  C_25
REMARK                            x       y       z     vdW  Elec       q    Type
REMARK                         _______ _______ _______ _____ _____    ______ ____
ROOT
ATOM      1  C   UNL     1       4.338  14.129  -0.013  0.00  0.00    +0.001 A 
ATOM      2  C   UNL     1       3.060  13.583   0.057  0.00  0.00    +0.001 A 
ATOM      3  C   UNL     1       2.875  12.231   0.036  0.00  0.00    +0.009 A 
ATOM      4  C   UNL     1       3.981  11.383  -0.057  0.00  0.00    -0.007 A 
ATOM      5  C   UNL     1       5.283  11.934  -0.128  0.00  0.00    -0.017 A 
ATOM      6  C   UNL     1       5.438  13.329  -0.104  0.00  0.00    +0.008 A 
ATOM      7  C   UNL     1       6.394  11.075  -0.223  0.00  0.00    +0.012 A 
ATOM      8  C   UNL     1       6.239   9.727  -0.245  0.00  0.00    +0.047 A 
ATOM      9  C   UNL     1       4.977   9.128  -0.177  0.00  0.00    +0.140 A 
ATOM     10  C   UNL     1       3.831   9.927  -0.082  0.00  0.00    +0.026 A 
ATOM     11  C   UNL     1       2.551   9.336  -0.018  0.00  0.00    +0.030 A 
ATOM     12  C   UNL     1       2.452   7.955  -0.040  0.00  0.00    +0.104 A 
ATOM     13  C   UNL     1       3.685   7.165  -0.140  0.00  0.00    +0.348 A 
ATOM     14  O   UNL     1       3.627   5.949  -0.166  0.00  0.00    -0.244 OA
ATOM     15  O   UNL     1       4.876   7.781  -0.203  0.00  0.00    -0.422 OA
ENDROOT
BRANCH  12  16
ATOM     16  C   UNL     1       1.138   7.293   0.030  0.00  0.00    +0.187 C 
ATOM     17  O   UNL     1       0.885   6.382   1.010  0.00  0.00    -0.290 OA
BRANCH  16  18
ATOM     18  C   UNL     1       0.189   7.588  -0.873  0.00  0.00    +0.181 C 
BRANCH  18  19
ATOM     19  N   UNL     1      -1.012   6.887  -0.873  0.00  0.00    -0.337 N 
ATOM     20  H   UNL     1      -1.164   6.185  -0.221  0.00  0.00    +0.147 HD
BRANCH  19  21
ATOM     21  C   UNL     1      -1.999   7.194  -1.812  0.00  0.00    +0.029 A 
ATOM     22  C   UNL     1      -1.781   8.200  -2.747  0.00  0.00    +0.023 A 
ATOM     23  C   UNL     1      -2.754   8.508  -3.678  0.00  0.00    +0.003 A 
ATOM     24  C   UNL     1      -3.950   7.818  -3.688  0.00  0.00    +0.019 A 
ATOM     25  C   UNL     1      -4.181   6.809  -2.750  0.00  0.00    +0.054 A 
ATOM     26  C   UNL     1      -3.197   6.495  -1.813  0.00  0.00    +0.041 A 
BRANCH  25  27
ATOM     27  C   UNL     1      -5.423   6.096  -2.754  0.00  0.00    +0.099 C 
ATOM     28  N   UNL     1      -6.408   5.530  -2.758  0.00  0.00    -0.191 NA
ENDBRANCH  25  27
ENDBRANCH  19  21
ENDBRANCH  18  19
ENDBRANCH  16  18
ENDBRANCH  12  16
TORSDOF 5
