REMARK  Name = ZINC09929216
REMARK  11 active torsions:
REMARK  status: ('A' for Active; 'I' for Inactive)
REMARK    1  A    between atoms: C_1  and  C_2
REMARK    2  A    between atoms: C_7  and  O_8
REMARK    3  A    between atoms: O_8  and  C_9
REMARK    4  A    between atoms: C_9  and  C_10
REMARK    5  A    between atoms: C_13  and  S_21
REMARK    6  A    between atoms: N_14  and  C_15
REMARK    7  A    between atoms: S_21  and  C_22
REMARK    8  A    between atoms: C_22  and  C_23
REMARK    9  A    between atoms: N_25  and  C_26
REMARK   10  A    between atoms: C_30  and  N_33
REMARK   11  A    between atoms: C_31  and  C_32
REMARK                            x       y       z     vdW  Elec       q    Type
REMARK                         _______ _______ _______ _____ _____    ______ ____
ROOT
ATOM      1  C   UNL     1       0.405   2.575   4.937  0.00  0.00    +0.176 A 
ATOM      2  N   UNL     1       1.222   1.964   4.126  0.00  0.00    -0.130 NA
ATOM      3  N   UNL     1       0.776   2.023   2.922  0.00  0.00    -0.122 NA
ATOM      4  C   UNL     1      -0.355   2.688   2.896  0.00  0.00    +0.197 A 
ATOM      5  N   UNL     1      -0.631   3.060   4.183  0.00  0.00    -0.271 N 
ENDROOT
BRANCH   5   6
ATOM      6  C   UNL     1      -1.742   3.785   4.637  0.00  0.00    +0.050 A 
ATOM      7  C   UNL     1      -1.571   5.046   5.191  0.00  0.00    +0.026 A 
ATOM      8  C   UNL     1      -2.668   5.759   5.633  0.00  0.00    +0.002 A 
ATOM      9  C   UNL     1      -3.935   5.214   5.533  0.00  0.00    +0.000 A 
ATOM     10  C   UNL     1      -4.108   3.956   4.986  0.00  0.00    +0.002 A 
ATOM     11  C   UNL     1      -3.015   3.240   4.538  0.00  0.00    +0.026 A 
ENDBRANCH   5   6
BRANCH   1  12
ATOM     12  C   UNL     1       0.570   2.720   6.428  0.00  0.00    +0.305 C 
BRANCH  12  13
ATOM     13  O   UNL     1      -0.053   1.615   7.086  0.00  0.00    -0.484 OA
BRANCH  13  20
ATOM     14  C   UNL     1      -1.277  -0.561   8.407  0.00  0.00    +0.047 C 
ATOM     15  C   UNL     1      -0.578   0.550   9.147  0.00  0.00    -0.009 A 
ATOM     16  C   UNL     1      -0.518   0.530  10.527  0.00  0.00    +0.007 A 
ATOM     17  C   UNL     1       0.123   1.549  11.207  0.00  0.00    +0.000 A 
ATOM     18  C   UNL     1       0.706   2.590  10.508  0.00  0.00    +0.004 A 
ATOM     19  C   UNL     1       0.653   2.612   9.128  0.00  0.00    +0.046 A 
ATOM     20  C   UNL     1       0.005   1.593   8.444  0.00  0.00    +0.124 A 
ENDBRANCH  13  20
ENDBRANCH  12  13
ENDBRANCH   1  12
BRANCH   4  21
ATOM     21  S   UNL     1      -1.336   3.032   1.473  0.00  0.00    -0.076 S 
BRANCH  21  22
ATOM     22  C   UNL     1      -0.330   2.235   0.197  0.00  0.00    +0.173 C 
BRANCH  22  23
ATOM     23  C   UNL     1      -0.994   2.405  -1.145  0.00  0.00    +0.227 C 
ATOM     24  O   UNL     1      -2.043   3.007  -1.231  0.00  0.00    -0.275 OA
ATOM     25  N   UNL     1      -0.421   1.889  -2.250  0.00  0.00    -0.285 N 
ATOM     26  H   UNL     1       0.454   1.474  -2.194  0.00  0.00    +0.155 HD
BRANCH  25  27
ATOM     27  C   UNL     1      -1.087   1.954  -3.479  0.00  0.00    +0.038 A 
ATOM     28  C   UNL     1      -2.461   2.153  -3.516  0.00  0.00    +0.024 A 
ATOM     29  C   UNL     1      -3.116   2.216  -4.730  0.00  0.00    +0.004 A 
ATOM     30  C   UNL     1      -2.405   2.081  -5.908  0.00  0.00    +0.033 A 
ATOM     31  C   UNL     1      -1.038   1.882  -5.875  0.00  0.00    +0.131 A 
ATOM     32  C   UNL     1      -0.376   1.823  -4.664  0.00  0.00    +0.001 A 
ATOM     33  C   UNL     1       1.116   1.613  -4.629  0.00  0.00    +0.048 C 
BRANCH  31  34
ATOM     34  N   UNL     1      -0.281   1.738  -7.139  0.00  0.00    +0.057 N 
ATOM     35  O   UNL     1      -0.836   1.929  -8.206  0.00  0.00    -0.126 OA
ATOM     36  O   UNL     1       0.897   1.427  -7.112  0.00  0.00    -0.126 OA
ENDBRANCH  31  34
ENDBRANCH  25  27
ENDBRANCH  22  23
ENDBRANCH  21  22
ENDBRANCH   4  21
TORSDOF 9
