REMARK  Name = ZINC09877807
REMARK  13 active torsions:
REMARK  status: ('A' for Active; 'I' for Inactive)
REMARK    1  A    between atoms: C_1  and  C_2
REMARK    2  A    between atoms: C_3  and  C_32
REMARK    3  A    between atoms: C_4  and  C_31
REMARK    4  A    between atoms: C_7  and  C_8
REMARK    5  A    between atoms: C_8  and  C_10
REMARK    6  A    between atoms: C_10  and  C_12
REMARK    7  A    between atoms: C_10  and  S_13
REMARK    8  A    between atoms: S_13  and  C_14
REMARK    9  A    between atoms: C_17  and  C_25
REMARK   10  A    between atoms: N_18  and  C_19
REMARK   11  A    between atoms: C_25  and  N_65
REMARK   12  A    between atoms: C_32  and  O_34
REMARK   13  A    between atoms: O_34  and  C_35
REMARK                            x       y       z     vdW  Elec       q    Type
REMARK                         _______ _______ _______ _____ _____    ______ ____
ROOT
ATOM      1  C   UNL     1       1.708   2.135  -0.003  0.00  0.00    +0.197 A 
ATOM      2  N   UNL     1       2.673   1.245  -0.017  0.00  0.00    -0.122 NA
ATOM      3  N   UNL     1       3.814   1.835  -0.025  0.00  0.00    -0.135 NA
ATOM      4  C   UNL     1       3.651   3.128  -0.016  0.00  0.00    +0.122 A 
ATOM      5  N   UNL     1       2.302   3.368  -0.007  0.00  0.00    -0.276 N 
ENDROOT
BRANCH   5   6
ATOM      6  C   UNL     1       1.663   4.616  -0.001  0.00  0.00    +0.050 A 
ATOM      7  C   UNL     1       1.793   5.469  -1.089  0.00  0.00    +0.026 A 
ATOM      8  C   UNL     1       1.158   6.696  -1.083  0.00  0.00    +0.002 A 
ATOM      9  C   UNL     1       0.403   7.079   0.011  0.00  0.00    +0.000 A 
ATOM     10  C   UNL     1       0.276   6.234   1.098  0.00  0.00    +0.002 A 
ATOM     11  C   UNL     1       0.904   5.004   1.095  0.00  0.00    +0.026 A 
ENDBRANCH   5   6
BRANCH   1  12
ATOM     12  S   UNL     1      -0.022   1.806   0.012  0.00  0.00    -0.074 S 
BRANCH  12  13
ATOM     13  C   UNL     1       0.002  -0.004   0.002  0.00  0.00    +0.124 C 
ATOM     14  C   UNL     1       0.631  -0.513   1.301  0.00  0.00    +0.028 C 
BRANCH  13  15
ATOM     15  C   UNL     1      -1.407  -0.525  -0.111  0.00  0.00    +0.192 C 
ATOM     16  O   UNL     1      -2.339   0.157   0.267  0.00  0.00    -0.289 OA
BRANCH  15  23
ATOM     17  C   UNL     1      -4.215  -1.816  -0.448  0.00  0.00    +0.047 C 
ATOM     18  C   UNL     1      -2.878  -2.404  -0.819  0.00  0.00    -0.008 A 
ATOM     19  C   UNL     1      -2.648  -3.671  -1.397  0.00  0.00    +0.083 A 
ATOM     20  C   UNL     1      -1.280  -3.799  -1.568  0.00  0.00    +0.028 A 
ATOM     21  N   UNL     1      -0.685  -2.681  -1.129  0.00  0.00    -0.355 N 
ATOM     22  H   UNL     1       0.270  -2.512  -1.138  0.00  0.00    +0.166 HD
ATOM     23  C   UNL     1      -1.646  -1.809  -0.658  0.00  0.00    +0.087 A 
ATOM     24  C   UNL     1      -0.577  -4.996  -2.155  0.00  0.00    +0.064 C 
BRANCH  19  25
ATOM     25  C   UNL     1      -3.671  -4.668  -1.754  0.00  0.00    +0.341 C 
ATOM     26  O   UNL     1      -4.172  -4.656  -2.861  0.00  0.00    -0.245 OA
BRANCH  25  27
ATOM     27  O   UNL     1      -4.051  -5.595  -0.852  0.00  0.00    -0.464 OA
ATOM     28  C   UNL     1      -5.064  -6.547  -1.272  0.00  0.00    +0.280 C 
ENDBRANCH  25  27
ENDBRANCH  19  25
ENDBRANCH  15  23
ENDBRANCH  13  15
ENDBRANCH  12  13
ENDBRANCH   1  12
BRANCH   4  29
ATOM     29  C   UNL     1       4.743   4.167  -0.021  0.00  0.00    -0.001 C 
BRANCH  29  35
ATOM     30  C   UNL     1       5.682   3.365  -2.103  0.00  0.00    -0.078 C 
ATOM     31  C   UNL     1       5.890   3.714  -3.578  0.00  0.00    -0.019 C 
ATOM     32  C   UNL     1       6.808   4.934  -3.685  0.00  0.00    -0.004 C 
ATOM     33  C   UNL     1       6.185   6.100  -2.912  0.00  0.00    -0.019 C 
ATOM     34  C   UNL     1       5.969   5.683  -1.456  0.00  0.00    -0.078 C 
ATOM     35  N   UNL     1       5.058   4.519  -1.421  0.00  0.00    +0.384 N 
ATOM     36  H   UNL     1       4.187   4.762  -1.907  0.00  0.00    -0.081 HD
ENDBRANCH  29  35
ENDBRANCH   4  29
TORSDOF 9
