REMARK  Name = ZINC20038490
REMARK  5 active torsions:
REMARK  status: ('A' for Active; 'I' for Inactive)
REMARK    1  A    between atoms: C_4  and  C_7
REMARK    2  A    between atoms: C_7  and  N_8
REMARK    3  A    between atoms: N_11  and  C_14
REMARK    4  A    between atoms: C_14  and  N_15
REMARK    5  A    between atoms: N_25  and  C_30
REMARK                            x       y       z     vdW  Elec       q    Type
REMARK                         _______ _______ _______ _____ _____    ______ ____
ROOT
ATOM      1  N   UNL     1       5.696  -5.591  -5.704  0.00  0.00    -0.255 N 
ATOM      2  C   UNL     1       5.716  -6.988  -5.658  0.00  0.00    +0.044 A 
ATOM      3  C   UNL     1       6.707  -7.870  -5.234  0.00  0.00    +0.024 A 
ATOM      4  C   UNL     1       6.490  -9.231  -5.277  0.00  0.00    +0.002 A 
ATOM      5  C   UNL     1       5.286  -9.732  -5.736  0.00  0.00    +0.000 A 
ATOM      6  C   UNL     1       4.293  -8.863  -6.153  0.00  0.00    +0.009 A 
ATOM      7  C   UNL     1       4.504  -7.503  -6.112  0.00  0.00    +0.017 A 
ATOM      8  C   UNL     1       3.673  -6.311  -6.474  0.00  0.00    +0.193 C 
ATOM      9  C   UNL     1       4.526  -5.115  -6.179  0.00  0.00    +0.260 C 
ATOM     10  O   UNL     1       4.226  -3.951  -6.336  0.00  0.00    -0.271 OA
ATOM     11  N   UNL     1       2.379  -6.279  -5.800  0.00  0.00    -0.243 N 
ATOM     12  C   UNL     1       1.288  -6.006  -6.516  0.00  0.00    +0.231 C 
ATOM     13  O   UNL     1       0.190  -5.978  -6.004  0.00  0.00    -0.274 OA
ATOM     14  C   UNL     1       1.475  -5.732  -8.002  0.00  0.00    +0.168 C 
ATOM     15  S   UNL     1       3.196  -6.356  -8.245  0.00  0.00    -0.111 S 
ENDROOT
BRANCH  11  16
ATOM     16  C   UNL     1       2.284  -6.529  -4.426  0.00  0.00    +0.039 A 
ATOM     17  C   UNL     1       2.490  -5.501  -3.516  0.00  0.00    +0.026 A 
ATOM     18  C   UNL     1       2.390  -5.749  -2.161  0.00  0.00    +0.040 A 
ATOM     19  C   UNL     1       2.098  -7.025  -1.709  0.00  0.00    +0.124 A 
ATOM     20  C   UNL     1       1.899  -8.053  -2.614  0.00  0.00    +0.040 A 
ATOM     21  C   UNL     1       1.991  -7.808  -3.970  0.00  0.00    +0.026 A 
ATOM     22  F   UNL     1       2.008  -7.266  -0.383  0.00  0.00    -0.205 F 
ENDBRANCH  11  16
BRANCH   1  23
ATOM     23  C   UNL     1       6.817  -4.743  -5.291  0.00  0.00    +0.200 C 
BRANCH  23  27
ATOM     24  N   UNL     1       6.883  -2.746  -1.569  0.00  0.00    +0.384 N 
ATOM     25  C   UNL     1       5.574  -3.056  -2.161  0.00  0.00    -0.063 C 
ATOM     26  C   UNL     1       5.743  -3.310  -3.661  0.00  0.00    +0.067 C 
ATOM     27  N   UNL     1       6.686  -4.418  -3.865  0.00  0.00    -0.290 NA
ATOM     28  C   UNL     1       7.995  -4.108  -3.273  0.00  0.00    +0.067 C 
ATOM     29  C   UNL     1       7.826  -3.854  -1.773  0.00  0.00    -0.063 C 
ATOM     30  H   UNL     1       7.285  -1.859  -2.081  0.00  0.00    -0.081 HD
BRANCH  24  31
ATOM     31  C   UNL     1       6.752  -2.421  -0.143  0.00  0.00    -0.043 C 
BRANCH  31  35
ATOM     32  C   UNL     1       4.560   1.219   0.294  0.00  0.00    +0.000 A 
ATOM     33  C   UNL     1       5.937   1.251   0.177  0.00  0.00    +0.000 A 
ATOM     34  C   UNL     1       6.646   0.073   0.035  0.00  0.00    +0.002 A 
ATOM     35  C   UNL     1       5.979  -1.137   0.012  0.00  0.00    -0.064 A 
ATOM     36  C   UNL     1       4.602  -1.169   0.130  0.00  0.00    +0.002 A 
ATOM     37  C   UNL     1       3.893   0.009   0.271  0.00  0.00    +0.000 A 
ENDBRANCH  31  35
ENDBRANCH  24  31
ENDBRANCH  23  27
ENDBRANCH   1  23
TORSDOF 5
