REMARK  Name = ZINC63204390
REMARK  7 active torsions:
REMARK  status: ('A' for Active; 'I' for Inactive)
REMARK    1  A    between atoms: C_7  and  C_10
REMARK    2  A    between atoms: C_10  and  C_12
REMARK    3  A    between atoms: C_10  and  C_26
REMARK    4  A    between atoms: C_12  and  N_13
REMARK    5  A    between atoms: N_13  and  C_14
REMARK    6  A    between atoms: C_17  and  C_23
REMARK    7  A    between atoms: C_19  and  N_20
REMARK                            x       y       z     vdW  Elec       q    Type
REMARK                         _______ _______ _______ _____ _____    ______ ____
ROOT
ATOM      1  C   UNL     1       0.874  -3.986  -1.313  0.00  0.00    +0.114 C 
ENDROOT
BRANCH   1   2
ATOM      2  N   UNL     1       0.003  -5.163  -1.290  0.00  0.00    -0.341 N 
ATOM      3  H   UNL     1      -0.557  -5.336  -0.517  0.00  0.00    +0.146 HD
BRANCH   2   4
ATOM      4  C   UNL     1      -0.022  -6.032  -2.375  0.00  0.00    +0.058 A 
ATOM      5  C   UNL     1       0.870  -5.853  -3.429  0.00  0.00    +0.026 A 
ATOM      6  C   UNL     1       0.849  -6.711  -4.504  0.00  0.00    +0.015 A 
ATOM      7  C   UNL     1      -0.070  -7.765  -4.537  0.00  0.00    +0.039 A 
ATOM      8  C   UNL     1      -0.963  -7.943  -3.477  0.00  0.00    +0.047 A 
ATOM      9  C   UNL     1      -0.934  -7.084  -2.402  0.00  0.00    +0.148 A 
BRANCH   7  10
ATOM     10  C   UNL     1      -0.095  -8.687  -5.688  0.00  0.00    +0.242 C 
ATOM     11  O   UNL     1      -0.894  -9.603  -5.715  0.00  0.00    -0.270 OA
ATOM     12  N   UNL     1       0.767  -8.514  -6.709  0.00  0.00    -0.325 N 
ATOM     13  H   UNL     1       1.405  -7.784  -6.687  0.00  0.00    +0.145 HD
ATOM     14  H   UNL     1       0.750  -9.121  -7.466  0.00  0.00    +0.145 HD
ENDBRANCH   7  10
BRANCH   9  15
ATOM     15  N   UNL     1      -1.876  -7.274  -1.277  0.00  0.00    +0.058 N 
ATOM     16  O   UNL     1      -2.163  -8.390  -0.911  0.00  0.00    -0.126 OA
ATOM     17  O   UNL     1      -2.359  -6.314  -0.724  0.00  0.00    -0.126 OA
ENDBRANCH   9  15
ENDBRANCH   2   4
ENDBRANCH   1   2
BRANCH   1  18
ATOM     18  C   UNL     1       0.711  -3.204  -0.008  0.00  0.00    +0.071 C 
BRANCH  18  25
ATOM     19  C   UNL     1      -0.467   1.222   0.273  0.00  0.00    +0.001 A 
ATOM     20  C   UNL     1       0.617   2.101   0.149  0.00  0.00    +0.002 A 
ATOM     21  C   UNL     1       1.885   1.674  -0.035  0.00  0.00    +0.026 A 
ATOM     22  C   UNL     1       2.171   0.283  -0.112  0.00  0.00    +0.043 A 
ATOM     23  N   UNL     1       3.296  -0.368  -0.283  0.00  0.00    -0.380 N 
ATOM     24  C   UNL     1       3.007  -1.807  -0.283  0.00  0.00    +0.145 C 
ATOM     25  C   UNL     1       1.513  -1.931  -0.082  0.00  0.00    -0.032 C 
ATOM     26  C   UNL     1       1.043  -0.666   0.016  0.00  0.00    -0.000 A 
ATOM     27  C   UNL     1      -0.305  -0.120   0.215  0.00  0.00    +0.010 A 
ATOM     28  H   UNL     1       4.172   0.033  -0.392  0.00  0.00    +0.160 HD
ENDBRANCH  18  25
BRANCH  18  29
ATOM     29  C   UNL     1       1.204  -4.042   1.144  0.00  0.00    -0.002 A 
ATOM     30  C   UNL     1       0.525  -4.480   2.232  0.00  0.00    +0.012 A 
ATOM     31  C   UNL     1       1.188  -5.245   3.172  0.00  0.00    +0.008 A 
ATOM     32  C   UNL     1       2.498  -5.535   2.979  0.00  0.00    +0.045 A 
ATOM     33  S   UNL     1       2.831  -4.720   1.426  0.00  0.00    -0.101 S 
ENDBRANCH  18  29
ENDBRANCH   1  18
TORSDOF 7
