REMARK  Name = ZINC10066605
REMARK  10 active torsions:
REMARK  status: ('A' for Active; 'I' for Inactive)
REMARK    1  A    between atoms: C_1  and  C_2
REMARK    2  A    between atoms: C_2  and  N_51
REMARK    3  A    between atoms: C_3  and  C_4
REMARK    4  A    between atoms: C_3  and  N_51
REMARK    5  A    between atoms: C_5  and  C_6
REMARK    6  A    between atoms: C_5  and  N_51
REMARK    7  A    between atoms: C_6  and  N_7
REMARK    8  A    between atoms: C_18  and  C_20
REMARK    9  A    between atoms: C_21  and  C_22
REMARK   10  A    between atoms: C_25  and  N_27
REMARK                            x       y       z     vdW  Elec       q    Type
REMARK                         _______ _______ _______ _____ _____    ______ ____
ROOT
ATOM      1  N   UNL     1       0.050   1.191  -2.410  0.00  0.00    -0.249 N 
ATOM      2  C   UNL     1      -0.204  -0.023  -3.024  0.00  0.00    +0.168 A 
ATOM      3  N   UNL     1       0.385  -0.556  -4.069  0.00  0.00    -0.224 NA
ATOM      4  C   UNL     1       0.030  -1.762  -4.566  0.00  0.00    +0.080 A 
ATOM      5  C   UNL     1       0.579  -2.444  -5.676  0.00  0.00    +0.030 A 
ATOM      6  C   UNL     1       0.100  -3.672  -6.050  0.00  0.00    +0.017 A 
ATOM      7  C   UNL     1      -0.934  -4.289  -5.358  0.00  0.00    +0.019 A 
ATOM      8  C   UNL     1      -1.494  -3.649  -4.267  0.00  0.00    +0.032 A 
ATOM      9  C   UNL     1      -1.020  -2.419  -3.885  0.00  0.00    +0.042 A 
ATOM     10  S   UNL     1      -1.411  -1.268  -2.590  0.00  0.00    -0.052 S 
ATOM     11 BR   UNL     1      -1.569  -5.984  -5.902  0.00  0.00    -0.050 Br
ATOM     12  C   UNL     1       1.018   1.998  -2.888  0.00  0.00    +0.245 C 
ATOM     13  O   UNL     1       1.669   1.659  -3.860  0.00  0.00    -0.270 OA
ENDROOT
BRANCH  12  14
ATOM     14  C   UNL     1       1.277   3.239  -2.261  0.00  0.00    +0.069 C 
ATOM     15  C   UNL     1       2.251   4.051  -2.743  0.00  0.00    +0.020 C 
BRANCH  15  16
ATOM     16  C   UNL     1       2.511   5.293  -2.115  0.00  0.00    +0.015 A 
ATOM     17  C   UNL     1       3.456   6.260  -2.441  0.00  0.00    +0.018 A 
ATOM     18  C   UNL     1       3.490   7.386  -1.658  0.00  0.00    +0.041 A 
ATOM     19  C   UNL     1       2.625   7.498  -0.616  0.00  0.00    +0.164 A 
ATOM     20  S   UNL     1       1.716   6.024  -0.694  0.00  0.00    -0.065 S 
BRANCH  19  21
ATOM     21  N   UNL     1       2.492   8.609   0.353  0.00  0.00    +0.063 N 
ATOM     22  O   UNL     1       3.218   9.583   0.266  0.00  0.00    -0.126 OA
ATOM     23  O   UNL     1       1.656   8.550   1.237  0.00  0.00    -0.126 OA
ENDBRANCH  19  21
ENDBRANCH  15  16
ENDBRANCH  12  14
BRANCH   1  24
ATOM     24  C   UNL     1      -0.733   1.599  -1.241  0.00  0.00    +0.097 C 
BRANCH  24  25
ATOM     25  C   UNL     1      -0.045   1.102   0.032  0.00  0.00    -0.059 C 
BRANCH  25  26
ATOM     26  N   UNL     1      -0.768   1.642   1.202  0.00  0.00    +0.380 N 
ATOM     27  H   UNL     1      -1.008   2.624   1.022  0.00  0.00    -0.082 HD
BRANCH  26  29
ATOM     28  C   UNL     1      -2.847   1.590   2.491  0.00  0.00    -0.017 C 
ATOM     29  C   UNL     1      -2.013   0.877   1.424  0.00  0.00    -0.082 C 
ENDBRANCH  26  29
BRANCH  26  30
ATOM     30  C   UNL     1       0.090   1.570   2.404  0.00  0.00    -0.082 C 
ATOM     31  C   UNL     1       1.114   2.705   2.344  0.00  0.00    -0.017 C 
ENDBRANCH  26  30
ENDBRANCH  25  26
ENDBRANCH  24  25
ENDBRANCH   1  24
TORSDOF 8
