REMARK  Name = ZINC48274880
REMARK  5 active torsions:
REMARK  status: ('A' for Active; 'I' for Inactive)
REMARK    1  A    between atoms: C_6  and  N_7
REMARK    2  A    between atoms: C_15  and  C_19
REMARK    3  A    between atoms: C_19  and  N_20
REMARK    4  A    between atoms: N_20  and  S_21
REMARK    5  A    between atoms: S_21  and  N_24
REMARK                            x       y       z     vdW  Elec       q    Type
REMARK                         _______ _______ _______ _____ _____    ______ ____
ROOT
ATOM      1  N   UNL     1      -1.231  -0.694  -2.376  0.00  0.00    -0.327 N 
ATOM      2  C   UNL     1      -1.230  -2.156  -2.518  0.00  0.00    +0.124 C 
ATOM      3  C   UNL     1      -1.980  -2.764  -1.326  0.00  0.00    +0.125 C 
ATOM      4  N   UNL     1      -3.265  -2.068  -1.175  0.00  0.00    -0.314 N 
ATOM      5  C   UNL     1      -3.266  -0.606  -1.034  0.00  0.00    +0.125 C 
ATOM      6  C   UNL     1      -2.516   0.002  -2.220  0.00  0.00    +0.124 C 
ATOM      7  C   UNL     1      -4.459  -2.781  -1.167  0.00  0.00    +0.099 A 
ATOM      8  C   UNL     1      -4.432  -4.172  -1.164  0.00  0.00    +0.046 A 
ATOM      9  C   UNL     1      -5.627  -4.868  -1.156  0.00  0.00    -0.027 A 
ATOM     10  C   UNL     1      -6.814  -4.147  -1.152  0.00  0.00    +0.022 A 
ATOM     11  C   UNL     1      -6.767  -2.767  -1.155  0.00  0.00    +0.084 A 
ATOM     12  N   UNL     1      -5.612  -2.129  -1.158  0.00  0.00    -0.350 N 
ATOM     13  H   UNL     1      -5.607  -1.159  -1.156  0.00  0.00    +0.166 HD
ENDROOT
BRANCH   1  19
ATOM     14  C   UNL     1      -0.049   1.411  -2.366  0.00  0.00    +0.026 A 
ATOM     15  C   UNL     1       1.139   2.117  -2.373  0.00  0.00    +0.040 A 
ATOM     16  C   UNL     1       2.347   1.441  -2.399  0.00  0.00    +0.124 A 
ATOM     17  C   UNL     1       2.368   0.057  -2.418  0.00  0.00    +0.040 A 
ATOM     18  C   UNL     1       1.183  -0.653  -2.411  0.00  0.00    +0.026 A 
ATOM     19  C   UNL     1      -0.030   0.023  -2.384  0.00  0.00    +0.030 A 
ATOM     20  F   UNL     1       3.507   2.134  -2.406  0.00  0.00    -0.205 F 
ENDBRANCH   1  19
BRANCH   9  21
ATOM     21  C   UNL     1      -5.640  -6.375  -1.153  0.00  0.00    +0.142 C 
BRANCH  21  22
ATOM     22  N   UNL     1      -5.638  -6.860   0.230  0.00  0.00    -0.175 NA
ATOM     23  H   UNL     1      -5.411  -6.257   0.955  0.00  0.00    +0.149 HD
BRANCH  22  24
ATOM     24  S   UNL     1      -6.021  -8.438   0.554  0.00  0.00    +0.097 S 
ATOM     25  O   UNL     1      -5.904  -8.603   1.961  0.00  0.00    -0.141 OA
ATOM     26  O   UNL     1      -7.225  -8.716  -0.148  0.00  0.00    -0.141 OA
BRANCH  24  27
ATOM     27  N   UNL     1      -4.845  -9.379  -0.133  0.00  0.00    -0.167 NA
ATOM     28  C   UNL     1      -4.981  -9.857  -1.516  0.00  0.00    +0.110 C 
ATOM     29  C   UNL     1      -3.726  -9.461  -2.300  0.00  0.00    +0.017 C 
ATOM     30  C   UNL     1      -2.487  -9.988  -1.572  0.00  0.00    +0.003 C 
ATOM     31  C   UNL     1      -2.405  -9.358  -0.179  0.00  0.00    +0.017 C 
ATOM     32  C   UNL     1      -3.643  -9.748   0.627  0.00  0.00    +0.110 C 
ENDBRANCH  24  27
ENDBRANCH  22  24
ENDBRANCH  21  22
ENDBRANCH   9  21
TORSDOF 5
