REMARK  Name = ZINC21809787
REMARK  9 active torsions:
REMARK  status: ('A' for Active; 'I' for Inactive)
REMARK    1  A    between atoms: C_1  and  C_2
REMARK    2  A    between atoms: C_2  and  C_26
REMARK    3  A    between atoms: N_14  and  C_15
REMARK    4  A    between atoms: C_15  and  C_16
REMARK    5  A    between atoms: C_20  and  O_24
REMARK    6  A    between atoms: C_21  and  O_22
REMARK    7  A    between atoms: O_22  and  C_23
REMARK    8  A    between atoms: O_24  and  C_25
REMARK    9  A    between atoms: N_28  and  C_29
REMARK                            x       y       z     vdW  Elec       q    Type
REMARK                         _______ _______ _______ _____ _____    ______ ____
ROOT
ATOM      1  C   UNL     1      -2.995   0.872   0.773  0.00  0.00    +0.043 C 
ATOM      2  C   UNL     1      -1.823   0.428   1.651  0.00  0.00    +0.129 C 
ATOM      3  C   UNL     1      -2.296   0.360   3.103  0.00  0.00    +0.157 C 
ATOM      4  N   UNL     1      -2.434   1.722   3.626  0.00  0.00    -0.333 N 
ATOM      5  C   UNL     1      -3.288   2.193   4.607  0.00  0.00    +0.057 A 
ATOM      6  C   UNL     1      -4.296   1.709   5.453  0.00  0.00    +0.034 A 
ATOM      7  C   UNL     1      -4.914   2.539   6.318  0.00  0.00    +0.048 A 
ATOM      8  S   UNL     1      -4.111   4.101   6.002  0.00  0.00    -0.095 S 
ATOM      9  C   UNL     1      -2.995   3.560   4.733  0.00  0.00    +0.038 A 
ATOM     10  C   UNL     1      -1.988   3.904   3.840  0.00  0.00    +0.048 A 
ATOM     11  C   UNL     1      -1.652   2.772   3.158  0.00  0.00    +0.106 A 
ATOM     12  C   UNL     1      -0.668   2.556   2.091  0.00  0.00    +0.264 C 
ATOM     13  O   UNL     1       0.143   3.410   1.784  0.00  0.00    -0.268 OA
ATOM     14  N   UNL     1      -0.715   1.357   1.463  0.00  0.00    -0.276 N 
ENDROOT
BRANCH   2  15
ATOM     15  C   UNL     1      -1.385  -0.947   1.217  0.00  0.00    +0.238 C 
ATOM     16  O   UNL     1      -2.086  -1.601   0.474  0.00  0.00    -0.273 OA
ATOM     17  N   UNL     1      -0.214  -1.450   1.655  0.00  0.00    -0.311 N 
ATOM     18  H   UNL     1       0.458  -0.828   2.265  0.00  0.00    +0.149 HD
BRANCH  17  19
ATOM     19  C   UNL     1       0.165  -2.825   1.319  0.00  0.00    +0.073 C 
ATOM     20  C   UNL     1      -0.499  -3.786   2.326  0.00  0.00    +0.022 C 
ATOM     21  C   UNL     1      -0.549  -5.160   1.712  0.00  0.00    +0.002 C 
ATOM     22  C   UNL     1       0.657  -6.029   2.117  0.00  0.00    +0.000 C 
ATOM     23  C   UNL     1       1.985  -5.248   2.107  0.00  0.00    +0.000 C 
ATOM     24  C   UNL     1       2.107  -4.334   0.918  0.00  0.00    +0.002 C 
ATOM     25  C   UNL     1       1.616  -2.930   1.328  0.00  0.00    +0.022 C 
ENDBRANCH  17  19
ENDBRANCH   2  15
BRANCH  14  26
ATOM     26  C   UNL     1       0.385   0.979   0.573  0.00  0.00    +0.148 C 
BRANCH  26  27
ATOM     27  C   UNL     1      -0.003   1.268  -0.855  0.00  0.00    +0.015 A 
ATOM     28  C   UNL     1      -0.483   0.251  -1.660  0.00  0.00    +0.009 A 
ATOM     29  C   UNL     1      -0.845   0.514  -2.968  0.00  0.00    +0.004 A 
ATOM     30  C   UNL     1      -0.717   1.792  -3.480  0.00  0.00    +0.049 A 
ATOM     31  C   UNL     1      -0.231   2.814  -2.681  0.00  0.00    +0.162 A 
ATOM     32  C   UNL     1       0.128   2.550  -1.362  0.00  0.00    +0.166 A 
BRANCH  32  33
ATOM     33  O   UNL     1       0.605   3.550  -0.573  0.00  0.00    -0.491 OA
ATOM     34  C   UNL     1       2.019   3.757  -0.572  0.00  0.00    +0.277 C 
ENDBRANCH  32  33
BRANCH  31  35
ATOM     35  O   UNL     1      -0.105   4.071  -3.183  0.00  0.00    -0.491 OA
ATOM     36  C   UNL     1      -0.492   4.268  -4.544  0.00  0.00    +0.277 C 
ENDBRANCH  31  35
ENDBRANCH  26  27
ENDBRANCH  14  26
TORSDOF 6
