REMARK  Name = ZINC13556211
REMARK  5 active torsions:
REMARK  status: ('A' for Active; 'I' for Inactive)
REMARK    1  A    between atoms: C_1  and  O_2
REMARK    2  A    between atoms: O_2  and  C_3
REMARK    3  A    between atoms: C_3  and  C_5
REMARK    4  A    between atoms: C_8  and  C_11
REMARK    5  A    between atoms: C_29  and  C_31
REMARK                            x       y       z     vdW  Elec       q    Type
REMARK                         _______ _______ _______ _____ _____    ______ ____
ROOT
ATOM      1  C   UNL     1       1.492  -6.045   1.449  0.00  0.00    +0.234 C 
ATOM      2  C   UNL     1       2.538  -6.735   0.623  0.00  0.00    +0.027 C 
ATOM      3  C   UNL     1       3.752  -7.010   1.142  0.00  0.00    +0.083 C 
ATOM      4  C   UNL     1       4.000  -6.614   2.552  0.00  0.00    +0.044 A 
ATOM      5  C   UNL     1       5.285  -6.550   3.072  0.00  0.00    +0.033 A 
ATOM      6  C   UNL     1       5.470  -6.175   4.391  0.00  0.00    +0.042 A 
ATOM      7  C   UNL     1       4.379  -5.864   5.186  0.00  0.00    +0.023 A 
ATOM      8  C   UNL     1       3.096  -5.926   4.673  0.00  0.00    +0.048 A 
ATOM      9  C   UNL     1       2.897  -6.301   3.357  0.00  0.00    +0.131 A 
ATOM     10  O   UNL     1       1.653  -6.377   2.829  0.00  0.00    -0.479 OA
ATOM     11 CL   UNL     1       7.073  -6.093   5.051  0.00  0.00    -0.084 Cl
ATOM     12  N   UNL     1       4.713  -7.626   0.410  0.00  0.00    -0.213 NA
ATOM     13  C   UNL     1       4.561  -8.012  -0.835  0.00  0.00    +0.237 C 
ATOM     14  N   UNL     1       5.399  -8.632  -1.696  0.00  0.00    -0.205 NA
ATOM     15  C   UNL     1       4.810  -8.823  -2.844  0.00  0.00    +0.203 C 
ATOM     16  N   UNL     1       3.541  -8.332  -2.791  0.00  0.00    -0.251 N 
ATOM     17  N   UNL     1       3.373  -7.808  -1.507  0.00  0.00    -0.208 N 
ATOM     18  C   UNL     1       2.267  -7.143  -0.808  0.00  0.00    +0.162 C 
ATOM     19  H   UNL     1       2.884  -8.343  -3.504  0.00  0.00    +0.171 HD
ENDROOT
BRANCH  18  20
ATOM     20  C   UNL     1       1.894  -5.907  -1.586  0.00  0.00    +0.014 A 
ATOM     21  C   UNL     1       2.877  -5.152  -2.197  0.00  0.00    +0.008 A 
ATOM     22  C   UNL     1       2.535  -4.019  -2.912  0.00  0.00    +0.001 A 
ATOM     23  C   UNL     1       1.210  -3.640  -3.015  0.00  0.00    +0.003 A 
ATOM     24  C   UNL     1       0.225  -4.393  -2.405  0.00  0.00    +0.039 A 
ATOM     25  C   UNL     1       0.566  -5.532  -1.694  0.00  0.00    +0.129 A 
ATOM     26  F   UNL     1      -0.396  -6.272  -1.101  0.00  0.00    -0.205 F 
ENDBRANCH  18  20
BRANCH   1  30
ATOM     27  C   UNL     1       1.867  -1.814   0.957  0.00  0.00    +0.059 A 
ATOM     28  C   UNL     1       2.872  -2.536   1.603  0.00  0.00    +0.015 A 
ATOM     29  C   UNL     1       2.744  -3.901   1.758  0.00  0.00    +0.008 A 
ATOM     30  C   UNL     1       1.624  -4.554   1.276  0.00  0.00    -0.003 A 
ATOM     31  C   UNL     1       0.624  -3.844   0.634  0.00  0.00    +0.008 A 
ATOM     32  C   UNL     1       0.736  -2.478   0.478  0.00  0.00    +0.015 A 
BRANCH  27  33
ATOM     33  C   UNL     1       1.996  -0.352   0.787  0.00  0.00    +0.339 C 
ATOM     34  O   UNL     1       1.117   0.275   0.230  0.00  0.00    -0.245 OA
BRANCH  33  36
ATOM     35  C   UNL     1       3.147   1.700   1.052  0.00  0.00    +0.280 C 
ATOM     36  O   UNL     1       3.088   0.286   1.251  0.00  0.00    -0.464 OA
ENDBRANCH  33  36
ENDBRANCH  27  33
ENDBRANCH   1  30
TORSDOF 4
