REMARK  Name = ZINC39384074
REMARK  7 active torsions:
REMARK  status: ('A' for Active; 'I' for Inactive)
REMARK    1  A    between atoms: C_1  and  C_2
REMARK    2  A    between atoms: C_5  and  N_8
REMARK    3  A    between atoms: C_17  and  C_21
REMARK    4  A    between atoms: N_19  and  C_20
REMARK    5  A    between atoms: N_23  and  C_24
REMARK    6  A    between atoms: C_24  and  C_25
REMARK    7  A    between atoms: C_25  and  C_26
REMARK                            x       y       z     vdW  Elec       q    Type
REMARK                         _______ _______ _______ _____ _____    ______ ____
ROOT
ATOM      1  N   UNL     1       0.057  -4.172  -0.021  0.00  0.00    -0.191 N 
ATOM      2  C   UNL     1       0.170  -4.833   1.156  0.00  0.00    +0.254 C 
ATOM      3  O   UNL     1       0.050  -4.258   2.217  0.00  0.00    -0.272 OA
ATOM      4  C   UNL     1       0.448  -6.308   1.093  0.00  0.00    +0.208 C 
ATOM      5  C   UNL     1      -0.225  -6.834  -0.163  0.00  0.00    +0.078 C 
ATOM      6  N   UNL     1      -0.335  -6.131  -1.262  0.00  0.00    -0.164 NA
ATOM      7  C   UNL     1      -0.043  -4.817  -1.195  0.00  0.00    +0.337 C 
ATOM      8  O   UNL     1       0.139  -4.200  -2.228  0.00  0.00    -0.250 OA
ATOM      9  C   UNL     1      -0.784  -8.064   0.218  0.00  0.00    +0.072 C 
ATOM     10  C   UNL     1      -0.751  -8.158   1.601  0.00  0.00    +0.085 C 
ATOM     11  N   UNL     1      -0.135  -7.084   2.181  0.00  0.00    -0.322 N 
ATOM     12  C   UNL     1      -0.075  -6.759   3.608  0.00  0.00    +0.130 C 
ENDROOT
BRANCH   1  17
ATOM     13  C   UNL     1      -0.016   1.503   0.013  0.00  0.00    +0.044 C 
ATOM     14  C   UNL     1       0.004  -0.004   0.003  0.00  0.00    -0.050 A 
ATOM     15  C   UNL     1      -1.185  -0.710   0.038  0.00  0.00    +0.005 A 
ATOM     16  C   UNL     1      -1.171  -2.091   0.030  0.00  0.00    +0.024 A 
ATOM     17  C   UNL     1       0.039  -2.771  -0.013  0.00  0.00    +0.046 A 
ATOM     18  C   UNL     1       1.231  -2.059  -0.049  0.00  0.00    +0.024 A 
ATOM     19  C   UNL     1       1.210  -0.678  -0.046  0.00  0.00    +0.005 A 
ENDBRANCH   1  17
BRANCH   9  20
ATOM     20  C   UNL     1      -1.315  -9.085  -0.697  0.00  0.00    +0.247 C 
ATOM     21  O   UNL     1      -1.778 -10.119  -0.253  0.00  0.00    -0.270 OA
ATOM     22  N   UNL     1      -1.290  -8.875  -2.028  0.00  0.00    -0.311 N 
ATOM     23  H   UNL     1      -0.922  -8.050  -2.382  0.00  0.00    +0.149 HD
BRANCH  22  24
ATOM     24  C   UNL     1      -1.820  -9.892  -2.940  0.00  0.00    +0.109 C 
BRANCH  24  25
ATOM     25  C   UNL     1      -1.673  -9.408  -4.384  0.00  0.00    +0.049 C 
BRANCH  25  26
ATOM     26  C   UNL     1      -2.217 -10.454  -5.323  0.00  0.00    -0.072 C 
ATOM     27  C   UNL     1      -3.441 -10.329  -5.725  0.00  0.00    -0.028 C 
ATOM     28  C   UNL     1      -4.125 -11.294  -6.649  0.00  0.00    +0.027 C 
ATOM     29  C   UNL     1      -3.088 -12.164  -7.364  0.00  0.00    +0.004 C 
ATOM     30  C   UNL     1      -2.123 -12.731  -6.314  0.00  0.00    +0.005 C 
ATOM     31  C   UNL     1      -1.305 -11.571  -5.737  0.00  0.00    +0.030 C 
ENDBRANCH  25  26
ENDBRANCH  24  25
ENDBRANCH  22  24
ENDBRANCH   9  20
TORSDOF 5
