REMARK  Name = ZINC60169776
REMARK  7 active torsions:
REMARK  status: ('A' for Active; 'I' for Inactive)
REMARK    1  A    between atoms: C_1  and  C_2
REMARK    2  A    between atoms: C_2  and  C_4
REMARK    3  A    between atoms: C_2  and  N_12
REMARK    4  A    between atoms: C_13  and  C_15
REMARK    5  A    between atoms: C_15  and  O_16
REMARK    6  A    between atoms: O_16  and  C_17
REMARK    7  A    between atoms: C_22  and  C_23
REMARK                            x       y       z     vdW  Elec       q    Type
REMARK                         _______ _______ _______ _____ _____    ______ ____
ROOT
ATOM      1  N   UNL     1      -1.367  -0.520  -0.079  0.00  0.00    -0.306 N 
ATOM      2  C   UNL     1      -1.943  -0.717  -1.281  0.00  0.00    +0.251 C 
ATOM      3  O   UNL     1      -1.329  -0.466  -2.296  0.00  0.00    -0.272 OA
ATOM      4  H   UNL     1      -1.858  -0.720   0.733  0.00  0.00    +0.149 HD
ENDROOT
BRANCH   1   6
ATOM      5  C   UNL     1      -0.028   1.526  -0.017  0.00  0.00    +0.033 C 
ATOM      6  C   UNL     1       0.002  -0.004   0.002  0.00  0.00    +0.102 C 
BRANCH   6   7
ATOM      7  C   UNL     1       0.643  -0.478   1.281  0.00  0.00    -0.009 A 
ATOM      8  C   UNL     1      -0.141  -0.765   2.382  0.00  0.00    +0.008 A 
ATOM      9  C   UNL     1       0.446  -1.200   3.555  0.00  0.00    +0.020 A 
ATOM     10  C   UNL     1       1.820  -1.350   3.627  0.00  0.00    +0.042 A 
ATOM     11  C   UNL     1       2.606  -1.063   2.525  0.00  0.00    +0.040 A 
ATOM     12  C   UNL     1       2.016  -0.632   1.350  0.00  0.00    +0.047 A 
ATOM     13 CL   UNL     1       3.001  -0.278  -0.036  0.00  0.00    -0.083 Cl
ATOM     14 CL   UNL     1       2.558  -1.896   5.101  0.00  0.00    -0.083 Cl
ENDBRANCH   6   7
ENDBRANCH   1   6
BRANCH   2  15
ATOM     15  C   UNL     1      -3.351  -1.248  -1.364  0.00  0.00    +0.324 C 
BRANCH  15  16
ATOM     16  O   UNL     1      -3.735  -1.368  -2.735  0.00  0.00    -0.482 OA
BRANCH  16  17
ATOM     17  C   UNL     1      -4.983  -1.836  -2.986  0.00  0.00    +0.135 A 
ATOM     18  C   UNL     1      -5.827  -2.167  -1.937  0.00  0.00    +0.066 A 
ATOM     19  C   UNL     1      -7.098  -2.644  -2.195  0.00  0.00    +0.044 A 
ATOM     20  C   UNL     1      -7.539  -2.793  -3.502  0.00  0.00    +0.021 A 
ATOM     21  C   UNL     1      -6.713  -2.469  -4.555  0.00  0.00    +0.018 A 
ATOM     22  C   UNL     1      -5.428  -1.980  -4.308  0.00  0.00    +0.078 A 
ATOM     23 CL   UNL     1      -8.149  -3.057  -0.877  0.00  0.00    -0.083 Cl
BRANCH  22  24
ATOM     24  C   UNL     1      -4.541  -1.625  -5.431  0.00  0.00    +0.245 C 
ATOM     25  O   UNL     1      -3.421  -1.205  -5.213  0.00  0.00    -0.270 OA
ATOM     26  N   UNL     1      -4.972  -1.765  -6.701  0.00  0.00    -0.325 N 
ATOM     27  H   UNL     1      -5.866  -2.100  -6.875  0.00  0.00    +0.145 HD
ATOM     28  H   UNL     1      -4.389  -1.531  -7.440  0.00  0.00    +0.145 HD
ENDBRANCH  22  24
ENDBRANCH  16  17
ENDBRANCH  15  16
ENDBRANCH   2  15
TORSDOF 6
