REMARK  Name = ZINC13273725
REMARK  6 active torsions:
REMARK  status: ('A' for Active; 'I' for Inactive)
REMARK    1  A    between atoms: C_6  and  N_7
REMARK    2  A    between atoms: C_13  and  C_30
REMARK    3  A    between atoms: C_17  and  S_18
REMARK    4  A    between atoms: S_18  and  C_19
REMARK    5  A    between atoms: C_22  and  N_27
REMARK    6  A    between atoms: C_23  and  C_25
REMARK                            x       y       z     vdW  Elec       q    Type
REMARK                         _______ _______ _______ _____ _____    ______ ____
ROOT
ATOM      1  N   UNL     1       4.773   2.112  -1.156  0.00  0.00    -0.255 N 
ATOM      2  C   UNL     1       5.451   3.263  -1.377  0.00  0.00    +0.267 A 
ATOM      3  O   UNL     1       6.608   3.251  -1.754  0.00  0.00    -0.267 OA
ATOM      4  C   UNL     1       4.739   4.528  -1.139  0.00  0.00    +0.065 A 
ATOM      5  C   UNL     1       5.358   5.763  -1.334  0.00  0.00    +0.016 A 
ATOM      6  C   UNL     1       4.664   6.916  -1.101  0.00  0.00    +0.016 A 
ATOM      7  C   UNL     1       3.332   6.871  -0.668  0.00  0.00    +0.065 A 
ATOM      8  C   UNL     1       2.696   5.652  -0.468  0.00  0.00    +0.043 A 
ATOM      9  C   UNL     1       3.397   4.466  -0.702  0.00  0.00    +0.080 A 
ATOM     10  N   UNL     1       2.818   3.256  -0.520  0.00  0.00    -0.222 NA
ATOM     11  C   UNL     1       3.472   2.142  -0.738  0.00  0.00    +0.181 A 
ENDROOT
BRANCH   1  17
ATOM     12  C   UNL     1       5.001   0.054  -2.402  0.00  0.00    +0.029 A 
ATOM     13  C   UNL     1       5.632  -1.157  -2.608  0.00  0.00    +0.040 A 
ATOM     14  C   UNL     1       6.663  -1.553  -1.772  0.00  0.00    +0.124 A 
ATOM     15  C   UNL     1       7.068  -0.732  -0.733  0.00  0.00    +0.040 A 
ATOM     16  C   UNL     1       6.443   0.483  -0.527  0.00  0.00    +0.029 A 
ATOM     17  C   UNL     1       5.409   0.881  -1.364  0.00  0.00    +0.052 A 
ATOM     18  F   UNL     1       7.275  -2.740  -1.972  0.00  0.00    -0.205 F 
ENDBRANCH   1  17
BRANCH   7  19
ATOM     19  C   UNL     1       2.597   8.132  -0.422  0.00  0.00    +0.387 C 
ATOM     20  O   UNL     1       1.443   8.098  -0.046  0.00  0.00    -0.241 OA
ATOM     21  O   UNL     1       3.209   9.316  -0.615  0.00  0.00    -0.241 OA
ENDBRANCH   7  19
BRANCH  11  22
ATOM     22  S   UNL     1       2.638   0.612  -0.474  0.00  0.00    -0.051 S 
BRANCH  22  23
ATOM     23  C   UNL     1       1.020   1.205  -0.108  0.00  0.00    +0.016 A 
ATOM     24  C   UNL     1       0.630   1.390   1.213  0.00  0.00    +0.017 A 
ATOM     25  C   UNL     1      -0.639   1.855   1.506  0.00  0.00    +0.034 A 
ATOM     26  C   UNL     1      -1.527   2.138   0.488  0.00  0.00    +0.140 A 
ATOM     27  C   UNL     1      -1.143   1.961  -0.843  0.00  0.00    +0.094 A 
ATOM     28  C   UNL     1       0.135   1.486  -1.138  0.00  0.00    +0.032 A 
BRANCH  27  29
ATOM     29  C   UNL     1      -2.090   2.269  -1.935  0.00  0.00    +0.389 C 
ATOM     30  O   UNL     1      -3.158   2.790  -1.684  0.00  0.00    -0.241 OA
ATOM     31  O   UNL     1      -1.769   1.971  -3.209  0.00  0.00    -0.241 OA
ENDBRANCH  27  29
BRANCH  26  32
ATOM     32  N   UNL     1      -2.884   2.635   0.807  0.00  0.00    +0.057 N 
ATOM     33  O   UNL     1      -3.025   3.575   1.569  0.00  0.00    -0.126 OA
ATOM     34  O   UNL     1      -3.860   2.105   0.307  0.00  0.00    -0.126 OA
ENDBRANCH  26  32
ENDBRANCH  22  23
ENDBRANCH  11  22
TORSDOF 6
