REMARK  Name = ZINC58644856
REMARK  4 active torsions:
REMARK  status: ('A' for Active; 'I' for Inactive)
REMARK    1  A    between atoms: C_4  and  N_7
REMARK    2  A    between atoms: N_7  and  C_8
REMARK    3  A    between atoms: C_11  and  N_14
REMARK    4  A    between atoms: C_15  and  C_17
REMARK                            x       y       z     vdW  Elec       q    Type
REMARK                         _______ _______ _______ _____ _____    ______ ____
ROOT
ATOM      1  N   UNL     1       3.921  -6.192   0.350  0.00  0.00    -0.281 N 
ATOM      2  C   UNL     1       5.117  -6.800   0.474  0.00  0.00    +0.254 C 
ATOM      3  O   UNL     1       6.141  -6.144   0.424  0.00  0.00    -0.270 OA
ATOM      4  H   UNL     1       3.113  -6.723   0.264  0.00  0.00    +0.155 HD
ENDROOT
BRANCH   2   5
ATOM      5  C   UNL     1       5.186  -8.257   0.670  0.00  0.00    +0.102 A 
ATOM      6  C   UNL     1       6.390  -8.881   0.964  0.00  0.00    +0.031 A 
ATOM      7  C   UNL     1       6.406 -10.281   1.145  0.00  0.00    +0.037 A 
ATOM      8  C   UNL     1       5.241 -11.021   1.039  0.00  0.00    +0.030 A 
ATOM      9  N   UNL     1       4.071 -10.416   0.748  0.00  0.00    -0.325 N 
ATOM     10  H   UNL     1       3.269 -10.956   0.671  0.00  0.00    +0.169 HD
ATOM     11  C   UNL     1       3.983  -9.088   0.567  0.00  0.00    +0.261 A 
ATOM     12  O   UNL     1       2.907  -8.576   0.313  0.00  0.00    -0.267 OA
ATOM     13  C   UNL     1       5.236 -12.513   1.250  0.00  0.00    +0.054 C 
ATOM     14  C   UNL     1       6.617 -13.113   1.008  0.00  0.00    +0.014 C 
ATOM     15  C   UNL     1       7.643 -12.392   1.893  0.00  0.00    +0.080 C 
ATOM     16  C   UNL     1       7.686 -10.946   1.445  0.00  0.00    +0.165 C 
ATOM     17  O   UNL     1       8.739 -10.355   1.337  0.00  0.00    -0.292 OA
ENDBRANCH   2   5
BRANCH   1  21
ATOM     18  C   UNL     1       3.689  -2.029   0.334  0.00  0.00    +0.031 A 
ATOM     19  C   UNL     1       2.597  -2.784   0.743  0.00  0.00    +0.025 A 
ATOM     20  C   UNL     1       2.674  -4.162   0.748  0.00  0.00    +0.025 A 
ATOM     21  C   UNL     1       3.843  -4.794   0.344  0.00  0.00    +0.034 A 
ATOM     22  C   UNL     1       4.934  -4.039  -0.065  0.00  0.00    +0.025 A 
ATOM     23  C   UNL     1       4.856  -2.661  -0.076  0.00  0.00    +0.025 A 
BRANCH  18  24
ATOM     24  N   UNL     1       3.611  -0.632   0.328  0.00  0.00    -0.314 N 
ATOM     25  H   UNL     1       4.133  -0.120  -0.309  0.00  0.00    +0.152 HD
BRANCH  24  29
ATOM     26  C   UNL     1       1.136   1.327   3.045  0.00  0.00    +0.000 A 
ATOM     27  C   UNL     1       1.631   0.070   3.343  0.00  0.00    +0.002 A 
ATOM     28  C   UNL     1       2.452  -0.582   2.445  0.00  0.00    +0.023 A 
ATOM     29  C   UNL     1       2.780   0.025   1.239  0.00  0.00    +0.031 A 
ATOM     30  C   UNL     1       2.282   1.287   0.942  0.00  0.00    +0.023 A 
ATOM     31  C   UNL     1       1.461   1.934   1.845  0.00  0.00    +0.002 A 
ENDBRANCH  24  29
ENDBRANCH  18  24
ENDBRANCH   1  21
TORSDOF 4
