REMARK  Name = ZINC09312964
REMARK  12 active torsions:
REMARK  status: ('A' for Active; 'I' for Inactive)
REMARK    1  A    between atoms: C_1  and  C_2
REMARK    2  A    between atoms: C_2  and  N_65
REMARK    3  A    between atoms: C_3  and  C_4
REMARK    4  A    between atoms: C_3  and  N_65
REMARK    5  A    between atoms: C_5  and  C_6
REMARK    6  A    between atoms: C_5  and  N_65
REMARK    7  A    between atoms: C_6  and  C_7
REMARK    8  A    between atoms: C_7  and  N_8
REMARK    9  A    between atoms: C_9  and  C_29
REMARK   10  A    between atoms: C_12  and  C_13
REMARK   11  A    between atoms: C_12  and  O_24
REMARK   12  A    between atoms: C_20  and  C_23
REMARK                            x       y       z     vdW  Elec       q    Type
REMARK                         _______ _______ _______ _____ _____    ______ ____
ROOT
ATOM      1  N   UNL     1       6.351  -4.019   4.262  0.00  0.00    -0.284 N 
ATOM      2  C   UNL     1       6.579  -2.639   3.822  0.00  0.00    +0.144 C 
ATOM      3  C   UNL     1       5.315  -2.194   3.124  0.00  0.00    +0.071 C 
ATOM      4  C   UNL     1       5.075  -0.961   2.549  0.00  0.00    +0.133 C 
ATOM      5  C   UNL     1       4.437  -3.286   3.172  0.00  0.00    +0.249 C 
ATOM      6  O   UNL     1       3.311  -3.318   2.709  0.00  0.00    -0.282 OA
ATOM      7  C   UNL     1       5.118  -4.399   3.888  0.00  0.00    +0.288 C 
ATOM      8  O   UNL     1       4.631  -5.490   4.102  0.00  0.00    -0.266 OA
ENDROOT
BRANCH   4   9
ATOM      9  C   UNL     1       3.741  -0.644   2.018  0.00  0.00    +0.017 A 
ATOM     10  C   UNL     1       2.597  -0.898   2.785  0.00  0.00    +0.015 A 
ATOM     11  C   UNL     1       1.351  -0.605   2.286  0.00  0.00    +0.046 A 
ATOM     12  C   UNL     1       1.212  -0.053   1.010  0.00  0.00    +0.124 A 
ATOM     13  C   UNL     1       2.352   0.206   0.255  0.00  0.00    -0.002 A 
ATOM     14  C   UNL     1       3.602  -0.085   0.741  0.00  0.00    +0.019 A 
ATOM     15  C   UNL     1       1.888   0.820  -1.052  0.00  0.00    +0.083 C 
ATOM     16  C   UNL     1       0.429   1.212  -0.720  0.00  0.00    +0.175 C 
ATOM     17  O   UNL     1       0.085   0.298   0.334  0.00  0.00    -0.488 OA
ATOM     18  C   UNL     1       0.355   2.659  -0.228  0.00  0.00    +0.052 C 
ENDBRANCH   4   9
BRANCH   2  19
ATOM     19  C   UNL     1       6.849  -1.758   5.014  0.00  0.00    -0.022 A 
ATOM     20  C   UNL     1       6.143  -1.948   6.188  0.00  0.00    +0.007 A 
ATOM     21  C   UNL     1       6.394  -1.143   7.283  0.00  0.00    +0.015 A 
ATOM     22  C   UNL     1       7.343  -0.140   7.201  0.00  0.00    +0.018 A 
ATOM     23  C   UNL     1       8.045   0.054   6.025  0.00  0.00    +0.015 A 
ATOM     24  C   UNL     1       7.798  -0.755   4.932  0.00  0.00    +0.007 A 
ATOM     25 BR   UNL     1       7.680   0.967   8.697  0.00  0.00    -0.050 Br
ENDBRANCH   2  19
BRANCH   4  26
ATOM     26  O   UNL     1       6.066  -0.047   2.473  0.00  0.00    -0.506 OA
ATOM     27  H   UNL     1       5.723   0.782   2.031  0.00  0.00    +0.292 HD
ENDBRANCH   4  26
BRANCH   1  28
ATOM     28  C   UNL     1       7.314  -4.850   4.989  0.00  0.00    +0.107 C 
BRANCH  28  29
ATOM     29  C   UNL     1       8.179  -5.621   3.989  0.00  0.00    +0.000 C 
BRANCH  29  30
ATOM     30  C   UNL     1       9.184  -6.489   4.748  0.00  0.00    -0.077 C 
BRANCH  30  31
ATOM     31  N   UNL     1       9.997  -7.243   3.770  0.00  0.00    +0.379 N 
ATOM     32  H   UNL     1       9.369  -7.726   3.116  0.00  0.00    -0.082 HD
BRANCH  31  34
ATOM     33  C   UNL     1      11.842  -5.606   3.944  0.00  0.00    -0.017 C 
ATOM     34  C   UNL     1      10.860  -6.315   3.009  0.00  0.00    -0.082 C 
ENDBRANCH  31  34
BRANCH  31  35
ATOM     35  C   UNL     1      10.827  -8.246   4.469  0.00  0.00    -0.082 C 
ATOM     36  C   UNL     1      11.376  -9.235   3.438  0.00  0.00    -0.017 C 
ENDBRANCH  31  35
ENDBRANCH  30  31
ENDBRANCH  29  30
ENDBRANCH  28  29
ENDBRANCH   1  28
TORSDOF 9
