REMARK  Name = ZINC15008633
REMARK  7 active torsions:
REMARK  status: ('A' for Active; 'I' for Inactive)
REMARK    1  A    between atoms: C_5  and  C_7
REMARK    2  A    between atoms: C_7  and  O_8
REMARK    3  A    between atoms: O_8  and  C_9
REMARK    4  A    between atoms: C_10  and  C_22
REMARK    5  A    between atoms: C_22  and  N_58
REMARK    6  A    between atoms: C_23  and  C_24
REMARK    7  A    between atoms: C_23  and  N_58
REMARK                            x       y       z     vdW  Elec       q    Type
REMARK                         _______ _______ _______ _____ _____    ______ ____
ROOT
ATOM      1  C   UNL     1       4.796   3.557  -0.023  0.00  0.00    +0.217 A 
ATOM      2  C   UNL     1       5.906   2.703  -0.032  0.00  0.00    -0.002 A 
ATOM      3  C   UNL     1       7.165   3.225  -0.046  0.00  0.00    +0.017 A 
ATOM      4  C   UNL     1       7.305   4.628  -0.039  0.00  0.00    +0.001 A 
ATOM      5  C   UNL     1       8.569   5.235  -0.045  0.00  0.00    +0.014 A 
ATOM      6  C   UNL     1       8.671   6.597  -0.041  0.00  0.00    -0.043 A 
ATOM      7  C   UNL     1       7.528   7.395  -0.031  0.00  0.00    -0.042 A 
ATOM      8  C   UNL     1       6.285   6.833  -0.023  0.00  0.00    +0.032 A 
ATOM      9  C   UNL     1       6.143   5.436  -0.026  0.00  0.00    +0.075 A 
ATOM     10  N   UNL     1       4.933   4.865  -0.018  0.00  0.00    -0.213 NA
ATOM     11  C   UNL     1       7.931   8.856  -0.030  0.00  0.00    +0.036 C 
ATOM     12  C   UNL     1       9.406   8.870  -0.485  0.00  0.00    +0.009 C 
ATOM     13  C   UNL     1       9.904   7.476  -0.048  0.00  0.00    +0.036 C 
ENDROOT
BRANCH   1  14
ATOM     14  O   UNL     1       3.550   3.022  -0.015  0.00  0.00    -0.471 OA
BRANCH  14  15
ATOM     15  C   UNL     1       2.452   3.936   0.000  0.00  0.00    +0.267 C 
BRANCH  15  20
ATOM     16  C   UNL     1      -0.013   1.076   0.008  0.00  0.00    +0.000 A 
ATOM     17  C   UNL     1      -1.219   1.750   0.017  0.00  0.00    +0.001 A 
ATOM     18  C   UNL     1      -1.239   3.132   0.031  0.00  0.00    +0.020 A 
ATOM     19  C   UNL     1      -0.050   3.841   0.023  0.00  0.00    +0.047 A 
ATOM     20  C   UNL     1       1.157   3.165   0.008  0.00  0.00    +0.008 A 
ATOM     21  C   UNL     1       1.175   1.783   0.000  0.00  0.00    +0.008 A 
ATOM     22 CL   UNL     1      -0.074   5.576   0.032  0.00  0.00    -0.083 Cl
ENDBRANCH  15  20
ENDBRANCH  14  15
ENDBRANCH   1  14
BRANCH   2  23
ATOM     23  C   UNL     1       5.709   1.209  -0.033  0.00  0.00    -0.041 C 
BRANCH  23  24
ATOM     24  N   UNL     1       5.396   0.763  -1.403  0.00  0.00    +0.382 N 
ATOM     25  H   UNL     1       6.173   1.012  -2.026  0.00  0.00    -0.085 HD
ATOM     26  H   UNL     1       4.538   1.228  -1.723  0.00  0.00    -0.085 HD
BRANCH  24  27
ATOM     27  C   UNL     1       5.198  -0.699  -1.434  0.00  0.00    -0.077 C 
BRANCH  27  28
ATOM     28  C   UNL     1       4.875  -1.131  -2.865  0.00  0.00    -0.006 C 
ATOM     29  C   UNL     1       6.096  -0.873  -3.764  0.00  0.00    +0.026 C 
ATOM     30  C   UNL     1       5.862  -1.598  -5.120  0.00  0.00    +0.166 C 
ATOM     31  S   UNL     1       5.119  -3.179  -4.532  0.00  0.00    -0.031 S 
ATOM     32  O   UNL     1       6.153  -4.138  -4.358  0.00  0.00    -0.174 OA
ATOM     33  O   UNL     1       4.000  -3.497  -5.348  0.00  0.00    -0.174 OA
ATOM     34  C   UNL     1       4.520  -2.638  -2.879  0.00  0.00    +0.167 C 
ENDBRANCH  27  28
ENDBRANCH  24  27
ENDBRANCH  23  24
ENDBRANCH   2  23
TORSDOF 7
