REMARK  Name = ZINC06164969
REMARK  13 active torsions:
REMARK  status: ('A' for Active; 'I' for Inactive)
REMARK    1  A    between atoms: C_1  and  C_2
REMARK    2  A    between atoms: C_2  and  O_3
REMARK    3  A    between atoms: O_3  and  C_4
REMARK    4  A    between atoms: C_4  and  C_6
REMARK    5  A    between atoms: C_7  and  C_22
REMARK    6  A    between atoms: N_8  and  C_21
REMARK    7  A    between atoms: C_11  and  C_17
REMARK    8  A    between atoms: C_12  and  O_16
REMARK    9  A    between atoms: C_17  and  N_18
REMARK   10  A    between atoms: N_18  and  C_19
REMARK   11  A    between atoms: N_18  and  C_20
REMARK   12  A    between atoms: C_22  and  S_23
REMARK   13  A    between atoms: S_23  and  C_26
REMARK                            x       y       z     vdW  Elec       q    Type
REMARK                         _______ _______ _______ _____ _____    ______ ____
ROOT
ATOM      1  C   UNL     1      -2.638  -2.223   0.017  0.00  0.00    +0.089 A 
ATOM      2  C   UNL     1      -3.377  -2.373  -1.121  0.00  0.00    +0.055 A 
ATOM      3  N   UNL     1      -4.593  -2.884  -0.812  0.00  0.00    -0.345 N 
ATOM      4  C   UNL     1      -4.699  -3.088   0.550  0.00  0.00    +0.051 A 
ATOM      5  C   UNL     1      -3.483  -2.692   1.130  0.00  0.00    +0.019 A 
ATOM      6  C   UNL     1      -3.299  -2.794   2.507  0.00  0.00    -0.011 A 
ATOM      7  C   UNL     1      -4.318  -3.290   3.298  0.00  0.00    +0.133 A 
ATOM      8  C   UNL     1      -5.522  -3.687   2.721  0.00  0.00    +0.061 A 
ATOM      9  C   UNL     1      -5.715  -3.581   1.361  0.00  0.00    +0.045 A 
ATOM     10 BR   UNL     1      -6.907  -4.365   3.816  0.00  0.00    -0.046 Br
ATOM     11  C   UNL     1      -5.648  -3.176  -1.785  0.00  0.00    +0.149 C 
ENDROOT
BRANCH   1  12
ATOM     12  C   UNL     1      -1.270  -1.702   0.112  0.00  0.00    +0.342 C 
ATOM     13  O   UNL     1      -0.325  -2.467   0.085  0.00  0.00    -0.245 OA
BRANCH  12  14
ATOM     14  O   UNL     1      -1.060  -0.375   0.229  0.00  0.00    -0.461 OA
BRANCH  14  16
ATOM     15  C   UNL     1       0.336   1.586   0.444  0.00  0.00    +0.048 C 
ATOM     16  C   UNL     1       0.298   0.062   0.317  0.00  0.00    +0.229 C 
ENDBRANCH  14  16
ENDBRANCH  12  14
ENDBRANCH   1  12
BRANCH   7  17
ATOM     17  O   UNL     1      -4.144  -3.392   4.643  0.00  0.00    -0.505 OA
ATOM     18  H   UNL     1      -4.412  -2.603   5.135  0.00  0.00    +0.292 HD
ENDBRANCH   7  17
BRANCH   6  19
ATOM     19  C   UNL     1      -1.996  -2.366   3.130  0.00  0.00    -0.039 C 
BRANCH  19  20
ATOM     20  N   UNL     1      -1.017  -3.455   3.017  0.00  0.00    +0.379 N 
ATOM     21  C   UNL     1       0.291  -2.991   3.497  0.00  0.00    -0.096 C 
ATOM     22  C   UNL     1      -1.459  -4.597   3.828  0.00  0.00    -0.096 C 
ATOM     23  H   UNL     1      -0.940  -3.739   2.051  0.00  0.00    -0.082 HD
ENDBRANCH  19  20
ENDBRANCH   6  19
BRANCH   2  24
ATOM     24  C   UNL     1      -2.911  -2.024  -2.510  0.00  0.00    +0.225 C 
BRANCH  24  25
ATOM     25  S   UNL     1      -3.341  -0.300  -2.877  0.00  0.00    +0.002 S 
ATOM     26  O   UNL     1      -4.752  -0.158  -2.974  0.00  0.00    -0.169 OA
ATOM     27  O   UNL     1      -2.579   0.578  -2.061  0.00  0.00    -0.169 OA
BRANCH  25  28
ATOM     28  C   UNL     1      -2.747  -0.024  -4.513  0.00  0.00    +0.089 A 
ATOM     29  C   UNL     1      -1.459   0.436  -4.712  0.00  0.00    +0.027 A 
ATOM     30  C   UNL     1      -0.993   0.653  -5.995  0.00  0.00    +0.002 A 
ATOM     31  C   UNL     1      -1.815   0.410  -7.079  0.00  0.00    +0.000 A 
ATOM     32  C   UNL     1      -3.103  -0.051  -6.880  0.00  0.00    +0.002 A 
ATOM     33  C   UNL     1      -3.567  -0.272  -5.597  0.00  0.00    +0.027 A 
ENDBRANCH  25  28
ENDBRANCH  24  25
ENDBRANCH   2  24
TORSDOF 9
