REMARK  Name = ZINC13500758
REMARK  16 active torsions:
REMARK  status: ('A' for Active; 'I' for Inactive)
REMARK    1  A    between atoms: C_1  and  C_2
REMARK    2  A    between atoms: C_2  and  C_3
REMARK    3  A    between atoms: C_3  and  C_4
REMARK    4  A    between atoms: C_4  and  C_6
REMARK    5  A    between atoms: C_4  and  N_74
REMARK    6  A    between atoms: N_10  and  C_11
REMARK    7  A    between atoms: C_11  and  C_12
REMARK    8  A    between atoms: C_11  and  C_13
REMARK    9  A    between atoms: C_11  and  C_14
REMARK   10  A    between atoms: C_15  and  C_16
REMARK   11  A    between atoms: C_15  and  N_74
REMARK   12  A    between atoms: C_16  and  C_17
REMARK   13  A    between atoms: C_21  and  C_23
REMARK   14  A    between atoms: C_24  and  C_25
REMARK   15  A    between atoms: C_24  and  N_74
REMARK   16  A    between atoms: C_31  and  C_37
REMARK                            x       y       z     vdW  Elec       q    Type
REMARK                         _______ _______ _______ _____ _____    ______ ____
ROOT
ATOM      1  N   UNL     1      -1.727   3.537  -0.727  0.00  0.00    +0.389 N 
ATOM      2  H   UNL     1      -2.510   2.898  -0.905  0.00  0.00    -0.080 HD
ENDROOT
BRANCH   1   3
ATOM      3  C   UNL     1      -1.535   3.668   0.733  0.00  0.00    +0.003 C 
BRANCH   3   4
ATOM      4  C   UNL     1      -1.847   2.343   1.379  0.00  0.00    +0.139 A 
ATOM      5  N   UNL     1      -1.572   1.155   0.900  0.00  0.00    -0.115 NA
ATOM      6  N   UNL     1      -1.996   0.278   1.744  0.00  0.00    -0.023 NA
ATOM      7  N   UNL     1      -2.535   0.876   2.748  0.00  0.00    -0.043 NA
ATOM      8  N   UNL     1      -2.458   2.151   2.563  0.00  0.00    -0.226 N 
BRANCH   8   9
ATOM      9  C   UNL     1      -2.946   3.193   3.470  0.00  0.00    +0.059 C 
ATOM     10  C   UNL     1      -4.107   3.940   2.810  0.00  0.00    +0.036 C 
ATOM     11  C   UNL     1      -3.428   2.551   4.773  0.00  0.00    +0.036 C 
ATOM     12  C   UNL     1      -1.815   4.176   3.774  0.00  0.00    +0.036 C 
ENDBRANCH   8   9
ENDBRANCH   3   4
BRANCH   3  13
ATOM     13  C   UNL     1      -0.091   4.062   1.049  0.00  0.00    -0.008 C 
BRANCH  13  15
ATOM     14  C   UNL     1       1.663   5.809   0.711  0.00  0.00    +0.004 C 
ATOM     15  C   UNL     1       0.260   5.352   0.305  0.00  0.00    -0.005 C 
ENDBRANCH  13  15
ENDBRANCH   3  13
ENDBRANCH   1   3
BRANCH   1  16
ATOM     16  C   UNL     1      -2.041   4.856  -1.315  0.00  0.00    -0.073 C 
BRANCH  16  17
ATOM     17  C   UNL     1      -3.487   5.217  -0.969  0.00  0.00    +0.016 C 
BRANCH  17  18
ATOM     18  C   UNL     1      -3.884   6.468  -1.709  0.00  0.00    -0.049 A 
ATOM     19  C   UNL     1      -3.594   7.709  -1.175  0.00  0.00    +0.003 A 
ATOM     20  C   UNL     1      -3.955   8.857  -1.855  0.00  0.00    +0.001 A 
ATOM     21  C   UNL     1      -4.614   8.763  -3.067  0.00  0.00    +0.003 A 
ATOM     22  C   UNL     1      -4.908   7.522  -3.600  0.00  0.00    -0.050 A 
ATOM     23  C   UNL     1      -4.543   6.374  -2.920  0.00  0.00    +0.007 A 
ATOM     24  C   UNL     1      -5.626   7.420  -4.920  0.00  0.00    +0.044 C 
ENDBRANCH  17  18
ENDBRANCH  16  17
ENDBRANCH   1  16
BRANCH   1  25
ATOM     25  C   UNL     1      -0.505   2.985  -1.349  0.00  0.00    -0.037 C 
BRANCH  25  26
ATOM     26  C   UNL     1      -0.551   1.482  -1.246  0.00  0.00    +0.001 A 
ATOM     27  C   UNL     1      -1.451   0.782  -1.980  0.00  0.00    +0.017 A 
ATOM     28  C   UNL     1      -1.467  -0.677  -1.861  0.00  0.00    -0.001 A 
ATOM     29  C   UNL     1      -2.369  -1.454  -2.596  0.00  0.00    +0.010 A 
ATOM     30  C   UNL     1      -2.361  -2.813  -2.459  0.00  0.00    +0.001 A 
ATOM     31  C   UNL     1      -1.466  -3.430  -1.596  0.00  0.00    +0.005 A 
ATOM     32  C   UNL     1      -0.569  -2.686  -0.861  0.00  0.00    -0.026 A 
ATOM     33  C   UNL     1      -0.558  -1.300  -0.985  0.00  0.00    +0.052 A 
ATOM     34  N   UNL     1       0.329  -0.530  -0.263  0.00  0.00    -0.322 N 
ATOM     35  H   UNL     1       0.954  -0.961   0.341  0.00  0.00    +0.169 HD
ATOM     36  C   UNL     1       0.339   0.809  -0.383  0.00  0.00    +0.251 A 
ATOM     37  O   UNL     1       1.137   1.458   0.272  0.00  0.00    -0.268 OA
ATOM     38  C   UNL     1       0.396  -3.369   0.072  0.00  0.00    +0.046 C 
ENDBRANCH  25  26
ENDBRANCH   1  25
TORSDOF 10
