REMARK  Name = ZINC11996355
REMARK  8 active torsions:
REMARK  status: ('A' for Active; 'I' for Inactive)
REMARK    1  A    between atoms: C_1  and  C_2
REMARK    2  A    between atoms: C_5  and  C_34
REMARK    3  A    between atoms: C_6  and  C_8
REMARK    4  A    between atoms: C_8  and  N_68
REMARK    5  A    between atoms: C_11  and  C_14
REMARK    6  A    between atoms: C_14  and  C_28
REMARK    7  A    between atoms: N_17  and  C_21
REMARK    8  A    between atoms: C_21  and  C_22
REMARK                            x       y       z     vdW  Elec       q    Type
REMARK                         _______ _______ _______ _____ _____    ______ ____
ROOT
ATOM      1  C   UNL     1       1.054   1.834   0.121  0.00  0.00    +0.157 C 
ATOM      2  C   UNL     1      -0.084   0.836   0.196  0.00  0.00    +0.253 C 
ATOM      3  O   UNL     1       0.003  -0.373   0.222  0.00  0.00    -0.272 OA
ATOM      4  N   UNL     1      -1.213   1.572   0.221  0.00  0.00    -0.221 N 
ATOM      5  C   UNL     1      -0.948   2.882   0.182  0.00  0.00    +0.310 C 
ATOM      6  O   UNL     1      -1.804   3.745   0.198  0.00  0.00    -0.252 OA
ATOM      7  N   UNL     1       0.371   3.139   0.118  0.00  0.00    -0.280 N 
ATOM      8  H   UNL     1       0.790   4.013   0.078  0.00  0.00    +0.152 HD
ENDROOT
BRANCH   1  11
ATOM      9  C   UNL     1       3.975   2.631   2.499  0.00  0.00    -0.078 C 
ATOM     10  C   UNL     1       3.103   2.723   1.244  0.00  0.00    -0.012 C 
ATOM     11  C   UNL     1       1.964   1.705   1.345  0.00  0.00    +0.024 C 
ATOM     12  C   UNL     1       1.155   1.980   2.615  0.00  0.00    -0.012 C 
ATOM     13  C   UNL     1       2.083   1.910   3.830  0.00  0.00    -0.078 C 
ATOM     14  N   UNL     1       3.143   2.930   3.684  0.00  0.00    +0.382 N 
ATOM     15  H   UNL     1       2.705   3.850   3.559  0.00  0.00    -0.081 HD
BRANCH  14  16
ATOM     16  C   UNL     1       3.985   2.960   4.897  0.00  0.00    -0.043 C 
BRANCH  16  22
ATOM     17  C   UNL     1       1.443   2.589   9.192  0.00  0.00    +0.044 C 
ATOM     18  C   UNL     1       1.988   3.430   8.067  0.00  0.00    -0.050 A 
ATOM     19  C   UNL     1       1.771   4.795   8.056  0.00  0.00    +0.003 A 
ATOM     20  C   UNL     1       2.271   5.566   7.024  0.00  0.00    +0.004 A 
ATOM     21  C   UNL     1       2.991   4.973   6.004  0.00  0.00    -0.049 A 
ATOM     22  C   UNL     1       3.204   3.607   6.012  0.00  0.00    -0.061 A 
ATOM     23  C   UNL     1       2.705   2.836   7.045  0.00  0.00    +0.005 A 
ATOM     24  C   UNL     1       3.541   5.815   4.881  0.00  0.00    +0.044 C 
ENDBRANCH  16  22
ENDBRANCH  14  16
ENDBRANCH   1  11
BRANCH   1  25
ATOM     25  C   UNL     1       1.845   1.643  -1.147  0.00  0.00    +0.074 A 
ATOM     26  C   UNL     1       1.239   1.866  -2.370  0.00  0.00    +0.026 A 
ATOM     27  C   UNL     1       1.975   1.688  -3.531  0.00  0.00    +0.003 A 
ATOM     28  C   UNL     1       3.299   1.290  -3.419  0.00  0.00    +0.020 A 
ATOM     29  C   UNL     1       3.836   1.086  -2.162  0.00  0.00    +0.111 A 
ATOM     30  N   UNL     1       3.107   1.270  -1.079  0.00  0.00    -0.257 NA
ENDBRANCH   1  25
BRANCH   4  31
ATOM     31  C   UNL     1      -2.563   1.006   0.286  0.00  0.00    +0.149 C 
BRANCH  31  32
ATOM     32  C   UNL     1      -2.978   0.844   1.750  0.00  0.00    +0.136 C 
ATOM     33  C   UNL     1      -4.390   0.214   1.842  0.00  0.00    +0.035 C 
ATOM     34  C   UNL     1      -4.331  -0.436   3.253  0.00  0.00    +0.031 C 
ATOM     35  C   UNL     1      -2.853  -0.869   3.353  0.00  0.00    +0.160 C 
ATOM     36  O   UNL     1      -2.107  -0.085   2.415  0.00  0.00    -0.375 OA
ENDBRANCH  31  32
ENDBRANCH   4  31
TORSDOF 6
