REMARK  Name = ZINC36813012
REMARK  6 active torsions:
REMARK  status: ('A' for Active; 'I' for Inactive)
REMARK    1  A    between atoms: C_1  and  C_2
REMARK    2  A    between atoms: C_2  and  N_3
REMARK    3  A    between atoms: C_7  and  C_9
REMARK    4  A    between atoms: C_9  and  N_10
REMARK    5  A    between atoms: N_10  and  C_11
REMARK    6  A    between atoms: C_20  and  N_21
REMARK                            x       y       z     vdW  Elec       q    Type
REMARK                         _______ _______ _______ _____ _____    ______ ____
ROOT
ATOM      1  C   UNL     1       0.554  -2.476  -2.591  0.00  0.00    +0.059 A 
ATOM      2  C   UNL     1       0.935  -1.710  -3.716  0.00  0.00    +0.022 A 
ATOM      3  C   UNL     1       1.795  -0.609  -3.590  0.00  0.00    +0.027 A 
ATOM      4  C   UNL     1       2.140   0.106  -4.698  0.00  0.00    +0.019 A 
ATOM      5  C   UNL     1       1.649  -0.244  -5.955  0.00  0.00    +0.017 A 
ATOM      6  C   UNL     1       0.813  -1.306  -6.111  0.00  0.00    +0.027 A 
ATOM      7  C   UNL     1       0.434  -2.068  -4.991  0.00  0.00    +0.048 A 
ATOM      8  N   UNL     1      -0.386  -3.117  -5.119  0.00  0.00    -0.359 N 
ATOM      9  C   UNL     1      -0.749  -3.839  -4.085  0.00  0.00    +0.107 A 
ATOM     10  C   UNL     1      -0.297  -3.556  -2.798  0.00  0.00    +0.062 A 
ATOM     11 BR   UNL     1       3.299   1.590  -4.528  0.00  0.00    -0.050 Br
ATOM     12  H   UNL     1      -0.720  -3.350  -6.000  0.00  0.00    +0.165 HD
ENDROOT
BRANCH  10  13
ATOM     13  N   UNL     1      -0.701  -4.354  -1.717  0.00  0.00    -0.355 N 
ATOM     14  H   UNL     1      -0.454  -4.106  -0.812  0.00  0.00    +0.142 HD
ATOM     15  H   UNL     1      -1.228  -5.153  -1.874  0.00  0.00    +0.142 HD
ENDBRANCH  10  13
BRANCH   1  16
ATOM     16  N   UNL     1       1.020  -2.163  -1.318  0.00  0.00    -0.343 N 
ATOM     17  H   UNL     1       1.897  -2.465  -1.034  0.00  0.00    +0.146 HD
BRANCH  16  18
ATOM     18  C   UNL     1       0.186  -1.377  -0.406  0.00  0.00    +0.086 C 
BRANCH  18  23
ATOM     19  N   UNL     1       0.030   0.777   0.773  0.00  0.00    +0.382 N 
ATOM     20  C   UNL     1       0.656   0.979   2.097  0.00  0.00    -0.078 C 
ATOM     21  C   UNL     1       2.170   0.752   1.858  0.00  0.00    -0.020 C 
ATOM     22  C   UNL     1       2.154  -0.403   0.822  0.00  0.00    -0.016 C 
ATOM     23  C   UNL     1       0.913  -0.082  -0.038  0.00  0.00    -0.051 C 
ATOM     24  H   UNL     1      -0.089   1.669   0.316  0.00  0.00    -0.081 HD
BRANCH  19  26
ATOM     25  C   UNL     1      -2.097   0.888   1.980  0.00  0.00    -0.017 C 
ATOM     26  C   UNL     1      -1.276   0.126   0.938  0.00  0.00    -0.082 C 
ENDBRANCH  19  26
ENDBRANCH  18  23
ENDBRANCH  16  18
ENDBRANCH   1  16
TORSDOF 5
