REMARK  Name = ZINC08217053
REMARK  4 active torsions:
REMARK  status: ('A' for Active; 'I' for Inactive)
REMARK    1  A    between atoms: C_1  and  C_2
REMARK    2  A    between atoms: C_3  and  C_15
REMARK    3  A    between atoms: N_5  and  C_7
REMARK    4  A    between atoms: N_16  and  N_17
REMARK                            x       y       z     vdW  Elec       q    Type
REMARK                         _______ _______ _______ _____ _____    ______ ____
ROOT
ATOM      1  C   UNL     1      -2.814   2.996   5.939  0.00  0.00    +0.068 C 
ATOM      2  C   UNL     1      -1.569   2.149   5.990  0.00  0.00    +0.070 A 
ATOM      3  C   UNL     1      -0.854   1.660   4.874  0.00  0.00    +0.054 A 
ATOM      4  C   UNL     1       0.219   0.940   5.359  0.00  0.00    +0.142 A 
ATOM      5  N   UNL     1       0.156   0.984   6.708  0.00  0.00    -0.221 N 
ATOM      6  N   UNL     1      -0.965   1.738   7.072  0.00  0.00    -0.170 NA
ATOM      7 CL   UNL     1       1.426   0.128   4.412  0.00  0.00    -0.061 Cl
ENDROOT
BRANCH   5   8
ATOM      8  C   UNL     1       1.060   0.378   7.591  0.00  0.00    +0.068 A 
ATOM      9  C   UNL     1       1.634  -0.845   7.269  0.00  0.00    +0.028 A 
ATOM     10  C   UNL     1       2.527  -1.438   8.139  0.00  0.00    +0.003 A 
ATOM     11  C   UNL     1       2.844  -0.821   9.335  0.00  0.00    +0.020 A 
ATOM     12  C   UNL     1       2.270   0.395   9.662  0.00  0.00    +0.043 A 
ATOM     13  C   UNL     1       1.378   0.996   8.793  0.00  0.00    +0.047 A 
ATOM     14 CL   UNL     1       2.669   1.167  11.165  0.00  0.00    -0.083 Cl
ENDBRANCH   5   8
BRANCH   3  15
ATOM     15  C   UNL     1      -1.188   1.882   3.455  0.00  0.00    +0.143 C 
ATOM     16  N   UNL     1      -0.439   1.376   2.525  0.00  0.00    -0.183 NA
BRANCH  16  17
ATOM     17  N   UNL     1      -0.756   1.588   1.177  0.00  0.00    -0.168 N 
ATOM     18  C   UNL     1      -0.013   1.086   0.008  0.00  0.00    +0.232 C 
ATOM     19  C   UNL     1      -0.800   1.615  -1.174  0.00  0.00    +0.240 C 
ATOM     20  O   UNL     1      -0.555   1.451  -2.350  0.00  0.00    -0.274 OA
ATOM     21  N   UNL     1      -1.830   2.306  -0.646  0.00  0.00    -0.237 N 
ATOM     22  C   UNL     1      -1.802   2.288   0.692  0.00  0.00    +0.328 C 
ATOM     23  O   UNL     1      -2.626   2.842   1.393  0.00  0.00    -0.250 OA
ATOM     24  H   UNL     1      -2.507   2.762  -1.171  0.00  0.00    +0.159 HD
ENDBRANCH  16  17
ENDBRANCH   3  15
TORSDOF 3
