REMARK  Name = ZINC09346642
REMARK  8 active torsions:
REMARK  status: ('A' for Active; 'I' for Inactive)
REMARK    1  A    between atoms: C_1  and  C_2
REMARK    2  A    between atoms: C_2  and  C_3
REMARK    3  A    between atoms: N_9  and  S_10
REMARK    4  A    between atoms: S_10  and  C_13
REMARK    5  A    between atoms: C_16  and  C_19
REMARK    6  A    between atoms: C_25  and  C_27
REMARK    7  A    between atoms: C_30  and  S_33
REMARK    8  A    between atoms: S_33  and  C_34
REMARK                            x       y       z     vdW  Elec       q    Type
REMARK                         _______ _______ _______ _____ _____    ______ ____
ROOT
ATOM      1  C   UNL     1      -3.412   0.332  -1.248  0.00  0.00    +0.106 A 
ATOM      2  C   UNL     1      -3.636  -0.548  -0.204  0.00  0.00    +0.029 A 
ATOM      3  C   UNL     1      -4.899  -0.674   0.337  0.00  0.00    +0.015 A 
ATOM      4  C   UNL     1      -5.954   0.080  -0.179  0.00  0.00    +0.037 A 
ATOM      5  C   UNL     1      -5.722   0.962  -1.236  0.00  0.00    +0.015 A 
ATOM      6  C   UNL     1      -4.453   1.083  -1.764  0.00  0.00    +0.029 A 
ENDROOT
BRANCH   4   7
ATOM      7  C   UNL     1      -7.311  -0.054   0.392  0.00  0.00    +0.252 C 
ATOM      8  O   UNL     1      -8.228   0.605  -0.059  0.00  0.00    -0.270 OA
ATOM      9  N   UNL     1      -7.531  -0.906   1.412  0.00  0.00    -0.234 N 
ATOM     10  C   UNL     1      -8.803  -1.032   1.947  0.00  0.00    +0.315 A 
ATOM     11  N   UNL     1      -9.874  -0.381   1.562  0.00  0.00    -0.092 NA
ATOM     12  N   UNL     1     -10.879  -0.749   2.276  0.00  0.00    -0.106 NA
ATOM     13  C   UNL     1     -10.486  -1.643   3.152  0.00  0.00    +0.250 A 
ATOM     14  O   UNL     1      -9.164  -1.840   2.962  0.00  0.00    -0.405 OA
ATOM     15  H   UNL     1      -6.800  -1.432   1.772  0.00  0.00    +0.160 HD
BRANCH  13  16
ATOM     16  C   UNL     1     -11.334  -2.309   4.162  0.00  0.00    +0.039 A 
ATOM     17  C   UNL     1     -10.777  -3.250   5.032  0.00  0.00    +0.014 A 
ATOM     18  C   UNL     1     -11.570  -3.867   5.975  0.00  0.00    +0.015 A 
ATOM     19  C   UNL     1     -12.925  -3.562   6.054  0.00  0.00    +0.008 A 
ATOM     20  C   UNL     1     -13.483  -2.629   5.186  0.00  0.00    +0.015 A 
ATOM     21  C   UNL     1     -12.695  -2.005   4.244  0.00  0.00    +0.014 A 
BRANCH  19  22
ATOM     22  S   UNL     1     -13.936  -4.359   7.257  0.00  0.00    -0.129 S 
ATOM     23  C   UNL     1     -12.792  -5.460   8.132  0.00  0.00    +0.090 C 
ENDBRANCH  19  22
ENDBRANCH  13  16
ENDBRANCH   4   7
BRANCH   1  24
ATOM     24  S   UNL     1      -1.795   0.491  -1.929  0.00  0.00    +0.061 S 
ATOM     25  O   UNL     1      -1.944   1.143  -3.183  0.00  0.00    -0.153 OA
ATOM     26  O   UNL     1      -1.173  -0.780  -1.801  0.00  0.00    -0.153 OA
BRANCH  24  32
ATOM     27  C   UNL     1      -1.117   2.984  -1.089  0.00  0.00    +0.080 C 
ATOM     28  C   UNL     1      -1.478   3.570   0.280  0.00  0.00    +0.021 C 
ATOM     29  C   UNL     1      -0.421   3.150   1.304  0.00  0.00    +0.003 C 
ATOM     30  C   UNL     1      -0.396   1.624   1.423  0.00  0.00    +0.017 C 
ATOM     31  C   UNL     1      -0.027   1.016   0.066  0.00  0.00    +0.110 C 
ATOM     32  N   UNL     1      -0.953   1.530  -0.953  0.00  0.00    -0.174 NA
BRANCH  27  34
ATOM     33  C   UNL     1      -2.488   4.790  -2.137  0.00  0.00    +0.005 C 
ATOM     34  C   UNL     1      -2.237   3.282  -2.088  0.00  0.00    +0.017 C 
ENDBRANCH  27  34
ENDBRANCH  24  32
ENDBRANCH   1  24
TORSDOF 6
