REMARK  Name = ZINC49523351
REMARK  8 active torsions:
REMARK  status: ('A' for Active; 'I' for Inactive)
REMARK    1  A    between atoms: C_1  and  C_2
REMARK    2  A    between atoms: C_5  and  N_29
REMARK    3  A    between atoms: C_7  and  N_8
REMARK    4  A    between atoms: C_9  and  C_11
REMARK    5  A    between atoms: N_13  and  C_14
REMARK    6  A    between atoms: C_14  and  C_15
REMARK    7  A    between atoms: C_21  and  C_23
REMARK    8  A    between atoms: C_23  and  C_24
REMARK                            x       y       z     vdW  Elec       q    Type
REMARK                         _______ _______ _______ _____ _____    ______ ____
ROOT
ATOM      1  C   UNL     1      -0.167   0.052   4.869  0.00  0.00    +0.299 C 
ATOM      2  O   UNL     1      -0.183   1.266   4.872  0.00  0.00    -0.265 OA
ATOM      3  N   UNL     1      -0.248  -0.625   6.031  0.00  0.00    -0.307 N 
ATOM      4  H   UNL     1      -0.235  -1.595   6.029  0.00  0.00    +0.149 HD
ENDROOT
BRANCH   1   6
ATOM      5  N   UNL     1       0.025  -0.013   2.416  0.00  0.00    -0.277 N 
ATOM      6  C   UNL     1      -0.057  -0.690   3.578  0.00  0.00    +0.303 C 
ATOM      7  O   UNL     1      -0.040  -1.904   3.575  0.00  0.00    -0.265 OA
ATOM      8  H   UNL     1       0.078   0.956   2.422  0.00  0.00    +0.155 HD
BRANCH   5  15
ATOM      9  C   UNL     1      -1.267   1.183   0.183  0.00  0.00    +0.045 C 
ATOM     10  C   UNL     1      -0.586  -0.158   0.085  0.00  0.00    -0.029 A 
ATOM     11  C   UNL     1      -0.574  -0.840  -1.117  0.00  0.00    +0.007 A 
ATOM     12  C   UNL     1       0.049  -2.069  -1.210  0.00  0.00    +0.025 A 
ATOM     13  C   UNL     1       0.666  -2.625  -0.095  0.00  0.00    +0.053 A 
ATOM     14  C   UNL     1       0.655  -1.943   1.113  0.00  0.00    +0.048 A 
ATOM     15  C   UNL     1       0.033  -0.705   1.202  0.00  0.00    +0.039 A 
BRANCH  13  16
ATOM     16  N   UNL     1       1.295  -3.868  -0.191  0.00  0.00    -0.207 N 
ATOM     17  C   UNL     1       1.532  -4.830   0.901  0.00  0.00    +0.133 C 
ATOM     18  C   UNL     1       1.557  -6.273   0.363  0.00  0.00    +0.045 C 
ATOM     19  C   UNL     1       2.447  -6.213  -0.915  0.00  0.00    +0.190 C 
ATOM     20  S   UNL     1       1.929  -4.576  -1.572  0.00  0.00    +0.046 S 
ATOM     21  O   UNL     1       0.832  -4.714  -2.465  0.00  0.00    -0.155 OA
ATOM     22  O   UNL     1       3.063  -3.791  -1.914  0.00  0.00    -0.155 OA
ENDBRANCH  13  16
ENDBRANCH   5  15
ENDBRANCH   1   6
BRANCH   3  23
ATOM     23  C   UNL     1      -0.357   0.103   7.298  0.00  0.00    +0.108 C 
BRANCH  23  24
ATOM     24  C   UNL     1      -0.434  -0.895   8.455  0.00  0.00    +0.009 C 
ATOM     25  C   UNL     1      -1.725  -1.708   8.342  0.00  0.00    +0.024 C 
ATOM     26  C   UNL     1      -1.782  -2.730   9.482  0.00  0.00    +0.108 C 
ATOM     27  N   UNL     1      -1.625  -2.022  10.760  0.00  0.00    -0.301 N 
ATOM     28  C   UNL     1      -0.463  -1.140  10.941  0.00  0.00    +0.108 C 
ATOM     29  C   UNL     1      -0.421  -0.137   9.784  0.00  0.00    +0.024 C 
ATOM     30  C   UNL     1      -2.529  -2.177  11.747  0.00  0.00    +0.220 C 
ATOM     31  O   UNL     1      -3.484  -2.907  11.585  0.00  0.00    -0.275 OA
BRANCH  30  32
ATOM     32  C   UNL     1      -2.354  -1.444  13.052  0.00  0.00    +0.138 C 
BRANCH  32  33
ATOM     33  C   UNL     1      -3.491  -1.788  13.979  0.00  0.00    -0.001 A 
ATOM     34  C   UNL     1      -3.579  -2.789  14.888  0.00  0.00    +0.011 A 
ATOM     35  C   UNL     1      -4.733  -2.916  15.637  0.00  0.00    +0.008 A 
ATOM     36  C   UNL     1      -5.744  -2.034  15.441  0.00  0.00    +0.045 A 
ATOM     37  S   UNL     1      -5.071  -0.978  14.169  0.00  0.00    -0.101 S 
ENDBRANCH  32  33
ENDBRANCH  30  32
ENDBRANCH  23  24
ENDBRANCH   3  23
TORSDOF 7
