REMARK  Name = ZINC15771738
REMARK  10 active torsions:
REMARK  status: ('A' for Active; 'I' for Inactive)
REMARK    1  A    between atoms: C_1  and  C_2
REMARK    2  A    between atoms: C_2  and  C_3
REMARK    3  A    between atoms: C_9  and  C_13
REMARK    4  A    between atoms: C_13  and  O_14
REMARK    5  A    between atoms: O_14  and  C_15
REMARK    6  A    between atoms: C_15  and  C_17
REMARK    7  A    between atoms: C_22  and  N_23
REMARK    8  A    between atoms: C_24  and  C_26
REMARK    9  A    between atoms: C_26  and  O_27
REMARK   10  A    between atoms: O_27  and  C_28
REMARK                            x       y       z     vdW  Elec       q    Type
REMARK                         _______ _______ _______ _____ _____    ______ ____
ROOT
ATOM      1  C   UNL     1      -0.076   1.472   0.004  0.00  0.00    +0.080 A 
ATOM      2  C   UNL     1      -1.312   2.126  -0.009  0.00  0.00    +0.017 A 
ATOM      3  C   UNL     1      -1.361   3.502  -0.034  0.00  0.00    +0.001 A 
ATOM      4  C   UNL     1      -0.190   4.244  -0.059  0.00  0.00    +0.002 A 
ATOM      5  C   UNL     1       1.037   3.613  -0.053  0.00  0.00    +0.024 A 
ATOM      6  C   UNL     1       1.107   2.226  -0.022  0.00  0.00    +0.048 A 
ENDROOT
BRANCH   6   7
ATOM      7  N   UNL     1       2.344   1.587  -0.015  0.00  0.00    -0.282 N 
ATOM      8  C   UNL     1       3.386   2.144   0.634  0.00  0.00    +0.255 C 
ATOM      9  O   UNL     1       3.224   3.150   1.292  0.00  0.00    -0.272 OA
ATOM     10  H   UNL     1       2.456   0.742  -0.478  0.00  0.00    +0.155 HD
BRANCH   8  11
ATOM     11  C   UNL     1       4.753   1.516   0.543  0.00  0.00    +0.325 C 
BRANCH  11  12
ATOM     12  O   UNL     1       5.682   2.283   1.310  0.00  0.00    -0.480 OA
BRANCH  12  13
ATOM     13  C   UNL     1       6.970   1.849   1.334  0.00  0.00    +0.156 A 
ATOM     14  C   UNL     1       7.331   0.705   0.637  0.00  0.00    +0.048 A 
ATOM     15  C   UNL     1       8.641   0.269   0.659  0.00  0.00    +0.004 A 
ATOM     16  C   UNL     1       9.592   0.964   1.383  0.00  0.00    +0.003 A 
ATOM     17  C   UNL     1       9.236   2.103   2.082  0.00  0.00    +0.042 A 
ATOM     18  C   UNL     1       7.927   2.547   2.060  0.00  0.00    +0.165 A 
ATOM     19  F   UNL     1       7.578   3.659   2.744  0.00  0.00    -0.202 F 
ENDBRANCH  12  13
ENDBRANCH  11  12
ENDBRANCH   8  11
ENDBRANCH   6   7
BRANCH   1  20
ATOM     20  C   UNL     1      -0.017  -0.000   0.037  0.00  0.00    +0.341 C 
ATOM     21  O   UNL     1       1.055  -0.567  -0.048  0.00  0.00    -0.245 OA
BRANCH  20  22
ATOM     22  O   UNL     1      -1.151  -0.718   0.161  0.00  0.00    -0.455 OA
BRANCH  22  23
ATOM     23  C   UNL     1      -1.016  -2.163   0.187  0.00  0.00    +0.288 C 
BRANCH  23  30
ATOM     24  C   UNL     1      -6.717  -4.155   2.058  0.00  0.00    +0.102 A 
ATOM     25  N   UNL     1      -6.138  -4.426   0.927  0.00  0.00    -0.159 NA
ATOM     26  N   UNL     1      -4.875  -3.932   0.617  0.00  0.00    -0.171 N 
ATOM     27  C   UNL     1      -4.165  -4.142  -0.530  0.00  0.00    +0.275 A 
ATOM     28  O   UNL     1      -4.635  -4.831  -1.423  0.00  0.00    -0.266 OA
ATOM     29  C   UNL     1      -2.902  -3.569  -0.682  0.00  0.00    +0.099 A 
ATOM     30  C   UNL     1      -2.378  -2.792   0.330  0.00  0.00    +0.087 A 
ATOM     31  N   UNL     1      -3.094  -2.612   1.437  0.00  0.00    -0.223 NA
ATOM     32  C   UNL     1      -4.280  -3.149   1.569  0.00  0.00    +0.199 A 
ATOM     33  S   UNL     1      -5.500  -3.126   2.864  0.00  0.00    -0.033 S 
BRANCH  24  35
ATOM     34  C   UNL     1      -8.743  -5.473   1.505  0.00  0.00    +0.011 C 
ATOM     35  C   UNL     1      -8.067  -4.597   2.561  0.00  0.00    +0.061 C 
ENDBRANCH  24  35
ENDBRANCH  23  30
ENDBRANCH  22  23
ENDBRANCH  20  22
ENDBRANCH   1  20
TORSDOF 9
