REMARK  Name = ZINC15164943
REMARK  4 active torsions:
REMARK  status: ('A' for Active; 'I' for Inactive)
REMARK    1  A    between atoms: C_6  and  O_7
REMARK    2  A    between atoms: O_7  and  C_8
REMARK    3  A    between atoms: C_11  and  C_17
REMARK    4  A    between atoms: C_13  and  N_14
REMARK                            x       y       z     vdW  Elec       q    Type
REMARK                         _______ _______ _______ _____ _____    ______ ____
ROOT
ATOM      1  C   UNL     1       1.159   3.161   0.010  0.00  0.00    +0.159 A 
ATOM      2  C   UNL     1      -0.055   3.825  -0.130  0.00  0.00    +0.049 A 
ATOM      3  C   UNL     1      -1.235   3.116  -0.121  0.00  0.00    +0.017 A 
ATOM      4  C   UNL     1      -1.212   1.726   0.024  0.00  0.00    +0.039 A 
ATOM      5  C   UNL     1       0.009   1.063   0.170  0.00  0.00    +0.049 A 
ATOM      6  C   UNL     1       1.185   1.779   0.160  0.00  0.00    +0.169 A 
ENDROOT
BRANCH   4   7
ATOM      7  C   UNL     1      -2.474   0.961   0.029  0.00  0.00    +0.242 C 
ATOM      8  O   UNL     1      -2.453  -0.247   0.160  0.00  0.00    -0.270 OA
ATOM      9  N   UNL     1      -3.651   1.603  -0.113  0.00  0.00    -0.325 N 
ATOM     10  H   UNL     1      -3.668   2.567  -0.218  0.00  0.00    +0.145 HD
ATOM     11  H   UNL     1      -4.481   1.100  -0.110  0.00  0.00    +0.145 HD
ENDBRANCH   4   7
BRANCH   6  12
ATOM     12  N   UNL     1       2.480   1.077   0.310  0.00  0.00    +0.060 N 
ATOM     13  O   UNL     1       2.504  -0.134   0.442  0.00  0.00    -0.126 OA
ATOM     14  O   UNL     1       3.521   1.710   0.301  0.00  0.00    -0.126 OA
ENDBRANCH   6  12
BRANCH   1  15
ATOM     15  O   UNL     1       2.320   3.863   0.001  0.00  0.00    -0.454 OA
BRANCH  15  21
ATOM     16  C   UNL     1       2.378   3.558  -2.358  0.00  0.00    +0.047 A 
ATOM     17  C   UNL     1       3.033   3.719  -3.564  0.00  0.00    +0.018 A 
ATOM     18  C   UNL     1       4.275   4.326  -3.602  0.00  0.00    +0.014 A 
ATOM     19  C   UNL     1       4.863   4.778  -2.434  0.00  0.00    +0.018 A 
ATOM     20  C   UNL     1       4.210   4.624  -1.227  0.00  0.00    +0.047 A 
ATOM     21  C   UNL     1       2.964   4.016  -1.186  0.00  0.00    +0.129 A 
ATOM     22  I   UNL     1       5.268   4.561  -5.432  0.00  0.00    -0.044 I 
ENDBRANCH  15  21
ENDBRANCH   1  15
TORSDOF 4
