REMARK  Name = ZINC59990821
REMARK  13 active torsions:
REMARK  status: ('A' for Active; 'I' for Inactive)
REMARK    1  A    between atoms: C_1  and  C_2
REMARK    2  A    between atoms: C_2  and  O_3
REMARK    3  A    between atoms: O_3  and  C_4
REMARK    4  A    between atoms: C_6  and  C_28
REMARK    5  A    between atoms: C_9  and  O_10
REMARK    6  A    between atoms: O_10  and  C_11
REMARK    7  A    between atoms: C_11  and  C_12
REMARK    8  A    between atoms: N_14  and  C_15
REMARK    9  A    between atoms: C_15  and  C_16
REMARK   10  A    between atoms: C_16  and  C_17
REMARK   11  A    between atoms: C_16  and  C_18
REMARK   12  A    between atoms: C_16  and  N_19
REMARK   13  A    between atoms: C_23  and  C_26
REMARK                            x       y       z     vdW  Elec       q    Type
REMARK                         _______ _______ _______ _____ _____    ______ ____
ROOT
ATOM      1  C   UNL     1       3.689  -0.150  -4.335  0.00  0.00    +0.251 C 
ATOM      2  O   UNL     1       2.889   0.126  -5.204  0.00  0.00    -0.272 OA
ATOM      3  N   UNL     1       4.932   0.368  -4.373  0.00  0.00    -0.314 N 
ATOM      4  H   UNL     1       5.571   0.146  -3.677  0.00  0.00    +0.149 HD
ENDROOT
BRANCH   1   5
ATOM      5  C   UNL     1       3.291  -1.074  -3.212  0.00  0.00    +0.324 C 
BRANCH   5   6
ATOM      6  O   UNL     1       1.935  -1.487  -3.393  0.00  0.00    -0.478 OA
BRANCH   6  12
ATOM      7  C   UNL     1       0.777  -1.811  -1.336  0.00  0.00    +0.164 A 
ATOM      8  C   UNL     1       0.244  -2.665  -0.389  0.00  0.00    +0.068 A 
ATOM      9  C   UNL     1       0.355  -4.048  -0.559  0.00  0.00    +0.057 A 
ATOM     10  C   UNL     1       1.003  -4.561  -1.686  0.00  0.00    +0.038 A 
ATOM     11  C   UNL     1       1.532  -3.703  -2.627  0.00  0.00    +0.064 A 
ATOM     12  C   UNL     1       1.417  -2.329  -2.460  0.00  0.00    +0.177 A 
ATOM     13 BR   UNL     1       2.409  -4.398  -4.151  0.00  0.00    -0.046 Br
BRANCH   9  14
ATOM     14  C   UNL     1      -0.195  -4.937   0.419  0.00  0.00    +0.099 C 
ATOM     15  N   UNL     1      -0.631  -5.643   1.196  0.00  0.00    -0.191 NA
ENDBRANCH   9  14
BRANCH   7  16
ATOM     16  O   UNL     1       0.671  -0.465  -1.174  0.00  0.00    -0.488 OA
BRANCH  16  18
ATOM     17  C   UNL     1      -0.019   1.526   0.010  0.00  0.00    +0.048 C 
ATOM     18  C   UNL     1       0.002  -0.004   0.002  0.00  0.00    +0.226 C 
ENDBRANCH  16  18
ENDBRANCH   7  16
ENDBRANCH   6  12
ENDBRANCH   5   6
ENDBRANCH   1   5
BRANCH   3  19
ATOM     19  C   UNL     1       5.319   1.265  -5.464  0.00  0.00    +0.092 C 
BRANCH  19  20
ATOM     20  C   UNL     1       6.770   1.708  -5.270  0.00  0.00    -0.055 C 
ATOM     21  C   UNL     1       7.174   2.646  -6.410  0.00  0.00    -0.008 C 
ATOM     22  C   UNL     1       6.906   2.441  -3.934  0.00  0.00    -0.008 C 
BRANCH  20  23
ATOM     23  N   UNL     1       7.646   0.529  -5.273  0.00  0.00    +0.384 N 
ATOM     24  C   UNL     1       7.508  -0.179  -6.551  0.00  0.00    -0.078 C 
ATOM     25  C   UNL     1       8.357  -1.452  -6.529  0.00  0.00    -0.018 C 
ATOM     26  C   UNL     1       9.825  -1.076  -6.307  0.00  0.00    -0.001 C 
ATOM     27  C   UNL     1       9.946  -0.275  -5.008  0.00  0.00    -0.031 C 
ATOM     28  C   UNL     1       9.039   0.955  -5.087  0.00  0.00    -0.075 C 
ATOM     29  C   UNL     1      11.397   0.171  -4.816  0.00  0.00    +0.005 C 
ATOM     30  H   UNL     1       7.381  -0.088  -4.519  0.00  0.00    -0.081 HD
ENDBRANCH  20  23
ENDBRANCH  19  20
ENDBRANCH   3  19
TORSDOF 9
