REMARK  Name = ZINC08934795
REMARK  15 active torsions:
REMARK  status: ('A' for Active; 'I' for Inactive)
REMARK    1  A    between atoms: C_1  and  C_2
REMARK    2  A    between atoms: C_2  and  O_3
REMARK    3  A    between atoms: O_3  and  C_4
REMARK    4  A    between atoms: C_7  and  C_12
REMARK    5  A    between atoms: C_9  and  O_10
REMARK    6  A    between atoms: O_10  and  C_11
REMARK    7  A    between atoms: C_14  and  C_25
REMARK    8  A    between atoms: C_15  and  O_24
REMARK    9  A    between atoms: N_18  and  C_19
REMARK   10  A    between atoms: C_19  and  C_20
REMARK   11  A    between atoms: C_20  and  C_21
REMARK   12  A    between atoms: C_21  and  N_62
REMARK   13  A    between atoms: C_22  and  N_62
REMARK   14  A    between atoms: C_23  and  N_62
REMARK   15  A    between atoms: C_25  and  C_27
REMARK                            x       y       z     vdW  Elec       q    Type
REMARK                         _______ _______ _______ _____ _____    ______ ____
ROOT
ATOM      1  C   UNL     1      -1.344  -0.705   0.066  0.00  0.00    +0.145 C 
ATOM      2  C   UNL     1      -1.589  -1.351   1.409  0.00  0.00    +0.071 C 
ATOM      3  C   UNL     1      -1.688  -2.683   1.190  0.00  0.00    +0.188 C 
ATOM      4  C   UNL     1      -1.517  -2.951  -0.253  0.00  0.00    +0.282 C 
ATOM      5  O   UNL     1      -1.553  -4.051  -0.767  0.00  0.00    -0.267 OA
ATOM      6  N   UNL     1      -1.316  -1.795  -0.915  0.00  0.00    -0.284 N 
ENDROOT
BRANCH   1  10
ATOM      7  C   UNL     1       2.409   1.346   0.085  0.00  0.00    +0.162 A 
ATOM      8  C   UNL     1       2.373  -0.039   0.100  0.00  0.00    +0.050 A 
ATOM      9  C   UNL     1       1.158  -0.699   0.094  0.00  0.00    +0.009 A 
ATOM     10  C   UNL     1      -0.022   0.020   0.073  0.00  0.00    -0.019 A 
ATOM     11  C   UNL     1       0.007   1.402   0.058  0.00  0.00    +0.055 A 
ATOM     12  C   UNL     1       1.221   2.070   0.064  0.00  0.00    +0.162 A 
BRANCH  12  13
ATOM     13  O   UNL     1       1.251   3.429   0.049  0.00  0.00    -0.491 OA
ATOM     14  C   UNL     1      -0.001   4.104  -0.090  0.00  0.00    +0.277 C 
ENDBRANCH  12  13
BRANCH   7  15
ATOM     15  O   UNL     1       3.603   1.997   0.090  0.00  0.00    -0.489 OA
BRANCH  15  17
ATOM     16  C   UNL     1       6.018   2.091   0.114  0.00  0.00    +0.048 C 
ATOM     17  C   UNL     1       4.782   1.189   0.111  0.00  0.00    +0.226 C 
ENDBRANCH  15  17
ENDBRANCH   7  15
ENDBRANCH   1  10
BRANCH   3  18
ATOM     18  O   UNL     1      -1.907  -3.620   2.141  0.00  0.00    -0.502 OA
ATOM     19  H   UNL     1      -1.937  -4.525   1.717  0.00  0.00    +0.292 HD
ENDBRANCH   3  18
BRANCH   2  20
ATOM     20  C   UNL     1      -1.699  -0.667   2.702  0.00  0.00    +0.195 C 
ATOM     21  O   UNL     1      -0.861  -0.856   3.563  0.00  0.00    -0.287 OA
BRANCH  20  22
ATOM     22  C   UNL     1      -2.828   0.252   2.958  0.00  0.00    +0.022 A 
ATOM     23  C   UNL     1      -3.850   0.388   2.015  0.00  0.00    +0.013 A 
ATOM     24  C   UNL     1      -4.904   1.241   2.263  0.00  0.00    +0.016 A 
ATOM     25  C   UNL     1      -4.944   1.974   3.438  0.00  0.00    +0.018 A 
ATOM     26  C   UNL     1      -3.930   1.849   4.374  0.00  0.00    +0.016 A 
ATOM     27  C   UNL     1      -2.874   0.993   4.141  0.00  0.00    +0.013 A 
ATOM     28 BR   UNL     1      -6.388   3.149   3.766  0.00  0.00    -0.050 Br
ENDBRANCH  20  22
ENDBRANCH   2  20
BRANCH   6  29
ATOM     29  C   UNL     1      -1.106  -1.652  -2.358  0.00  0.00    +0.107 C 
BRANCH  29  30
ATOM     30  C   UNL     1       0.390  -1.739  -2.667  0.00  0.00    +0.000 C 
BRANCH  30  31
ATOM     31  C   UNL     1       0.608  -1.589  -4.174  0.00  0.00    -0.078 C 
BRANCH  31  34
ATOM     32  C   UNL     1       2.278  -1.771  -5.918  0.00  0.00    -0.097 C 
ATOM     33  C   UNL     1       2.768  -0.530  -3.897  0.00  0.00    -0.097 C 
ATOM     34  N   UNL     1       2.055  -1.697  -4.459  0.00  0.00    +0.376 N 
ATOM     35  H   UNL     1       2.418  -2.552  -4.022  0.00  0.00    -0.083 HD
ENDBRANCH  31  34
ENDBRANCH  30  31
ENDBRANCH  29  30
ENDBRANCH   6  29
TORSDOF 11
