REMARK  Name = ZINC13073907
REMARK  9 active torsions:
REMARK  status: ('A' for Active; 'I' for Inactive)
REMARK    1  A    between atoms: C_1  and  C_2
REMARK    2  A    between atoms: C_5  and  C_11
REMARK    3  A    between atoms: C_6  and  N_8
REMARK    4  A    between atoms: C_14  and  C_16
REMARK    5  A    between atoms: N_20  and  C_24
REMARK    6  A    between atoms: C_24  and  C_26
REMARK    7  A    between atoms: C_24  and  C_30
REMARK    8  A    between atoms: C_26  and  C_27
REMARK    9  A    between atoms: C_27  and  C_28
REMARK                            x       y       z     vdW  Elec       q    Type
REMARK                         _______ _______ _______ _____ _____    ______ ____
ROOT
ATOM      1  C   UNL     1       0.002  -0.004   0.002  0.00  0.00    +0.066 C 
ATOM      2  C   UNL     1      -0.017   1.401   0.010  0.00  0.00    +0.080 C 
ATOM      3  C   UNL     1       1.126   2.361   0.004  0.00  0.00    +0.259 C 
ATOM      4  O   UNL     1       2.281   1.985  -0.008  0.00  0.00    -0.269 OA
ATOM      5  N   UNL     1       0.808   3.646   0.013  0.00  0.00    -0.241 N 
ATOM      6  C   UNL     1      -0.485   4.025   0.027  0.00  0.00    +0.121 C 
ATOM      7  S   UNL     1      -1.121   5.615   0.040  0.00  0.00    -0.027 S 
ATOM      8  S   UNL     1      -1.376   2.481   0.021  0.00  0.00    -0.061 S 
ENDROOT
BRANCH   1  12
ATOM      9  C   UNL     1      -3.336  -1.183   0.029  0.00  0.00    +0.138 A 
ATOM     10  C   UNL     1      -2.669  -2.425   0.015  0.00  0.00    +0.050 A 
ATOM     11  C   UNL     1      -1.331  -2.173   0.003  0.00  0.00    +0.050 A 
ATOM     12  C   UNL     1      -1.188  -0.713   0.010  0.00  0.00    +0.130 A 
ATOM     13  O   UNL     1      -2.434  -0.188   0.030  0.00  0.00    -0.455 OA
BRANCH   9  18
ATOM     14  C   UNL     1      -9.036  -0.488   0.095  0.00  0.00    +0.044 C 
ATOM     15  C   UNL     1      -7.541  -0.670   0.077  0.00  0.00    -0.048 A 
ATOM     16  C   UNL     1      -6.961  -1.516  -0.856  0.00  0.00    +0.004 A 
ATOM     17  C   UNL     1      -5.596  -1.690  -0.880  0.00  0.00    +0.014 A 
ATOM     18  C   UNL     1      -4.789  -1.006   0.045  0.00  0.00    +0.047 A 
ATOM     19  C   UNL     1      -5.387  -0.154   0.991  0.00  0.00    +0.137 A 
ATOM     20  C   UNL     1      -6.754   0.009   0.995  0.00  0.00    +0.036 A 
BRANCH  19  21
ATOM     21  N   UNL     1      -4.549   0.568   1.974  0.00  0.00    +0.057 N 
ATOM     22  O   UNL     1      -5.112   1.365   2.859  0.00  0.00    -0.126 OA
ATOM     23  O   UNL     1      -3.241   0.414   1.965  0.00  0.00    -0.126 OA
ENDBRANCH  19  21
ENDBRANCH   9  18
ENDBRANCH   1  12
BRANCH   5  24
ATOM     24  C   UNL     1       1.866   4.659   0.009  0.00  0.00    +0.196 C 
BRANCH  24  25
ATOM     25  C   UNL     1       1.748   5.514   1.245  0.00  0.00    +0.376 C 
ATOM     26  O   UNL     1       0.870   5.298   2.047  0.00  0.00    -0.244 OA
ATOM     27  O   UNL     1       2.618   6.514   1.454  0.00  0.00    -0.244 OA
ENDBRANCH  24  25
BRANCH  24  28
ATOM     28  C   UNL     1       1.724   5.539  -1.235  0.00  0.00    +0.046 C 
BRANCH  28  29
ATOM     29  C   UNL     1       1.968   4.695  -2.487  0.00  0.00    +0.127 C 
BRANCH  29  30
ATOM     30  C   UNL     1       1.828   5.561  -3.712  0.00  0.00    +0.356 C 
ATOM     31  O   UNL     1       1.561   6.734  -3.595  0.00  0.00    -0.246 OA
ATOM     32  O   UNL     1       2.000   5.031  -4.933  0.00  0.00    -0.246 OA
ENDBRANCH  29  30
ENDBRANCH  28  29
ENDBRANCH  24  28
ENDBRANCH   5  24
TORSDOF 8
