REMARK  Name = ZINC12497414
REMARK  13 active torsions:
REMARK  status: ('A' for Active; 'I' for Inactive)
REMARK    1  A    between atoms: C_1  and  C_2
REMARK    2  A    between atoms: C_5  and  N_8
REMARK    3  A    between atoms: C_13  and  C_28
REMARK    4  A    between atoms: C_15  and  C_20
REMARK    5  A    between atoms: C_15  and  C_24
REMARK    6  A    between atoms: C_20  and  C_21
REMARK    7  A    between atoms: C_21  and  S_22
REMARK    8  A    between atoms: S_22  and  C_23
REMARK    9  A    between atoms: C_24  and  O_26
REMARK   10  A    between atoms: O_26  and  C_27
REMARK   11  A    between atoms: C_31  and  O_36
REMARK   12  A    between atoms: C_32  and  O_34
REMARK   13  A    between atoms: O_34  and  C_35
REMARK                            x       y       z     vdW  Elec       q    Type
REMARK                         _______ _______ _______ _____ _____    ______ ____
ROOT
ATOM      1  N   UNL     1      -2.551   6.467   5.850  0.00  0.00    -0.210 N 
ATOM      2  C   UNL     1      -1.257   6.913   5.788  0.00  0.00    +0.229 C 
ATOM      3  O   UNL     1      -0.710   7.690   6.540  0.00  0.00    -0.275 OA
ATOM      4  C   UNL     1      -0.669   6.244   4.605  0.00  0.00    +0.077 C 
ATOM      5  C   UNL     1       0.295   6.853   3.616  0.00  0.00    -0.027 C 
ATOM      6  C   UNL     1      -1.441   5.632   2.453  0.00  0.00    +0.044 C 
ATOM      7  C   UNL     1      -1.962   6.266   3.691  0.00  0.00    +0.086 C 
ATOM      8  C   UNL     1      -2.961   5.876   4.681  0.00  0.00    +0.229 C 
ATOM      9  O   UNL     1      -3.940   5.183   4.507  0.00  0.00    -0.275 OA
ATOM     10  N   UNL     1      -0.029   6.104   2.365  0.00  0.00    +0.395 N 
ATOM     11  H   UNL     1       0.601   5.299   2.269  0.00  0.00    -0.083 HD
ATOM     12  H   UNL     1       0.080   6.722   1.552  0.00  0.00    -0.083 HD
ENDROOT
BRANCH   1  17
ATOM     13  C   UNL     1      -5.853   7.006  10.434  0.00  0.00    +0.044 C 
ATOM     14  C   UNL     1      -4.976   6.862   9.217  0.00  0.00    -0.050 A 
ATOM     15  C   UNL     1      -3.679   7.341   9.241  0.00  0.00    +0.005 A 
ATOM     16  C   UNL     1      -2.873   7.211   8.127  0.00  0.00    +0.024 A 
ATOM     17  C   UNL     1      -3.367   6.599   6.982  0.00  0.00    +0.044 A 
ATOM     18  C   UNL     1      -4.671   6.125   6.960  0.00  0.00    +0.024 A 
ATOM     19  C   UNL     1      -5.470   6.253   8.079  0.00  0.00    +0.005 A 
ENDBRANCH   1  17
BRANCH   5  20
ATOM     20  C   UNL     1       1.721   6.612   4.041  0.00  0.00    -0.057 A 
ATOM     21  C   UNL     1       2.279   5.354   3.903  0.00  0.00    +0.006 A 
ATOM     22  C   UNL     1       3.588   5.130   4.285  0.00  0.00    +0.049 A 
ATOM     23  C   UNL     1       4.341   6.163   4.819  0.00  0.00    +0.158 A 
ATOM     24  C   UNL     1       3.778   7.428   4.963  0.00  0.00    +0.161 A 
ATOM     25  C   UNL     1       2.467   7.647   4.572  0.00  0.00    +0.051 A 
BRANCH  24  26
ATOM     26  O   UNL     1       4.513   8.445   5.486  0.00  0.00    -0.491 OA
ATOM     27  C   UNL     1       3.870   9.716   5.604  0.00  0.00    +0.277 C 
ENDBRANCH  24  26
BRANCH  23  28
ATOM     28  O   UNL     1       5.627   5.943   5.200  0.00  0.00    -0.503 OA
ATOM     29  H   UNL     1       5.722   5.663   6.121  0.00  0.00    +0.292 HD
ENDBRANCH  23  28
ENDBRANCH   5  20
BRANCH   6  30
ATOM     30  C   UNL     1      -2.231   6.092   1.255  0.00  0.00    +0.297 C 
ATOM     31  O   UNL     1      -3.378   6.449   1.388  0.00  0.00    -0.252 OA
BRANCH  30  32
ATOM     32  O   UNL     1      -1.661   6.104   0.039  0.00  0.00    -0.469 OA
ATOM     33  C   UNL     1      -2.482   6.559  -1.069  0.00  0.00    +0.280 C 
ENDBRANCH  30  32
ENDBRANCH   6  30
BRANCH   6  34
ATOM     34  C   UNL     1      -1.492   4.108   2.571  0.00  0.00    +0.010 C 
BRANCH  34  35
ATOM     35  C   UNL     1      -0.801   3.478   1.360  0.00  0.00    +0.068 C 
BRANCH  35  36
ATOM     36  S   UNL     1      -0.862   1.671   1.500  0.00  0.00    -0.164 S 
ATOM     37  C   UNL     1      -0.013   1.086   0.008  0.00  0.00    +0.084 C 
ENDBRANCH  35  36
ENDBRANCH  34  35
ENDBRANCH   6  34
TORSDOF 9
