REMARK  Name = ZINC40733975
REMARK  10 active torsions:
REMARK  status: ('A' for Active; 'I' for Inactive)
REMARK    1  A    between atoms: C_1  and  C_2
REMARK    2  A    between atoms: C_2  and  C_4
REMARK    3  A    between atoms: C_2  and  N_10
REMARK    4  A    between atoms: N_10  and  C_11
REMARK    5  A    between atoms: C_11  and  C_12
REMARK    6  A    between atoms: C_14  and  O_29
REMARK    7  A    between atoms: C_15  and  O_19
REMARK    8  A    between atoms: O_19  and  C_20
REMARK    9  A    between atoms: C_20  and  C_21
REMARK   10  A    between atoms: O_29  and  C_30
REMARK                            x       y       z     vdW  Elec       q    Type
REMARK                         _______ _______ _______ _____ _____    ______ ____
ROOT
ATOM      1  C   UNL     1       0.620  -0.579  -3.634  0.00  0.00    -0.060 A 
ATOM      2  C   UNL     1       1.552   0.229  -4.258  0.00  0.00    +0.051 A 
ATOM      3  C   UNL     1       2.201  -0.216  -5.398  0.00  0.00    +0.163 A 
ATOM      4  C   UNL     1       1.914  -1.477  -5.912  0.00  0.00    +0.176 A 
ATOM      5  C   UNL     1       0.979  -2.282  -5.281  0.00  0.00    +0.063 A 
ATOM      6  C   UNL     1       0.338  -1.834  -4.140  0.00  0.00    +0.021 A 
ATOM      7 BR   UNL     1       0.585  -3.997  -5.975  0.00  0.00    -0.046 Br
ENDROOT
BRANCH   3   8
ATOM      8  O   UNL     1       3.118   0.578  -6.014  0.00  0.00    -0.491 OA
ATOM      9  C   UNL     1       3.362   1.860  -5.431  0.00  0.00    +0.277 C 
ENDBRANCH   3   8
BRANCH   1  10
ATOM     10  C   UNL     1      -0.086  -0.093  -2.394  0.00  0.00    -0.046 C 
BRANCH  10  11
ATOM     11  N   UNL     1       0.690  -0.478  -1.207  0.00  0.00    +0.386 N 
ATOM     12  H   UNL     1       1.608  -0.063  -1.256  0.00  0.00    -0.085 HD
ATOM     13  H   UNL     1       0.776  -1.482  -1.172  0.00  0.00    -0.085 HD
BRANCH  11  15
ATOM     14  C   UNL     1      -0.019   1.526   0.010  0.00  0.00    -0.009 C 
ATOM     15  C   UNL     1       0.002  -0.004   0.002  0.00  0.00    -0.044 C 
BRANCH  15  16
ATOM     16  C   UNL     1       0.731  -0.503   1.223  0.00  0.00    -0.062 A 
ATOM     17  C   UNL     1       2.113  -0.514   1.247  0.00  0.00    +0.002 A 
ATOM     18  C   UNL     1       2.782  -0.972   2.366  0.00  0.00    +0.000 A 
ATOM     19  C   UNL     1       2.068  -1.419   3.463  0.00  0.00    +0.000 A 
ATOM     20  C   UNL     1       0.686  -1.407   3.439  0.00  0.00    +0.000 A 
ATOM     21  C   UNL     1       0.017  -0.945   2.321  0.00  0.00    +0.002 A 
ENDBRANCH  15  16
ENDBRANCH  11  15
ENDBRANCH  10  11
ENDBRANCH   1  10
BRANCH   4  22
ATOM     22  O   UNL     1       2.549  -1.918  -7.031  0.00  0.00    -0.482 OA
BRANCH  22  23
ATOM     23  C   UNL     1       3.773  -2.632  -6.844  0.00  0.00    +0.269 C 
BRANCH  23  24
ATOM     24  C   UNL     1       4.327  -3.038  -8.185  0.00  0.00    +0.043 A 
ATOM     25  C   UNL     1       3.967  -4.253  -8.745  0.00  0.00    +0.131 A 
ATOM     26  C   UNL     1       4.478  -4.625  -9.977  0.00  0.00    +0.039 A 
ATOM     27  C   UNL     1       5.346  -3.784 -10.648  0.00  0.00    +0.004 A 
ATOM     28  C   UNL     1       5.705  -2.571 -10.090  0.00  0.00    +0.020 A 
ATOM     29  C   UNL     1       5.191  -2.196  -8.861  0.00  0.00    +0.050 A 
ATOM     30 CL   UNL     1       5.637  -0.669  -8.164  0.00  0.00    -0.083 Cl
ATOM     31  F   UNL     1       3.119  -5.074  -8.088  0.00  0.00    -0.205 F 
ENDBRANCH  23  24
ENDBRANCH  22  23
ENDBRANCH   4  22
TORSDOF 8
