REMARK  Name = ZINC13988938
REMARK  6 active torsions:
REMARK  status: ('A' for Active; 'I' for Inactive)
REMARK    1  A    between atoms: C_1  and  C_2
REMARK    2  A    between atoms: C_2  and  C_3
REMARK    3  A    between atoms: C_2  and  C_4
REMARK    4  A    between atoms: N_6  and  C_7
REMARK    5  A    between atoms: C_10  and  C_13
REMARK    6  A    between atoms: N_15  and  N_16
REMARK                            x       y       z     vdW  Elec       q    Type
REMARK                         _______ _______ _______ _____ _____    ______ ____
ROOT
ATOM      1  N   UNL     1       4.511   4.235   0.935  0.00  0.00    -0.217 N 
ATOM      2  C   UNL     1       3.317   3.618   1.031  0.00  0.00    +0.327 C 
ATOM      3  O   UNL     1       2.343   4.087   0.473  0.00  0.00    -0.250 OA
ATOM      4  N   UNL     1       3.201   2.481   1.744  0.00  0.00    -0.221 N 
ATOM      5  C   UNL     1       1.946   1.869   1.854  0.00  0.00    +0.057 A 
ATOM      6  C   UNL     1       0.800   2.641   1.974  0.00  0.00    +0.025 A 
ATOM      7  C   UNL     1      -0.436   2.031   2.084  0.00  0.00    +0.002 A 
ATOM      8  C   UNL     1      -0.540   0.653   2.082  0.00  0.00    +0.001 A 
ATOM      9  C   UNL     1       0.597  -0.128   1.956  0.00  0.00    +0.017 A 
ATOM     10  C   UNL     1       1.835   0.477   1.845  0.00  0.00    +0.035 A 
ATOM     11  S   UNL     1       3.302  -0.492   1.690  0.00  0.00    -0.086 S 
ATOM     12  C   UNL     1       4.526   0.558   2.408  0.00  0.00    +0.035 A 
ATOM     13  C   UNL     1       4.341   1.941   2.356  0.00  0.00    +0.057 A 
ATOM     14  C   UNL     1       5.295   2.776   2.916  0.00  0.00    +0.025 A 
ATOM     15  C   UNL     1       6.417   2.237   3.520  0.00  0.00    +0.002 A 
ATOM     16  C   UNL     1       6.596   0.867   3.569  0.00  0.00    +0.001 A 
ATOM     17  C   UNL     1       5.649   0.024   3.013  0.00  0.00    +0.017 A 
ATOM     18  H   UNL     1       5.305   3.816   1.303  0.00  0.00    +0.174 HD
ENDROOT
BRANCH   1  21
ATOM     19  C   UNL     1       5.813   6.053   0.117  0.00  0.00    +0.260 C 
ATOM     20  O   UNL     1       6.810   5.529   0.576  0.00  0.00    -0.269 OA
ATOM     21  N   UNL     1       4.606   5.482   0.304  0.00  0.00    -0.229 N 
ATOM     22  H   UNL     1       3.804   5.936   0.002  0.00  0.00    +0.173 HD
BRANCH  19  26
ATOM     23  C   UNL     1       6.133   9.677  -2.075  0.00  0.00    +0.033 A 
ATOM     24  C   UNL     1       7.283   9.021  -1.645  0.00  0.00    +0.024 A 
ATOM     25  C   UNL     1       7.183   7.846  -0.935  0.00  0.00    +0.015 A 
ATOM     26  C   UNL     1       5.924   7.312  -0.645  0.00  0.00    +0.038 A 
ATOM     27  C   UNL     1       4.772   7.969  -1.083  0.00  0.00    +0.015 A 
ATOM     28  C   UNL     1       4.879   9.147  -1.787  0.00  0.00    +0.024 A 
BRANCH  23  31
ATOM     29  C   UNL     1       7.212  11.749  -2.497  0.00  0.00    +0.220 C 
ATOM     30  O   UNL     1       8.047  11.473  -1.662  0.00  0.00    -0.275 OA
ATOM     31  N   UNL     1       6.238  10.866  -2.794  0.00  0.00    -0.285 N 
ATOM     32  H   UNL     1       5.610  11.059  -3.507  0.00  0.00    +0.155 HD
BRANCH  29  34
ATOM     33  C   UNL     1       5.971  13.851  -2.932  0.00  0.00    +0.017 C 
ATOM     34  C   UNL     1       7.264  13.080  -3.203  0.00  0.00    +0.069 C 
ATOM     35  C   UNL     1       8.457  13.886  -2.685  0.00  0.00    +0.017 C 
ENDBRANCH  29  34
ENDBRANCH  23  31
ENDBRANCH  19  26
ENDBRANCH   1  21
TORSDOF 4
