REMARK  Name = ZINC15817203
REMARK  8 active torsions:
REMARK  status: ('A' for Active; 'I' for Inactive)
REMARK    1  A    between atoms: C_1  and  C_2
REMARK    2  A    between atoms: C_5  and  N_9
REMARK    3  A    between atoms: C_6  and  C_8
REMARK    4  A    between atoms: C_19  and  S_20
REMARK    5  A    between atoms: S_20  and  C_21
REMARK    6  A    between atoms: C_21  and  C_23
REMARK    7  A    between atoms: C_21  and  C_24
REMARK    8  A    between atoms: N_26  and  C_27
REMARK                            x       y       z     vdW  Elec       q    Type
REMARK                         _______ _______ _______ _____ _____    ______ ____
ROOT
ATOM      1  N   UNL     1      -3.501   1.450  -1.933  0.00  0.00    -0.255 N 
ATOM      2  C   UNL     1      -4.690   0.807  -1.876  0.00  0.00    +0.267 A 
ATOM      3  O   UNL     1      -5.595   1.086  -2.640  0.00  0.00    -0.267 OA
ATOM      4  C   UNL     1      -4.849  -0.237  -0.855  0.00  0.00    +0.065 A 
ATOM      5  C   UNL     1      -6.037  -0.953  -0.713  0.00  0.00    +0.015 A 
ATOM      6  C   UNL     1      -6.133  -1.915   0.255  0.00  0.00    +0.001 A 
ATOM      7  C   UNL     1      -5.061  -2.184   1.095  0.00  0.00    +0.002 A 
ATOM      8  C   UNL     1      -3.885  -1.498   0.978  0.00  0.00    +0.028 A 
ATOM      9  C   UNL     1      -3.756  -0.509  -0.002  0.00  0.00    +0.079 A 
ATOM     10  N   UNL     1      -2.610   0.195  -0.152  0.00  0.00    -0.223 NA
ATOM     11  C   UNL     1      -2.491   1.122  -1.071  0.00  0.00    +0.177 A 
ENDROOT
BRANCH   1  16
ATOM     12  C   UNL     1      -2.691   5.530  -5.794  0.00  0.00    +0.044 C 
ATOM     13  C   UNL     1      -2.906   4.447  -4.768  0.00  0.00    -0.050 A 
ATOM     14  C   UNL     1      -2.604   3.133  -5.079  0.00  0.00    +0.005 A 
ATOM     15  C   UNL     1      -2.800   2.138  -4.141  0.00  0.00    +0.027 A 
ATOM     16  C   UNL     1      -3.300   2.458  -2.886  0.00  0.00    +0.055 A 
ATOM     17  C   UNL     1      -3.607   3.776  -2.579  0.00  0.00    -0.026 A 
ATOM     18  C   UNL     1      -3.404   4.768  -3.519  0.00  0.00    +0.008 A 
ATOM     19  C   UNL     1      -4.156   4.127  -1.220  0.00  0.00    +0.046 C 
ENDBRANCH   1  16
BRANCH  11  20
ATOM     20  S   UNL     1      -0.963   1.990  -1.196  0.00  0.00    -0.075 S 
BRANCH  20  21
ATOM     21  C   UNL     1      -0.035   1.187   0.135  0.00  0.00    +0.137 C 
ATOM     22  C   UNL     1      -0.695   1.502   1.479  0.00  0.00    +0.029 C 
BRANCH  21  23
ATOM     23  C   UNL     1       1.382   1.698   0.138  0.00  0.00    +0.230 C 
ATOM     24  O   UNL     1       1.634   2.791  -0.324  0.00  0.00    -0.274 OA
ATOM     25  N   UNL     1       2.371   0.940   0.654  0.00  0.00    -0.285 N 
ATOM     26  H   UNL     1       2.160   0.101   1.092  0.00  0.00    +0.155 HD
BRANCH  25  27
ATOM     27  C   UNL     1       3.702   1.365   0.558  0.00  0.00    +0.035 A 
ATOM     28  C   UNL     1       4.602   1.061   1.573  0.00  0.00    +0.025 A 
ATOM     29  C   UNL     1       5.915   1.478   1.485  0.00  0.00    +0.029 A 
ATOM     30  C   UNL     1       6.339   2.201   0.380  0.00  0.00    +0.067 A 
ATOM     31  C   UNL     1       5.438   2.507  -0.641  0.00  0.00    +0.069 A 
ATOM     32  C   UNL     1       4.121   2.084  -0.552  0.00  0.00    +0.051 A 
ATOM     33  N   UNL     1       6.145   3.230  -1.599  0.00  0.00    -0.306 N 
ATOM     34  H   UNL     1       5.782   3.581  -2.427  0.00  0.00    +0.170 HD
ATOM     35  C   UNL     1       7.418   3.357  -1.181  0.00  0.00    +0.325 A 
ATOM     36  O   UNL     1       8.300   3.936  -1.787  0.00  0.00    -0.247 OA
ATOM     37  N   UNL     1       7.567   2.748   0.010  0.00  0.00    -0.306 N 
ATOM     38  H   UNL     1       8.389   2.697   0.523  0.00  0.00    +0.170 HD
ENDBRANCH  25  27
ENDBRANCH  21  23
ENDBRANCH  20  21
ENDBRANCH  11  20
TORSDOF 5
