REMARK  Name = ZINC30883165
REMARK  10 active torsions:
REMARK  status: ('A' for Active; 'I' for Inactive)
REMARK    1  A    between atoms: C_1  and  C_2
REMARK    2  A    between atoms: C_5  and  C_8
REMARK    3  A    between atoms: C_11  and  C_13
REMARK    4  A    between atoms: C_13  and  C_14
REMARK    5  A    between atoms: C_17  and  C_37
REMARK    6  A    between atoms: C_19  and  C_24
REMARK    7  A    between atoms: C_22  and  C_23
REMARK    8  A    between atoms: C_24  and  N_25
REMARK    9  A    between atoms: C_37  and  C_38
REMARK   10  A    between atoms: C_37  and  C_39
REMARK                            x       y       z     vdW  Elec       q    Type
REMARK                         _______ _______ _______ _____ _____    ______ ____
ROOT
ATOM      1  C   UNL     1       1.374  -0.667   0.080  0.00  0.00    +0.024 C 
ATOM      2  C   UNL     1       2.422   0.284  -0.500  0.00  0.00    +0.012 C 
ATOM      3  C   UNL     1       2.315   1.629   0.230  0.00  0.00    -0.003 C 
ATOM      4  C   UNL     1       0.977   2.274  -0.138  0.00  0.00    -0.002 C 
ATOM      5  C   UNL     1      -0.139   1.286   0.035  0.00  0.00    -0.026 C 
ATOM      6  C   UNL     1       0.034   0.006   0.126  0.00  0.00    -0.073 C 
ATOM      7  C   UNL     1      -1.188  -0.862   0.287  0.00  0.00    +0.039 C 
ENDROOT
BRANCH   3   8
ATOM      8  C   UNL     1       3.463   2.542  -0.203  0.00  0.00    -0.014 C 
ATOM      9  C   UNL     1       4.793   1.946   0.264  0.00  0.00    +0.007 C 
ATOM     10  C   UNL     1       3.468   2.668  -1.727  0.00  0.00    +0.007 C 
ENDBRANCH   3   8
BRANCH   1  11
ATOM     11  C   UNL     1       1.786  -1.073   1.497  0.00  0.00    +0.105 C 
BRANCH  11  15
ATOM     12  C   UNL     1       4.480  -3.483   1.247  0.00  0.00    +0.248 A 
ATOM     13  N   UNL     1       5.120  -2.363   1.489  0.00  0.00    -0.107 NA
ATOM     14  N   UNL     1       4.270  -1.403   1.598  0.00  0.00    -0.112 NA
ATOM     15  C   UNL     1       3.063  -1.870   1.440  0.00  0.00    +0.218 A 
ATOM     16  O   UNL     1       3.164  -3.191   1.211  0.00  0.00    -0.420 OA
BRANCH  12  21
ATOM     17  C   UNL     1       6.847  -8.671   0.476  0.00  0.00    +0.044 C 
ATOM     18  C   UNL     1       6.227  -7.312   0.678  0.00  0.00    -0.050 A 
ATOM     19  C   UNL     1       7.035  -6.217   0.928  0.00  0.00    +0.004 A 
ATOM     20  C   UNL     1       6.473  -4.971   1.114  0.00  0.00    +0.013 A 
ATOM     21  C   UNL     1       5.088  -4.816   1.049  0.00  0.00    +0.038 A 
ATOM     22  C   UNL     1       4.279  -5.926   0.802  0.00  0.00    +0.013 A 
ATOM     23  C   UNL     1       4.853  -7.166   0.613  0.00  0.00    +0.004 A 
ENDBRANCH  12  21
ENDBRANCH  11  15
ENDBRANCH   1  11
BRANCH   4  24
ATOM     24  C   UNL     1       0.730   3.482   0.768  0.00  0.00    -0.071 C 
BRANCH  24  25
ATOM     25  N   UNL     1      -0.508   4.157   0.357  0.00  0.00    +0.382 N 
ATOM     26  C   UNL     1      -0.366   4.750  -0.980  0.00  0.00    -0.060 C 
ATOM     27  C   UNL     1      -1.699   5.373  -1.403  0.00  0.00    +0.088 C 
ATOM     28  N   UNL     1      -2.096   6.389  -0.418  0.00  0.00    -0.319 N 
ATOM     29  C   UNL     1      -2.238   5.796   0.919  0.00  0.00    +0.088 C 
ATOM     30  C   UNL     1      -0.905   5.173   1.342  0.00  0.00    -0.060 C 
ATOM     31  C   UNL     1      -3.268   7.028  -0.806  0.00  0.00    +0.121 A 
ATOM     32  C   UNL     1      -3.331   7.659  -2.045  0.00  0.00    +0.043 A 
ATOM     33  C   UNL     1      -4.505   8.286  -2.421  0.00  0.00    +0.005 A 
ATOM     34  C   UNL     1      -5.577   8.270  -1.538  0.00  0.00    +0.020 A 
ATOM     35  C   UNL     1      -5.443   7.630  -0.323  0.00  0.00    +0.113 A 
ATOM     36  N   UNL     1      -4.312   7.035   0.008  0.00  0.00    -0.240 NA
ATOM     37  H   UNL     1      -1.305   3.400   0.310  0.00  0.00    -0.082 HD
ENDBRANCH  24  25
ENDBRANCH   4  24
TORSDOF 6
