REMARK  Name = ZINC36556816
REMARK  20 active torsions:
REMARK  status: ('A' for Active; 'I' for Inactive)
REMARK    1  A    between atoms: C_1  and  C_2
REMARK    2  A    between atoms: C_7  and  C_8
REMARK    3  A    between atoms: C_8  and  C_9
REMARK    4  A    between atoms: N_11  and  C_12
REMARK    5  A    between atoms: N_11  and  C_19
REMARK    6  A    between atoms: C_12  and  C_13
REMARK    7  A    between atoms: C_16  and  C_18
REMARK    8  A    between atoms: C_19  and  C_21
REMARK    9  A    between atoms: C_19  and  C_30
REMARK   10  A    between atoms: C_24  and  N_27
REMARK   11  A    between atoms: N_27  and  C_28
REMARK   12  A    between atoms: N_27  and  C_29
REMARK   13  A    between atoms: N_32  and  C_33
REMARK   14  A    between atoms: C_33  and  C_34
REMARK   15  A    between atoms: C_33  and  C_35
REMARK   16  A    between atoms: C_33  and  C_36
REMARK   17  A    between atoms: C_36  and  C_37
REMARK   18  A    between atoms: C_37  and  C_38
REMARK   19  A    between atoms: C_37  and  C_39
REMARK   20  A    between atoms: C_37  and  C_40
REMARK                            x       y       z     vdW  Elec       q    Type
REMARK                         _______ _______ _______ _____ _____    ______ ____
ROOT
ATOM      1  C   UNL     1      -2.103   0.710   5.816  0.00  0.00    +0.193 C 
ENDROOT
BRANCH   1   2
ATOM      2  C   UNL     1      -1.787   2.001   6.527  0.00  0.00    -0.018 A 
ATOM      3  C   UNL     1      -1.397   1.980   7.854  0.00  0.00    +0.008 A 
ATOM      4  C   UNL     1      -1.107   3.161   8.508  0.00  0.00    +0.023 A 
ATOM      5  C   UNL     1      -1.206   4.370   7.832  0.00  0.00    +0.029 A 
ATOM      6  C   UNL     1      -1.598   4.388   6.500  0.00  0.00    +0.023 A 
ATOM      7  C   UNL     1      -1.881   3.203   5.850  0.00  0.00    +0.008 A 
BRANCH   5   8
ATOM      8  N   UNL     1      -0.914   5.567   8.492  0.00  0.00    -0.336 N 
ATOM      9  C   UNL     1      -0.502   5.547   9.897  0.00  0.00    +0.129 C 
ATOM     10  C   UNL     1      -1.019   6.841   7.777  0.00  0.00    +0.129 C 
ENDBRANCH   5   8
ENDBRANCH   1   2
BRANCH   1  11
ATOM     11  C   UNL     1      -3.446   0.202   6.271  0.00  0.00    +0.239 C 
ATOM     12  O   UNL     1      -3.512  -0.744   7.028  0.00  0.00    -0.273 OA
ATOM     13  N   UNL     1      -4.574   0.798   5.838  0.00  0.00    -0.308 N 
ATOM     14  H   UNL     1      -4.521   1.554   5.232  0.00  0.00    +0.149 HD
BRANCH  13  15
ATOM     15  C   UNL     1      -5.881   0.304   6.280  0.00  0.00    +0.030 C 
ATOM     16  C   UNL     1      -6.102  -1.109   5.737  0.00  0.00    +0.031 C 
ATOM     17  C   UNL     1      -5.924   0.275   7.809  0.00  0.00    +0.031 C 
BRANCH  15  18
ATOM     18  C   UNL     1      -6.980   1.230   5.756  0.00  0.00    +0.031 C 
BRANCH  18  19
ATOM     19  C   UNL     1      -6.506   2.682   5.837  0.00  0.00    -0.036 C 
ATOM     20  C   UNL     1      -5.786   3.056   4.539  0.00  0.00    +0.010 C 
ATOM     21  C   UNL     1      -7.712   3.603   6.034  0.00  0.00    +0.010 C 
ATOM     22  C   UNL     1      -5.545   2.840   7.017  0.00  0.00    +0.010 C 
ENDBRANCH  18  19
ENDBRANCH  15  18
ENDBRANCH  13  15
ENDBRANCH   1  11
BRANCH   1  25
ATOM     23  C   UNL     1       0.227   0.005   5.923  0.00  0.00    +0.221 C 
ATOM     24  O   UNL     1       0.545   1.088   5.480  0.00  0.00    -0.275 OA
ATOM     25  N   UNL     1      -1.073  -0.284   6.128  0.00  0.00    -0.278 N 
BRANCH  23  26
ATOM     26  C   UNL     1       1.286  -1.018   6.245  0.00  0.00    +0.131 C 
BRANCH  26  33
ATOM     27  C   UNL     1       2.662   0.613   8.193  0.00  0.00    +0.044 C 
ATOM     28  C   UNL     1       3.304   0.330   6.859  0.00  0.00    -0.047 A 
ATOM     29  C   UNL     1       4.554   0.846   6.569  0.00  0.00    +0.003 A 
ATOM     30  C   UNL     1       5.142   0.586   5.346  0.00  0.00    +0.000 A 
ATOM     31  C   UNL     1       4.481  -0.190   4.412  0.00  0.00    +0.000 A 
ATOM     32  C   UNL     1       3.233  -0.706   4.701  0.00  0.00    +0.004 A 
ATOM     33  C   UNL     1       2.646  -0.450   5.927  0.00  0.00    -0.036 A 
ENDBRANCH  26  33
ENDBRANCH  23  26
BRANCH  25  34
ATOM     34  C   UNL     1      -1.457  -1.593   6.664  0.00  0.00    +0.183 C 
BRANCH  34  35
ATOM     35  C   UNL     1      -1.385  -1.560   8.169  0.00  0.00    +0.122 A 
ATOM     36  C   UNL     1      -2.423  -1.368   9.002  0.00  0.00    +0.046 A 
ATOM     37  C   UNL     1      -1.907  -1.413  10.318  0.00  0.00    +0.045 A 
ATOM     38  C   UNL     1      -0.584  -1.630  10.210  0.00  0.00    +0.102 A 
ATOM     39  O   UNL     1      -0.274  -1.724   8.906  0.00  0.00    -0.463 OA
ATOM     40  C   UNL     1       0.386  -1.752  11.357  0.00  0.00    +0.086 C 
ENDBRANCH  34  35
ENDBRANCH  25  34
ENDBRANCH   1  25
TORSDOF 11
