REMARK  Name = ZINC09883867
REMARK  9 active torsions:
REMARK  status: ('A' for Active; 'I' for Inactive)
REMARK    1  A    between atoms: C_1  and  C_2
REMARK    2  A    between atoms: C_2  and  O_3
REMARK    3  A    between atoms: O_3  and  C_4
REMARK    4  A    between atoms: C_4  and  C_6
REMARK    5  A    between atoms: C_7  and  C_27
REMARK    6  A    between atoms: C_10  and  N_11
REMARK    7  A    between atoms: C_12  and  C_14
REMARK    8  A    between atoms: C_14  and  N_55
REMARK    9  A    between atoms: C_20  and  C_22
REMARK                            x       y       z     vdW  Elec       q    Type
REMARK                         _______ _______ _______ _____ _____    ______ ____
ROOT
ATOM      1  N   UNL     1      -3.674   7.420  -1.670  0.00  0.00    -0.281 N 
ATOM      2  C   UNL     1      -3.912   8.718  -1.397  0.00  0.00    +0.201 C 
ATOM      3  O   UNL     1      -3.323   9.264  -0.488  0.00  0.00    -0.278 OA
ATOM      4  H   UNL     1      -4.145   6.983  -2.397  0.00  0.00    +0.155 HD
ENDROOT
BRANCH   1   9
ATOM      5  C   UNL     1      -2.382   5.378  -1.042  0.00  0.00    +0.096 A 
ATOM      6  C   UNL     1      -1.389   4.885  -0.105  0.00  0.00    +0.012 A 
ATOM      7  C   UNL     1      -0.924   5.773   0.814  0.00  0.00    +0.057 A 
ATOM      8  S   UNL     1      -1.805   7.269   0.420  0.00  0.00    -0.080 S 
ATOM      9  C   UNL     1      -2.757   6.709  -0.912  0.00  0.00    +0.086 A 
BRANCH   6  10
ATOM     10  C   UNL     1      -0.912   3.487  -0.144  0.00  0.00    +0.021 A 
ATOM     11  C   UNL     1       0.373   3.014  -0.152  0.00  0.00    +0.016 A 
ATOM     12  C   UNL     1       0.577   1.651  -0.192  0.00  0.00    +0.008 A 
ATOM     13  C   UNL     1      -0.498   0.823  -0.222  0.00  0.00    +0.046 A 
ATOM     14  S   UNL     1      -1.861   1.976  -0.202  0.00  0.00    -0.097 S 
ENDBRANCH   6  10
BRANCH   5  15
ATOM     15  C   UNL     1      -2.960   4.515  -2.071  0.00  0.00    +0.342 C 
ATOM     16  O   UNL     1      -3.967   3.876  -1.834  0.00  0.00    -0.245 OA
BRANCH  15  17
ATOM     17  O   UNL     1      -2.376   4.429  -3.284  0.00  0.00    -0.461 OA
BRANCH  17  19
ATOM     18  C   UNL     1      -2.195   3.599  -5.547  0.00  0.00    +0.048 C 
ATOM     19  C   UNL     1      -2.994   3.567  -4.242  0.00  0.00    +0.229 C 
ENDBRANCH  17  19
ENDBRANCH  15  17
ENDBRANCH   5  15
ENDBRANCH   1   9
BRANCH   2  20
ATOM     20  C   UNL     1      -4.909   9.491  -2.221  0.00  0.00    +0.019 C 
BRANCH  20  28
ATOM     21  C   UNL     1      -5.538  10.915  -0.367  0.00  0.00    -0.059 C 
ATOM     22  C   UNL     1      -5.434  12.344   0.178  0.00  0.00    +0.089 C 
ATOM     23  N   UNL     1      -6.073  13.257  -0.782  0.00  0.00    -0.299 N 
ATOM     24  C   UNL     1      -5.669  13.177  -2.194  0.00  0.00    +0.089 C 
ATOM     25  C   UNL     1      -5.764  11.716  -2.645  0.00  0.00    -0.059 C 
ATOM     26  C   UNL     1      -7.004  14.144  -0.378  0.00  0.00    +0.282 C 
ATOM     27  O   UNL     1      -7.473  14.939  -1.171  0.00  0.00    -0.267 OA
ATOM     28  N   UNL     1      -4.958  10.882  -1.727  0.00  0.00    +0.387 N 
ATOM     29  H   UNL     1      -4.002  11.256  -1.690  0.00  0.00    -0.081 HD
BRANCH  26  30
ATOM     30  C   UNL     1      -7.453  14.151   1.018  0.00  0.00    +0.189 A 
ATOM     31  C   UNL     1      -8.475  14.899   1.529  0.00  0.00    +0.054 A 
ATOM     32  C   UNL     1      -8.555  14.593   2.897  0.00  0.00    +0.042 A 
ATOM     33  C   UNL     1      -7.591  13.683   3.158  0.00  0.00    +0.196 A 
ATOM     34  O   UNL     1      -6.933  13.415   2.022  0.00  0.00    -0.458 OA
ENDBRANCH  26  30
ENDBRANCH  20  28
ENDBRANCH   2  20
TORSDOF 8
