REMARK  Name = ZINC39211590
REMARK  9 active torsions:
REMARK  status: ('A' for Active; 'I' for Inactive)
REMARK    1  A    between atoms: C_1  and  C_2
REMARK    2  A    between atoms: C_4  and  C_14
REMARK    3  A    between atoms: C_7  and  O_12
REMARK    4  A    between atoms: O_12  and  C_13
REMARK    5  A    between atoms: C_14  and  C_15
REMARK    6  A    between atoms: C_15  and  N_16
REMARK    7  A    between atoms: C_17  and  C_19
REMARK    8  A    between atoms: C_24  and  C_33
REMARK    9  A    between atoms: C_26  and  C_29
REMARK                            x       y       z     vdW  Elec       q    Type
REMARK                         _______ _______ _______ _____ _____    ______ ____
ROOT
ATOM      1  N   UNL     1      -4.145   2.771   1.716  0.00  0.00    -0.313 N 
ATOM      2  C   UNL     1      -4.410   3.792   2.555  0.00  0.00    +0.236 C 
ATOM      3  O   UNL     1      -3.844   4.855   2.414  0.00  0.00    -0.274 OA
ATOM      4  H   UNL     1      -4.598   1.921   1.828  0.00  0.00    +0.149 HD
ENDROOT
BRANCH   2   5
ATOM      5  C   UNL     1      -5.410   3.612   3.668  0.00  0.00    +0.185 C 
ATOM      6  C   UNL     1      -6.784   3.336   3.103  0.00  0.00    +0.047 C 
ATOM      7  C   UNL     1      -7.585   4.341   3.519  0.00  0.00    +0.138 C 
ATOM      8  N   UNL     1      -8.904   4.532   3.268  0.00  0.00    -0.230 NA
ATOM      9  C   UNL     1      -9.545   5.578   3.755  0.00  0.00    +0.081 C 
ATOM     10  C   UNL     1      -8.822   6.548   4.579  0.00  0.00    +0.056 C 
ATOM     11  C   UNL     1      -7.512   6.349   4.822  0.00  0.00    +0.115 C 
ATOM     12  N   UNL     1      -6.878   5.246   4.297  0.00  0.00    -0.215 N 
ATOM     13  N   UNL     1      -5.566   4.866   4.426  0.00  0.00    -0.218 NA
ATOM     14  H   UNL     1      -4.945   5.580   4.076  0.00  0.00    +0.146 HD
BRANCH   9  15
ATOM     15  C   UNL     1     -10.977   5.769   3.471  0.00  0.00    +0.038 A 
ATOM     16  C   UNL     1     -11.832   4.973   2.728  0.00  0.00    +0.017 A 
ATOM     17  C   UNL     1     -13.133   5.415   2.639  0.00  0.00    +0.008 A 
ATOM     18  C   UNL     1     -13.482   6.563   3.266  0.00  0.00    +0.046 A 
ATOM     19  S   UNL     1     -12.063   7.079   4.001  0.00  0.00    -0.095 S 
ENDBRANCH   9  15
BRANCH  11  20
ATOM     20  C   UNL     1      -6.743   7.332   5.666  0.00  0.00    +0.363 C 
ATOM     21  F   UNL     1      -7.597   8.360   6.080  0.00  0.00    -0.181 F 
ATOM     22  F   UNL     1      -6.223   6.677   6.788  0.00  0.00    -0.181 F 
ATOM     23 CL   UNL     1      -5.391   8.028   4.697  0.00  0.00    -0.041 Cl
ENDBRANCH  11  20
ENDBRANCH   2   5
BRANCH   1  24
ATOM     24  C   UNL     1      -3.174   2.945   0.633  0.00  0.00    +0.109 C 
BRANCH  24  25
ATOM     25  C   UNL     1      -3.061   1.645  -0.165  0.00  0.00    +0.056 C 
BRANCH  25  29
ATOM     26  C   UNL     1      -0.013   1.086   0.008  0.00  0.00    +0.063 C 
ATOM     27  C   UNL     1      -0.742   1.585  -1.213  0.00  0.00    +0.017 A 
ATOM     28  H   UNL     1       0.790   1.775  -2.611  0.00  0.00    +0.166 HD
ATOM     29  C   UNL     1      -2.061   1.824  -1.278  0.00  0.00    -0.018 A 
ATOM     30  C   UNL     1      -2.345   2.293  -2.637  0.00  0.00    +0.007 A 
ATOM     31  C   UNL     1      -3.506   2.692  -3.302  0.00  0.00    +0.056 A 
ATOM     32  C   UNL     1      -3.434   3.090  -4.622  0.00  0.00    +0.121 A 
ATOM     33  C   UNL     1      -2.212   3.093  -5.288  0.00  0.00    +0.047 A 
ATOM     34  C   UNL     1      -1.060   2.701  -4.643  0.00  0.00    +0.030 A 
ATOM     35  C   UNL     1      -1.111   2.298  -3.313  0.00  0.00    +0.047 A 
ATOM     36  N   UNL     1      -0.156   1.867  -2.417  0.00  0.00    -0.358 N 
BRANCH  32  37
ATOM     37  O   UNL     1      -4.562   3.479  -5.274  0.00  0.00    -0.495 OA
ATOM     38  C   UNL     1      -4.417   3.878  -6.639  0.00  0.00    +0.277 C 
ENDBRANCH  32  37
ENDBRANCH  25  29
ENDBRANCH  24  25
ENDBRANCH   1  24
TORSDOF 7
