REMARK  Name = ZINC13715784
REMARK  8 active torsions:
REMARK  status: ('A' for Active; 'I' for Inactive)
REMARK    1  A    between atoms: C_1  and  C_2
REMARK    2  A    between atoms: C_2  and  C_3
REMARK    3  A    between atoms: C_3  and  C_5
REMARK    4  A    between atoms: C_3  and  N_16
REMARK    5  A    between atoms: N_7  and  C_8
REMARK    6  A    between atoms: N_16  and  C_17
REMARK    7  A    between atoms: N_16  and  S_24
REMARK    8  A    between atoms: S_24  and  C_27
REMARK                            x       y       z     vdW  Elec       q    Type
REMARK                         _______ _______ _______ _____ _____    ______ ____
ROOT
ATOM      1  C   UNL     1       5.924  -0.481  -0.607  0.00  0.00    +0.183 C 
ENDROOT
BRANCH   1   2
ATOM      2  C   UNL     1       4.779   0.465  -0.353  0.00  0.00    +0.239 C 
ATOM      3  O   UNL     1       4.976   1.515   0.222  0.00  0.00    -0.273 OA
ATOM      4  N   UNL     1       3.536   0.145  -0.764  0.00  0.00    -0.284 N 
ATOM      5  H   UNL     1       3.364  -0.727  -1.154  0.00  0.00    +0.155 HD
BRANCH   4   6
ATOM      6  C   UNL     1       2.494   1.070  -0.630  0.00  0.00    +0.035 A 
ATOM      7  C   UNL     1       2.755   2.430  -0.732  0.00  0.00    +0.025 A 
ATOM      8  C   UNL     1       1.725   3.341  -0.599  0.00  0.00    +0.023 A 
ATOM      9  C   UNL     1       0.435   2.900  -0.364  0.00  0.00    +0.059 A 
ATOM     10  C   UNL     1       0.172   1.544  -0.262  0.00  0.00    +0.061 A 
ATOM     11  C   UNL     1       1.199   0.629  -0.394  0.00  0.00    +0.044 A 
ATOM     12 CL   UNL     1      -1.448   0.994   0.033  0.00  0.00    -0.082 Cl
ATOM     13 CL   UNL     1      -0.856   4.048  -0.191  0.00  0.00    -0.082 Cl
ENDBRANCH   4   6
ENDBRANCH   1   2
BRANCH   1  15
ATOM     14  C   UNL     1       6.986  -2.628   0.103  0.00  0.00    +0.006 C 
ATOM     15  C   UNL     1       5.903  -1.599   0.436  0.00  0.00    +0.030 C 
ENDBRANCH   1  15
BRANCH   1  16
ATOM     16  N   UNL     1       7.191   0.250  -0.515  0.00  0.00    -0.196 N 
BRANCH  16  17
ATOM     17  C   UNL     1       7.569   0.843   0.693  0.00  0.00    +0.052 A 
ATOM     18  C   UNL     1       7.907   0.049   1.782  0.00  0.00    +0.027 A 
ATOM     19  C   UNL     1       8.285   0.637   2.973  0.00  0.00    +0.040 A 
ATOM     20  C   UNL     1       8.318   2.017   3.086  0.00  0.00    +0.124 A 
ATOM     21  C   UNL     1       7.976   2.810   2.003  0.00  0.00    +0.040 A 
ATOM     22  C   UNL     1       7.603   2.226   0.808  0.00  0.00    +0.027 A 
ATOM     23  F   UNL     1       8.683   2.590   4.253  0.00  0.00    -0.205 F 
ENDBRANCH  16  17
BRANCH  16  24
ATOM     24  S   UNL     1       8.175   0.373  -1.841  0.00  0.00    +0.043 S 
ATOM     25  O   UNL     1       9.479   0.560  -1.310  0.00  0.00    -0.155 OA
ATOM     26  O   UNL     1       7.870  -0.772  -2.627  0.00  0.00    -0.155 OA
ATOM     27  C   UNL     1       7.624   1.878  -2.692  0.00  0.00    +0.218 C 
ENDBRANCH  16  24
ENDBRANCH   1  16
TORSDOF 6
