REMARK  Name = ZINC06923071
REMARK  2 active torsions:
REMARK  status: ('A' for Active; 'I' for Inactive)
REMARK    1  A    between atoms: C_3  and  C_8
REMARK    2  A    between atoms: C_11  and  C_19
REMARK                            x       y       z     vdW  Elec       q    Type
REMARK                         _______ _______ _______ _____ _____    ______ ____
ROOT
ATOM      1  C   UNL     1       3.672   2.183  -0.022  0.00  0.00    +0.144 C 
ATOM      2  C   UNL     1       4.499   1.814   1.216  0.00  0.00    +0.059 C 
ATOM      3  C   UNL     1       5.920   2.372   1.076  0.00  0.00    +0.107 C 
ATOM      4  N   UNL     1       6.561   1.744  -0.097  0.00  0.00    -0.305 N 
ATOM      5  C   UNL     1       5.779   1.639  -1.238  0.00  0.00    +0.236 A 
ATOM      6  N   UNL     1       4.436   1.845  -1.220  0.00  0.00    -0.206 N 
ATOM      7  N   UNL     1       4.008   1.660  -2.535  0.00  0.00    -0.042 NA
ATOM      8  N   UNL     1       5.062   1.369  -3.227  0.00  0.00    -0.021 NA
ATOM      9  N   UNL     1       6.110   1.351  -2.466  0.00  0.00    -0.092 NA
ATOM     10  H   UNL     1       7.476   1.424  -0.070  0.00  0.00    +0.150 HD
ENDROOT
BRANCH   1  13
ATOM     11  C   UNL     1      -0.017   1.378   0.010  0.00  0.00    +0.001 A 
ATOM     12  C   UNL     1       1.171   2.086   0.002  0.00  0.00    +0.006 A 
ATOM     13  C   UNL     1       2.378   1.411  -0.013  0.00  0.00    -0.022 A 
ATOM     14  C   UNL     1       2.397   0.029  -0.022  0.00  0.00    +0.021 A 
ATOM     15  C   UNL     1       1.210  -0.679  -0.014  0.00  0.00    +0.018 A 
ATOM     16  C   UNL     1       0.002  -0.004   0.002  0.00  0.00    +0.015 A 
ATOM     17 BR   UNL     1       1.236  -2.570  -0.025  0.00  0.00    -0.050 Br
ENDBRANCH   1  13
BRANCH   3  18
ATOM     18  C   UNL     1       6.712   2.057   2.318  0.00  0.00    -0.009 A 
ATOM     19  C   UNL     1       6.890   3.020   3.300  0.00  0.00    +0.008 A 
ATOM     20  C   UNL     1       7.626   2.685   4.426  0.00  0.00    +0.020 A 
ATOM     21  C   UNL     1       8.154   1.412   4.532  0.00  0.00    +0.111 A 
ATOM     22  N   UNL     1       7.965   0.522   3.578  0.00  0.00    -0.263 NA
ATOM     23  C   UNL     1       7.265   0.803   2.496  0.00  0.00    +0.116 A 
ENDBRANCH   3  18
TORSDOF 2
