REMARK  Name = ZINC24309702
REMARK  8 active torsions:
REMARK  status: ('A' for Active; 'I' for Inactive)
REMARK    1  A    between atoms: C_1  and  C_2
REMARK    2  A    between atoms: C_6  and  C_8
REMARK    3  A    between atoms: N_14  and  C_15
REMARK    4  A    between atoms: C_15  and  C_16
REMARK    5  A    between atoms: C_16  and  C_17
REMARK    6  A    between atoms: N_19  and  N_20
REMARK    7  A    between atoms: C_21  and  C_23
REMARK    8  A    between atoms: C_30  and  C_33
REMARK                            x       y       z     vdW  Elec       q    Type
REMARK                         _______ _______ _______ _____ _____    ______ ____
ROOT
ATOM      1  C   UNL     1      -4.756   5.088  -0.102  0.00  0.00    +0.231 C 
ATOM      2  O   UNL     1      -4.918   4.814  -1.273  0.00  0.00    -0.274 OA
ATOM      3  N   UNL     1      -5.775   4.952   0.769  0.00  0.00    -0.234 N 
ATOM      4  H   UNL     1      -5.627   5.200   1.831  0.00  0.00    +0.173 HD
ENDROOT
BRANCH   3   5
ATOM      5  N   UNL     1      -7.022   4.496   0.323  0.00  0.00    -0.230 N 
ATOM      6  C   UNL     1      -8.041   4.360   1.195  0.00  0.00    +0.267 C 
ATOM      7  O   UNL     1      -7.878   4.635   2.369  0.00  0.00    -0.268 OA
ATOM      8  H   UNL     1      -7.169   4.248  -0.738  0.00  0.00    +0.173 HD
BRANCH   6   9
ATOM      9  C   UNL     1      -9.346   3.883   0.728  0.00  0.00    +0.076 A 
ATOM     10  C   UNL     1     -10.507   3.676   1.449  0.00  0.00    +0.024 A 
ATOM     11  C   UNL     1     -11.624   3.214   0.772  0.00  0.00    -0.036 A 
ATOM     12  C   UNL     1     -11.484   2.998  -0.570  0.00  0.00    -0.006 A 
ATOM     13  S   UNL     1      -9.853   3.423  -0.921  0.00  0.00    -0.088 S 
ATOM     14  C   UNL     1     -12.532   2.505  -1.519  0.00  0.00    +0.043 C 
ATOM     15  C   UNL     1     -13.902   2.627  -0.835  0.00  0.00    +0.009 C 
ATOM     16  C   UNL     1     -13.803   2.036   0.574  0.00  0.00    -0.009 C 
ATOM     17  C   UNL     1     -12.958   2.949   1.464  0.00  0.00    +0.039 C 
ATOM     18  C   UNL     1     -15.206   1.903   1.169  0.00  0.00    +0.008 C 
ENDBRANCH   6   9
ENDBRANCH   3   5
BRANCH   1  19
ATOM     19  C   UNL     1      -3.414   5.579   0.377  0.00  0.00    +0.119 C 
BRANCH  19  20
ATOM     20  C   UNL     1      -2.442   5.641  -0.802  0.00  0.00    +0.135 C 
BRANCH  20  27
ATOM     21  C   UNL     1      -0.073   5.324   0.042  0.00  0.00    +0.163 A 
ATOM     22  N   UNL     1       0.913   6.097   0.402  0.00  0.00    -0.153 NA
ATOM     23  N   UNL     1       0.499   7.427   0.252  0.00  0.00    -0.254 N 
ATOM     24  H   UNL     1       1.189   8.249   0.497  0.00  0.00    +0.191 HD
ATOM     25  C   UNL     1      -0.771   7.409  -0.202  0.00  0.00    +0.176 A 
ATOM     26  S   UNL     1      -1.742   8.776  -0.544  0.00  0.00    -0.011 S 
ATOM     27  N   UNL     1      -1.138   6.119  -0.336  0.00  0.00    -0.303 N 
BRANCH  21  33
ATOM     28  C   UNL     1       2.475   1.033  -0.007  0.00  0.00    +0.044 C 
ATOM     29  C   UNL     1       1.165   1.777   0.021  0.00  0.00    -0.050 A 
ATOM     30  C   UNL     1      -0.027   1.076   0.050  0.00  0.00    +0.003 A 
ATOM     31  C   UNL     1      -1.234   1.751   0.070  0.00  0.00    +0.001 A 
ATOM     32  C   UNL     1      -1.256   3.131   0.072  0.00  0.00    +0.011 A 
ATOM     33  C   UNL     1      -0.057   3.844   0.044  0.00  0.00    +0.019 A 
ATOM     34  C   UNL     1       1.157   3.157   0.018  0.00  0.00    +0.015 A 
ENDBRANCH  21  33
ENDBRANCH  20  27
ENDBRANCH  19  20
ENDBRANCH   1  19
TORSDOF 6
