REMARK  Name = ZINC35094594
REMARK  13 active torsions:
REMARK  status: ('A' for Active; 'I' for Inactive)
REMARK    1  A    between atoms: C_1  and  C_2
REMARK    2  A    between atoms: C_2  and  O_3
REMARK    3  A    between atoms: O_3  and  C_4
REMARK    4  A    between atoms: C_9  and  N_10
REMARK    5  A    between atoms: C_20  and  C_21
REMARK    6  A    between atoms: C_21  and  C_23
REMARK    7  A    between atoms: C_21  and  N_24
REMARK    8  A    between atoms: N_24  and  C_25
REMARK    9  A    between atoms: C_25  and  C_26
REMARK   10  A    between atoms: C_26  and  N_27
REMARK   11  A    between atoms: N_27  and  C_28
REMARK   12  A    between atoms: N_27  and  C_29
REMARK   13  A    between atoms: C_30  and  C_32
REMARK                            x       y       z     vdW  Elec       q    Type
REMARK                         _______ _______ _______ _____ _____    ______ ____
ROOT
ATOM      1  N   UNL     1      -4.172   0.103   0.626  0.00  0.00    -0.259 N 
ATOM      2  C   UNL     1      -4.933   0.723  -0.306  0.00  0.00    +0.266 A 
ATOM      3  O   UNL     1      -4.585   1.776  -0.807  0.00  0.00    -0.267 OA
ATOM      4  C   UNL     1      -6.195   0.075  -0.689  0.00  0.00    +0.065 A 
ATOM      5  C   UNL     1      -7.050   0.631  -1.639  0.00  0.00    +0.015 A 
ATOM      6  C   UNL     1      -8.221  -0.019  -1.961  0.00  0.00    +0.001 A 
ATOM      7  C   UNL     1      -8.554  -1.220  -1.348  0.00  0.00    +0.002 A 
ATOM      8  C   UNL     1      -7.724  -1.786  -0.407  0.00  0.00    +0.028 A 
ATOM      9  C   UNL     1      -6.531  -1.147  -0.064  0.00  0.00    +0.078 A 
ATOM     10  N   UNL     1      -5.683  -1.669   0.857  0.00  0.00    -0.231 NA
ATOM     11  C   UNL     1      -4.571  -1.077   1.173  0.00  0.00    +0.138 A 
ENDROOT
BRANCH   1  17
ATOM     12  C   UNL     1      -2.941   1.647   2.028  0.00  0.00    +0.144 A 
ATOM     13  C   UNL     1      -1.738   2.209   2.423  0.00  0.00    +0.048 A 
ATOM     14  C   UNL     1      -0.558   1.812   1.821  0.00  0.00    +0.004 A 
ATOM     15  C   UNL     1      -0.575   0.854   0.824  0.00  0.00    +0.002 A 
ATOM     16  C   UNL     1      -1.771   0.289   0.423  0.00  0.00    +0.030 A 
ATOM     17  C   UNL     1      -2.958   0.679   1.027  0.00  0.00    +0.093 A 
BRANCH  12  18
ATOM     18  O   UNL     1      -4.102   2.036   2.619  0.00  0.00    -0.490 OA
BRANCH  18  20
ATOM     19  C   UNL     1      -5.405   3.341   4.181  0.00  0.00    +0.048 C 
ATOM     20  C   UNL     1      -4.008   3.034   3.638  0.00  0.00    +0.226 C 
ENDBRANCH  18  20
ENDBRANCH  12  18
ENDBRANCH   1  17
BRANCH  11  21
ATOM     21  C   UNL     1      -3.682  -1.726   2.201  0.00  0.00    +0.140 C 
ATOM     22  C   UNL     1      -3.360  -3.157   1.767  0.00  0.00    +0.036 C 
BRANCH  21  23
ATOM     23  N   UNL     1      -4.369  -1.751   3.495  0.00  0.00    -0.289 N 
ATOM     24  C   UNL     1      -3.828  -1.124   4.558  0.00  0.00    +0.249 C 
ATOM     25  O   UNL     1      -2.810  -0.473   4.426  0.00  0.00    -0.270 OA
BRANCH  24  26
ATOM     26  C   UNL     1      -4.472  -1.228   5.884  0.00  0.00    +0.055 A 
ATOM     27  C   UNL     1      -5.774  -0.760   6.070  0.00  0.00    +0.014 A 
ATOM     28  C   UNL     1      -6.370  -0.860   7.309  0.00  0.00    +0.001 A 
ATOM     29  C   UNL     1      -5.679  -1.423   8.369  0.00  0.00    +0.001 A 
ATOM     30  C   UNL     1      -4.389  -1.888   8.194  0.00  0.00    +0.021 A 
ATOM     31  C   UNL     1      -3.783  -1.800   6.956  0.00  0.00    +0.053 A 
ATOM     32 CL   UNL     1      -2.166  -2.391   6.735  0.00  0.00    -0.083 Cl
ENDBRANCH  24  26
BRANCH  23  33
ATOM     33  C   UNL     1      -5.644  -2.458   3.633  0.00  0.00    +0.090 C 
BRANCH  33  34
ATOM     34  C   UNL     1      -5.391  -3.864   4.181  0.00  0.00    -0.060 C 
BRANCH  34  35
ATOM     35  N   UNL     1      -6.670  -4.574   4.319  0.00  0.00    +0.377 N 
ATOM     36  C   UNL     1      -7.265  -4.775   2.991  0.00  0.00    -0.097 C 
ATOM     37  C   UNL     1      -6.441  -5.877   4.956  0.00  0.00    -0.097 C 
ATOM     38  H   UNL     1      -7.298  -4.027   4.889  0.00  0.00    -0.083 HD
ENDBRANCH  34  35
ENDBRANCH  33  34
ENDBRANCH  23  33
ENDBRANCH  21  23
ENDBRANCH  11  21
TORSDOF 9
