REMARK  Name = ZINC23245491
REMARK  12 active torsions:
REMARK  status: ('A' for Active; 'I' for Inactive)
REMARK    1  A    between atoms: C_1  and  C_2
REMARK    2  A    between atoms: C_3  and  C_16
REMARK    3  A    between atoms: C_4  and  C_15
REMARK    4  A    between atoms: N_5  and  C_7
REMARK    5  A    between atoms: C_7  and  C_8
REMARK    6  A    between atoms: C_16  and  N_17
REMARK    7  A    between atoms: N_17  and  C_18
REMARK    8  A    between atoms: N_17  and  C_19
REMARK    9  A    between atoms: C_19  and  N_20
REMARK   10  A    between atoms: N_23  and  C_27
REMARK   11  A    between atoms: C_24  and  C_26
REMARK   12  A    between atoms: C_27  and  C_28
REMARK                            x       y       z     vdW  Elec       q    Type
REMARK                         _______ _______ _______ _____ _____    ______ ____
ROOT
ATOM      1  N   UNL     1       2.916   1.972  -1.400  0.00  0.00    +0.394 N 
ATOM      2  C   UNL     1       2.217   0.874  -2.082  0.00  0.00    -0.093 C 
ATOM      3  H   UNL     1       2.671   2.906  -1.927  0.00  0.00    -0.079 HD
ENDROOT
BRANCH   1   4
ATOM      4  C   UNL     1       4.372   1.787  -1.461  0.00  0.00    -0.037 C 
BRANCH   4   7
ATOM      5  C   UNL     1       5.275   4.451  -2.921  0.00  0.00    +0.068 C 
ATOM      6  C   UNL     1       5.232   3.076  -3.536  0.00  0.00    +0.062 A 
ATOM      7  C   UNL     1       4.833   1.901  -2.891  0.00  0.00    -0.021 A 
ATOM      8  C   UNL     1       4.940   0.884  -3.777  0.00  0.00    +0.038 A 
ATOM      9  N   UNL     1       5.382   1.398  -4.943  0.00  0.00    -0.264 N 
ATOM     10  N   UNL     1       5.562   2.776  -4.766  0.00  0.00    -0.176 NA
ATOM     11  C   UNL     1       4.619  -0.564  -3.510  0.00  0.00    +0.065 C 
BRANCH   9  12
ATOM     12  C   UNL     1       5.636   0.647  -6.176  0.00  0.00    +0.180 C 
BRANCH  12  13
ATOM     13  C   UNL     1       7.063   0.163  -6.184  0.00  0.00    -0.008 A 
ATOM     14  C   UNL     1       7.351  -1.143  -5.836  0.00  0.00    +0.007 A 
ATOM     15  C   UNL     1       8.660  -1.588  -5.843  0.00  0.00    +0.000 A 
ATOM     16  C   UNL     1       9.681  -0.726  -6.199  0.00  0.00    +0.001 A 
ATOM     17  C   UNL     1       9.394   0.580  -6.548  0.00  0.00    +0.020 A 
ATOM     18  C   UNL     1       8.084   1.024  -6.545  0.00  0.00    +0.046 A 
ATOM     19 CL   UNL     1       7.721   2.662  -6.990  0.00  0.00    -0.083 Cl
ENDBRANCH  12  13
ENDBRANCH   9  12
ENDBRANCH   4   7
ENDBRANCH   1   4
BRANCH   1  20
ATOM     20  C   UNL     1       2.459   2.104  -0.010  0.00  0.00    +0.072 C 
BRANCH  20  21
ATOM     21  N   UNL     1       1.055   2.521   0.005  0.00  0.00    -0.258 N 
ATOM     22  C   UNL     1      -0.021   1.708   0.011  0.00  0.00    +0.177 A 
ATOM     23  S   UNL     1       0.002  -0.004   0.002  0.00  0.00    -0.011 S 
ATOM     24  N   UNL     1      -1.118   2.491   0.020  0.00  0.00    -0.303 N 
ATOM     25  C   UNL     1      -0.713   3.803   0.029  0.00  0.00    +0.129 A 
ATOM     26  N   UNL     1       0.581   3.840   0.017  0.00  0.00    -0.158 NA
ATOM     27  C   UNL     1      -1.625   5.003   0.045  0.00  0.00    +0.088 C 
BRANCH  24  28
ATOM     28  C   UNL     1      -2.506   2.023   0.023  0.00  0.00    +0.160 C 
BRANCH  28  29
ATOM     29  C   UNL     1      -2.977   1.855   1.445  0.00  0.00    -0.028 A 
ATOM     30  C   UNL     1      -2.815   0.642   2.088  0.00  0.00    +0.005 A 
ATOM     31  C   UNL     1      -3.242   0.489   3.394  0.00  0.00    +0.000 A 
ATOM     32  C   UNL     1      -3.840   1.547   4.053  0.00  0.00    +0.000 A 
ATOM     33  C   UNL     1      -4.007   2.758   3.409  0.00  0.00    +0.000 A 
ATOM     34  C   UNL     1      -3.575   2.912   2.105  0.00  0.00    +0.005 A 
ENDBRANCH  28  29
ENDBRANCH  24  28
ENDBRANCH  20  21
ENDBRANCH   1  20
TORSDOF 8
