REMARK  Name = ZINC08074677
REMARK  3 active torsions:
REMARK  status: ('A' for Active; 'I' for Inactive)
REMARK    1  A    between atoms: C_3  and  C_21
REMARK    2  A    between atoms: C_5  and  N_7
REMARK    3  A    between atoms: C_8  and  C_10
REMARK                            x       y       z     vdW  Elec       q    Type
REMARK                         _______ _______ _______ _____ _____    ______ ____
ROOT
ATOM      1  C   UNL     1      -0.073   1.009   0.217  0.00  0.00    +0.002 A 
ATOM      2  C   UNL     1      -1.278   1.680   0.159  0.00  0.00    +0.012 A 
ATOM      3  C   UNL     1      -1.300   3.057  -0.066  0.00  0.00    +0.021 A 
ATOM      4  C   UNL     1      -0.102   3.749  -0.241  0.00  0.00    +0.035 A 
ATOM      5  C   UNL     1       1.103   3.066  -0.186  0.00  0.00    +0.034 A 
ATOM      6  C   UNL     1       1.114   1.695   0.043  0.00  0.00    +0.023 A 
ENDROOT
BRANCH   3   7
ATOM      7  C   UNL     1      -2.589   3.780  -0.123  0.00  0.00    +0.164 A 
ATOM      8  N   UNL     1      -2.770   5.075   0.021  0.00  0.00    -0.129 NA
ATOM      9  N   UNL     1      -4.021   5.356  -0.098  0.00  0.00    -0.134 NA
ATOM     10  C   UNL     1      -4.702   4.266  -0.317  0.00  0.00    +0.134 A 
ATOM     11  N   UNL     1      -3.821   3.230  -0.330  0.00  0.00    -0.311 N 
ATOM     12  C   UNL     1      -4.142   1.816  -0.517  0.00  0.00    +0.125 C 
ATOM     13  C   UNL     1      -5.414   1.691  -1.361  0.00  0.00    +0.022 C 
ATOM     14  C   UNL     1      -6.640   1.692  -0.449  0.00  0.00    +0.002 C 
ATOM     15  C   UNL     1      -6.729   3.002   0.329  0.00  0.00    +0.008 C 
ATOM     16  C   UNL     1      -6.189   4.149  -0.531  0.00  0.00    +0.076 C 
ENDBRANCH   3   7
BRANCH   5  17
ATOM     17  N   UNL     1       2.307   3.756  -0.361  0.00  0.00    -0.282 N 
ATOM     18  C   UNL     1       2.385   5.065  -0.053  0.00  0.00    +0.258 C 
ATOM     19  O   UNL     1       1.441   5.623   0.465  0.00  0.00    -0.271 OA
ATOM     20  H   UNL     1       3.087   3.291  -0.705  0.00  0.00    +0.155 HD
BRANCH  18  21
ATOM     21  C   UNL     1       3.645   5.836  -0.351  0.00  0.00    +0.263 C 
ATOM     22  C   UNL     1       4.794   5.393   0.585  0.00  0.00    +0.093 C 
ATOM     23  C   UNL     1       5.521   6.701   0.831  0.00  0.00    -0.000 A 
ATOM     24  C   UNL     1       6.772   6.983   1.333  0.00  0.00    +0.027 A 
ATOM     25  C   UNL     1       7.197   8.297   1.434  0.00  0.00    +0.041 A 
ATOM     26  C   UNL     1       6.360   9.322   1.028  0.00  0.00    +0.023 A 
ATOM     27  C   UNL     1       5.105   9.040   0.528  0.00  0.00    +0.047 A 
ATOM     28  C   UNL     1       4.669   7.721   0.429  0.00  0.00    +0.125 A 
ATOM     29  O   UNL     1       3.483   7.226  -0.019  0.00  0.00    -0.479 OA
ATOM     30 CL   UNL     1       8.773   8.657   2.066  0.00  0.00    -0.084 Cl
ENDBRANCH  18  21
ENDBRANCH   5  17
TORSDOF 3
