REMARK  Name = ZINC21257251
REMARK  10 active torsions:
REMARK  status: ('A' for Active; 'I' for Inactive)
REMARK    1  A    between atoms: C_1  and  O_2
REMARK    2  A    between atoms: O_2  and  C_3
REMARK    3  A    between atoms: C_6  and  C_10
REMARK    4  A    between atoms: C_21  and  C_24
REMARK    5  A    between atoms: C_26  and  O_34
REMARK    6  A    between atoms: C_27  and  O_32
REMARK    7  A    between atoms: C_28  and  O_30
REMARK    8  A    between atoms: O_30  and  C_31
REMARK    9  A    between atoms: O_32  and  C_33
REMARK   10  A    between atoms: O_34  and  C_35
REMARK                            x       y       z     vdW  Elec       q    Type
REMARK                         _______ _______ _______ _____ _____    ______ ____
ROOT
ATOM      1  C   UNL     1       1.585   9.322  -2.889  0.00  0.00    +0.063 C 
ATOM      2  C   UNL     1       3.069   9.025  -3.112  0.00  0.00    +0.109 C 
ATOM      3  C   UNL     1       3.752   8.886  -1.776  0.00  0.00    +0.218 C 
ATOM      4  O   UNL     1       4.901   9.248  -1.644  0.00  0.00    -0.275 OA
ATOM      5  N   UNL     1       3.089   8.362  -0.730  0.00  0.00    -0.289 N 
ATOM      6  C   UNL     1       1.796   7.922  -0.856  0.00  0.00    +0.018 C 
ATOM      7  C   UNL     1       1.026   8.348  -1.879  0.00  0.00    +0.020 C 
ATOM      8  C   UNL     1      -0.298   7.904  -2.031  0.00  0.00    +0.162 C 
ATOM      9  O   UNL     1      -0.966   8.318  -2.958  0.00  0.00    -0.292 OA
ATOM     10  C   UNL     1      -0.904   6.922  -1.063  0.00  0.00    +0.088 C 
ATOM     11  C   UNL     1       0.211   6.048  -0.479  0.00  0.00    +0.032 C 
ATOM     12  C   UNL     1       1.256   6.958   0.171  0.00  0.00    +0.059 C 
ATOM     13  H   UNL     1       3.584   8.281   0.249  0.00  0.00    +0.155 HD
ENDROOT
BRANCH   1  17
ATOM     14  C   UNL     1       1.135  13.311  -1.421  0.00  0.00    +0.134 A 
ATOM     15  C   UNL     1       1.882  12.387  -0.705  0.00  0.00    +0.047 A 
ATOM     16  C   UNL     1       2.022  11.097  -1.179  0.00  0.00    +0.008 A 
ATOM     17  C   UNL     1       1.427  10.728  -2.372  0.00  0.00    -0.038 A 
ATOM     18  C   UNL     1       0.682  11.647  -3.088  0.00  0.00    +0.023 A 
ATOM     19  C   UNL     1       0.534  12.938  -2.615  0.00  0.00    +0.060 A 
ATOM     20 BR   UNL     1      -0.484  14.194  -3.595  0.00  0.00    -0.047 Br
BRANCH  14  22
ATOM     21  C   UNL     1       1.639  14.892   0.281  0.00  0.00    +0.277 C 
ATOM     22  O   UNL     1       0.993  14.579  -0.954  0.00  0.00    -0.494 OA
ENDBRANCH  14  22
ENDBRANCH   1  17
BRANCH  11  23
ATOM     23  C   UNL     1      -0.366   5.119   0.558  0.00  0.00    -0.036 A 
ATOM     24  C   UNL     1      -1.000   5.638   1.672  0.00  0.00    +0.053 A 
ATOM     25  C   UNL     1      -1.531   4.787   2.629  0.00  0.00    +0.165 A 
ATOM     26  C   UNL     1      -1.431   3.410   2.464  0.00  0.00    +0.204 A 
ATOM     27  C   UNL     1      -0.787   2.893   1.346  0.00  0.00    +0.165 A 
ATOM     28  C   UNL     1      -0.259   3.751   0.394  0.00  0.00    +0.053 A 
BRANCH  27  29
ATOM     29  O   UNL     1      -0.682   1.547   1.184  0.00  0.00    -0.491 OA
ATOM     30  C   UNL     1      -0.013   1.086   0.008  0.00  0.00    +0.277 C 
ENDBRANCH  27  29
BRANCH  26  31
ATOM     31  O   UNL     1      -1.957   2.571   3.398  0.00  0.00    -0.488 OA
ATOM     32  C   UNL     1      -1.102   2.182   4.475  0.00  0.00    +0.277 C 
ENDBRANCH  26  31
BRANCH  25  33
ATOM     33  O   UNL     1      -2.156   5.298   3.723  0.00  0.00    -0.491 OA
ATOM     34  C   UNL     1      -2.228   6.721   3.823  0.00  0.00    +0.277 C 
ENDBRANCH  25  33
ENDBRANCH  11  23
TORSDOF 6
