REMARK  Name = ZINC12275993
REMARK  10 active torsions:
REMARK  status: ('A' for Active; 'I' for Inactive)
REMARK    1  A    between atoms: C_1  and  C_2
REMARK    2  A    between atoms: C_2  and  C_3
REMARK    3  A    between atoms: C_3  and  O_4
REMARK    4  A    between atoms: O_4  and  C_5
REMARK    5  A    between atoms: C_8  and  C_13
REMARK    6  A    between atoms: C_10  and  O_11
REMARK    7  A    between atoms: O_11  and  C_12
REMARK    8  A    between atoms: C_20  and  C_21
REMARK    9  A    between atoms: C_25  and  C_26
REMARK   10  A    between atoms: C_25  and  O_33
REMARK                            x       y       z     vdW  Elec       q    Type
REMARK                         _______ _______ _______ _____ _____    ______ ____
ROOT
ATOM      1  C   UNL     1      -1.415   2.683   0.293  0.00  0.00    +0.071 C 
ATOM      2  C   UNL     1      -0.856   3.931   0.976  0.00  0.00    +0.110 C 
ATOM      3  C   UNL     1       0.471   4.328   0.386  0.00  0.00    +0.224 C 
ATOM      4  O   UNL     1       0.741   5.497   0.208  0.00  0.00    -0.275 OA
ATOM      5  N   UNL     1       1.367   3.348   0.055  0.00  0.00    -0.231 N 
ATOM      6  C   UNL     1       0.944   2.027   0.050  0.00  0.00    +0.087 C 
ATOM      7  C   UNL     1      -0.342   1.621   0.198  0.00  0.00    +0.065 C 
ATOM      8  S   UNL     1       2.388   1.029  -0.184  0.00  0.00    -0.104 S 
ATOM      9  C   UNL     1       3.632   2.357  -0.404  0.00  0.00    +0.136 C 
ATOM     10  C   UNL     1       2.759   3.616  -0.263  0.00  0.00    +0.175 C 
ENDROOT
BRANCH  10  11
ATOM     11  C   UNL     1       2.814   4.384  -1.559  0.00  0.00    +0.004 A 
ATOM     12  C   UNL     1       1.816   4.221  -2.501  0.00  0.00    +0.011 A 
ATOM     13  C   UNL     1       1.863   4.929  -3.687  0.00  0.00    +0.039 A 
ATOM     14  C   UNL     1       2.916   5.793  -3.936  0.00  0.00    +0.123 A 
ATOM     15  C   UNL     1       3.918   5.951  -2.994  0.00  0.00    +0.039 A 
ATOM     16  C   UNL     1       3.866   5.247  -1.806  0.00  0.00    +0.011 A 
ATOM     17  F   UNL     1       2.966   6.481  -5.098  0.00  0.00    -0.205 F 
ENDBRANCH  10  11
BRANCH   1  21
ATOM     18  C   UNL     1      -2.773   3.689  -3.635  0.00  0.00    +0.162 A 
ATOM     19  C   UNL     1      -3.486   4.109  -2.524  0.00  0.00    +0.050 A 
ATOM     20  C   UNL     1      -3.047   3.777  -1.255  0.00  0.00    +0.008 A 
ATOM     21  C   UNL     1      -1.892   3.036  -1.092  0.00  0.00    -0.035 A 
ATOM     22  C   UNL     1      -1.176   2.614  -2.197  0.00  0.00    +0.053 A 
ATOM     23  C   UNL     1      -1.613   2.938  -3.471  0.00  0.00    +0.162 A 
BRANCH  23  24
ATOM     24  O   UNL     1      -0.910   2.524  -4.559  0.00  0.00    -0.491 OA
ATOM     25  C   UNL     1       0.271   1.758  -4.314  0.00  0.00    +0.277 C 
ENDBRANCH  23  24
BRANCH  18  26
ATOM     26  O   UNL     1      -3.206   4.011  -4.884  0.00  0.00    -0.488 OA
BRANCH  26  27
ATOM     27  C   UNL     1      -4.405   4.784  -4.976  0.00  0.00    +0.229 C 
BRANCH  27  29
ATOM     28  C   UNL     1      -6.014   5.872  -6.546  0.00  0.00    +0.007 C 
ATOM     29  C   UNL     1      -4.731   5.044  -6.448  0.00  0.00    +0.038 C 
ENDBRANCH  27  29
ENDBRANCH  26  27
ENDBRANCH  18  26
ENDBRANCH   1  21
BRANCH   7  30
ATOM     30  C   UNL     1      -0.673   0.230   0.256  0.00  0.00    +0.098 C 
ATOM     31  N   UNL     1      -0.937  -0.875   0.302  0.00  0.00    -0.191 NA
ENDBRANCH   7  30
BRANCH  10  32
ATOM     32  O   UNL     1       3.312   4.434   0.771  0.00  0.00    -0.366 OA
ATOM     33  H   UNL     1       4.242   4.662   0.637  0.00  0.00    +0.212 HD
ENDBRANCH  10  32
TORSDOF 8
