REMARK  Name = ZINC39654264
REMARK  10 active torsions:
REMARK  status: ('A' for Active; 'I' for Inactive)
REMARK    1  A    between atoms: C_1  and  C_2
REMARK    2  A    between atoms: C_8  and  C_10
REMARK    3  A    between atoms: C_10  and  O_11
REMARK    4  A    between atoms: O_11  and  C_12
REMARK    5  A    between atoms: C_12  and  C_14
REMARK    6  A    between atoms: C_14  and  C_16
REMARK    7  A    between atoms: C_14  and  N_19
REMARK    8  A    between atoms: C_16  and  C_17
REMARK    9  A    between atoms: C_16  and  C_18
REMARK   10  A    between atoms: C_20  and  C_22
REMARK                            x       y       z     vdW  Elec       q    Type
REMARK                         _______ _______ _______ _____ _____    ______ ____
ROOT
ATOM      1  C   UNL     1       5.709  -6.335   1.821  0.00  0.00    +0.185 C 
ENDROOT
BRANCH   1   2
ATOM      2  N   UNL     1       6.226  -6.776   3.119  0.00  0.00    -0.298 N 
ATOM      3  C   UNL     1       6.851  -7.966   3.227  0.00  0.00    +0.247 C 
ATOM      4  O   UNL     1       6.985  -8.673   2.247  0.00  0.00    -0.270 OA
ATOM      5  H   UNL     1       6.119  -6.212   3.901  0.00  0.00    +0.150 HD
BRANCH   3   6
ATOM      6  C   UNL     1       7.372  -8.411   4.535  0.00  0.00    +0.072 A 
ATOM      7  C   UNL     1       7.214  -7.604   5.664  0.00  0.00    +0.016 A 
ATOM      8  C   UNL     1       7.703  -8.025   6.883  0.00  0.00    +0.001 A 
ATOM      9  C   UNL     1       8.349  -9.245   6.990  0.00  0.00    +0.003 A 
ATOM     10  C   UNL     1       8.510 -10.050   5.879  0.00  0.00    +0.039 A 
ATOM     11  C   UNL     1       8.020  -9.644   4.651  0.00  0.00    +0.135 A 
ATOM     12  F   UNL     1       8.172 -10.434   3.565  0.00  0.00    -0.205 F 
ENDBRANCH   3   6
ENDBRANCH   1   2
BRANCH   1  13
ATOM     13  C   UNL     1       6.829  -5.654   1.032  0.00  0.00    +0.014 C 
ATOM     14  C   UNL     1       7.975  -6.643   0.814  0.00  0.00    +0.009 C 
ATOM     15  C   UNL     1       6.289  -5.193  -0.324  0.00  0.00    +0.009 C 
ENDBRANCH   1  13
BRANCH   1  16
ATOM     16  C   UNL     1       4.580  -5.360   2.035  0.00  0.00    +0.328 C 
ATOM     17  O   UNL     1       4.242  -5.064   3.157  0.00  0.00    -0.249 OA
BRANCH  16  18
ATOM     18  O   UNL     1       3.950  -4.820   0.980  0.00  0.00    -0.454 OA
BRANCH  18  19
ATOM     19  C   UNL     1       2.889  -3.904   1.257  0.00  0.00    +0.327 C 
BRANCH  19  27
ATOM     20  C   UNL     1      -0.019   1.526   0.010  0.00  0.00    +0.007 C 
ATOM     21  C   UNL     1       0.002  -0.004   0.002  0.00  0.00    -0.011 C 
ATOM     22  C   UNL     1       0.717  -0.497  -1.258  0.00  0.00    +0.022 C 
ATOM     23  C   UNL     1       0.705  -2.029  -1.280  0.00  0.00    +0.108 C 
ATOM     24  N   UNL     1       1.285  -2.525  -0.025  0.00  0.00    -0.299 N 
ATOM     25  C   UNL     1       0.731  -2.043   1.248  0.00  0.00    +0.108 C 
ATOM     26  C   UNL     1       0.742  -0.511   1.242  0.00  0.00    +0.022 C 
ATOM     27  C   UNL     1       2.305  -3.405  -0.040  0.00  0.00    +0.253 C 
ATOM     28  O   UNL     1       2.754  -3.796  -1.097  0.00  0.00    -0.272 OA
ENDBRANCH  19  27
ENDBRANCH  18  19
ENDBRANCH  16  18
ENDBRANCH   1  16
TORSDOF 7
