REMARK  Name = ZINC09844684
REMARK  7 active torsions:
REMARK  status: ('A' for Active; 'I' for Inactive)
REMARK    1  A    between atoms: C_4  and  S_10
REMARK    2  A    between atoms: C_5  and  N_7
REMARK    3  A    between atoms: S_10  and  N_13
REMARK    4  A    between atoms: N_13  and  C_14
REMARK    5  A    between atoms: C_14  and  C_15
REMARK    6  A    between atoms: C_15  and  N_16
REMARK    7  A    between atoms: C_21  and  C_23
REMARK                            x       y       z     vdW  Elec       q    Type
REMARK                         _______ _______ _______ _____ _____    ______ ____
ROOT
ATOM      1  C   UNL     1      -0.353   1.038  -0.138  0.00  0.00    +0.129 C 
ENDROOT
BRANCH   1   2
ATOM      2  N   UNL     1      -0.862   1.657  -1.365  0.00  0.00    -0.188 NA
ATOM      3  H   UNL     1      -1.742   2.063  -1.375  0.00  0.00    +0.148 HD
BRANCH   2   4
ATOM      4  S   UNL     1       0.067   1.661  -2.736  0.00  0.00    +0.061 S 
ATOM      5  O   UNL     1      -0.716   2.267  -3.755  0.00  0.00    -0.153 OA
ATOM      6  O   UNL     1       1.344   2.159  -2.360  0.00  0.00    -0.153 OA
BRANCH   4  10
ATOM      7  C   UNL     1       0.670  -2.655  -3.961  0.00  0.00    +0.002 A 
ATOM      8  C   UNL     1       1.758  -1.879  -3.603  0.00  0.00    +0.002 A 
ATOM      9  C   UNL     1       1.574  -0.560  -3.233  0.00  0.00    +0.031 A 
ATOM     10  C   UNL     1       0.302  -0.019  -3.212  0.00  0.00    +0.135 A 
ATOM     11  C   UNL     1      -0.785  -0.794  -3.571  0.00  0.00    +0.152 A 
ATOM     12  C   UNL     1      -0.601  -2.112  -3.945  0.00  0.00    +0.035 A 
BRANCH  11  13
ATOM     13  N   UNL     1      -2.146  -0.212  -3.554  0.00  0.00    +0.058 N 
ATOM     14  O   UNL     1      -3.086  -0.851  -3.992  0.00  0.00    -0.126 OA
ATOM     15  O   UNL     1      -2.326   0.905  -3.103  0.00  0.00    -0.126 OA
ENDBRANCH  11  13
ENDBRANCH   4  10
ENDBRANCH   2   4
ENDBRANCH   1   2
BRANCH   1  16
ATOM     16  C   UNL     1      -1.173   1.528   1.057  0.00  0.00    +0.164 C 
BRANCH  16  17
ATOM     17  N   UNL     1      -0.665   0.910   2.284  0.00  0.00    -0.228 N 
ATOM     18  C   UNL     1       0.312   1.529   2.973  0.00  0.00    +0.267 A 
ATOM     19  O   UNL     1       0.765   2.591   2.578  0.00  0.00    -0.266 OA
ATOM     20  C   UNL     1       0.805   0.943   4.160  0.00  0.00    +0.074 A 
ATOM     21  C   UNL     1       0.268  -0.246   4.556  0.00  0.00    +0.035 A 
ATOM     22  C   UNL     1      -0.751  -0.819   3.759  0.00  0.00    +0.092 A 
ATOM     23  N   UNL     1      -1.159  -0.210   2.670  0.00  0.00    -0.168 NA
BRANCH  22  24
ATOM     24  C   UNL     1      -1.360  -2.112   4.155  0.00  0.00    +0.002 A 
ATOM     25  C   UNL     1      -0.926  -2.766   5.307  0.00  0.00    +0.011 A 
ATOM     26  C   UNL     1      -1.498  -3.967   5.673  0.00  0.00    +0.020 A 
ATOM     27  C   UNL     1      -2.496  -4.527   4.894  0.00  0.00    +0.041 A 
ATOM     28  C   UNL     1      -2.927  -3.884   3.746  0.00  0.00    +0.020 A 
ATOM     29  C   UNL     1      -2.364  -2.680   3.373  0.00  0.00    +0.011 A 
ATOM     30 CL   UNL     1      -3.208  -6.041   5.357  0.00  0.00    -0.084 Cl
ENDBRANCH  22  24
ENDBRANCH  16  17
ENDBRANCH   1  16
TORSDOF 7
