REMARK  Name = ZINC56786798
REMARK  5 active torsions:
REMARK  status: ('A' for Active; 'I' for Inactive)
REMARK    1  A    between atoms: C_1  and  C_2
REMARK    2  A    between atoms: C_2  and  C_4
REMARK    3  A    between atoms: C_2  and  N_14
REMARK    4  A    between atoms: N_17  and  C_18
REMARK    5  A    between atoms: C_21  and  C_24
REMARK                            x       y       z     vdW  Elec       q    Type
REMARK                         _______ _______ _______ _____ _____    ______ ____
ROOT
ATOM      1  N   UNL     1       0.711  -0.484   1.191  0.00  0.00    -0.293 N 
ATOM      2  C   UNL     1       2.054  -0.602   1.173  0.00  0.00    +0.304 C 
ATOM      3  O   UNL     1       2.676  -0.306   0.171  0.00  0.00    -0.252 OA
ATOM      4  N   UNL     1       2.706  -1.046   2.266  0.00  0.00    -0.269 N 
ATOM      5  H   UNL     1       0.214  -0.719   1.990  0.00  0.00    +0.151 HD
ATOM      6  H   UNL     1       2.217  -1.218   3.086  0.00  0.00    +0.156 HD
ENDROOT
BRANCH   4   7
ATOM      7  C   UNL     1       4.088  -1.260   2.217  0.00  0.00    +0.035 A 
ATOM      8  C   UNL     1       4.893  -0.422   1.456  0.00  0.00    +0.024 A 
ATOM      9  C   UNL     1       6.255  -0.631   1.406  0.00  0.00    +0.012 A 
ATOM     10  C   UNL     1       6.824  -1.685   2.119  0.00  0.00    +0.003 A 
ATOM     11  C   UNL     1       6.014  -2.525   2.882  0.00  0.00    +0.012 A 
ATOM     12  C   UNL     1       4.653  -2.308   2.933  0.00  0.00    +0.024 A 
BRANCH  10  13
ATOM     13  C   UNL     1       8.290  -1.913   2.066  0.00  0.00    +0.102 A 
ATOM     14  C   UNL     1       8.904  -2.933   2.741  0.00  0.00    +0.097 A 
ATOM     15  S   UNL     1      10.515  -2.707   2.324  0.00  0.00    +0.029 S 
ATOM     16  N   UNL     1      10.367  -1.410   1.370  0.00  0.00    -0.110 NA
ATOM     17  N   UNL     1       9.107  -1.149   1.359  0.00  0.00    -0.141 NA
ENDBRANCH  10  13
ENDBRANCH   4   7
BRANCH   1  19
ATOM     18  C   UNL     1      -0.011   1.530   0.005  0.00  0.00    +0.033 C 
ATOM     19  C   UNL     1       0.002  -0.001   0.004  0.00  0.00    +0.102 C 
BRANCH  19  20
ATOM     20  C   UNL     1      -1.414  -0.514   0.020  0.00  0.00    -0.024 A 
ATOM     21  C   UNL     1      -2.122  -0.550   1.208  0.00  0.00    +0.009 A 
ATOM     22  C   UNL     1      -3.421  -1.022   1.227  0.00  0.00    +0.050 A 
ATOM     23  C   UNL     1      -4.018  -1.461   0.055  0.00  0.00    +0.162 A 
ATOM     24  C   UNL     1      -3.308  -1.423  -1.139  0.00  0.00    +0.162 A 
ATOM     25  C   UNL     1      -2.006  -0.945  -1.152  0.00  0.00    +0.055 A 
ATOM     26  O   UNL     1      -3.877  -1.842  -2.302  0.00  0.00    -0.485 OA
ATOM     27  C   UNL     1      -5.050  -2.655  -2.188  0.00  0.00    +0.270 C 
ATOM     28  C   UNL     1      -5.988  -2.005  -1.161  0.00  0.00    +0.270 C 
ATOM     29  O   UNL     1      -5.296  -1.927   0.090  0.00  0.00    -0.485 OA
ENDBRANCH  19  20
ENDBRANCH   1  19
TORSDOF 4
