REMARK  Name = ZINC12247152
REMARK  11 active torsions:
REMARK  status: ('A' for Active; 'I' for Inactive)
REMARK    1  A    between atoms: C_1  and  O_2
REMARK    2  A    between atoms: O_2  and  C_3
REMARK    3  A    between atoms: C_6  and  C_13
REMARK    4  A    between atoms: C_7  and  O_11
REMARK    5  A    between atoms: C_8  and  O_9
REMARK    6  A    between atoms: O_9  and  C_10
REMARK    7  A    between atoms: O_11  and  C_12
REMARK    8  A    between atoms: C_13  and  N_65
REMARK    9  A    between atoms: N_16  and  C_19
REMARK   10  A    between atoms: N_27  and  C_30
REMARK   11  A    between atoms: C_30  and  C_31
REMARK                            x       y       z     vdW  Elec       q    Type
REMARK                         _______ _______ _______ _____ _____    ______ ____
ROOT
ATOM      1  C   UNL     1       1.419   1.992  -0.001  0.00  0.00    -0.059 C 
ATOM      2  C   UNL     1      -0.018   1.465   0.010  0.00  0.00    +0.086 C 
ATOM      3  N   UNL     1       0.002  -0.004   0.002  0.00  0.00    -0.333 N 
ATOM      4  C   UNL     1       0.721  -0.525   1.173  0.00  0.00    +0.086 C 
ATOM      5  C   UNL     1       2.158   0.003   1.162  0.00  0.00    -0.059 C 
ATOM      6  N   UNL     1       2.123   1.480   1.193  0.00  0.00    +0.384 N 
ATOM      7  H   UNL     1       1.620   1.785   2.034  0.00  0.00    -0.081 HD
ENDROOT
BRANCH   3   8
ATOM      8  C   UNL     1      -1.285  -0.518  -0.060  0.00  0.00    +0.043 A 
ATOM      9  C   UNL     1      -2.209  -0.225   0.945  0.00  0.00    +0.024 A 
ATOM     10  C   UNL     1      -3.488  -0.735   0.885  0.00  0.00    +0.003 A 
ATOM     11  C   UNL     1      -3.878  -1.545  -0.173  0.00  0.00    +0.014 A 
ATOM     12  C   UNL     1      -2.978  -1.847  -1.179  0.00  0.00    +0.051 A 
ATOM     13  C   UNL     1      -1.667  -1.327  -1.130  0.00  0.00    +0.070 A 
ATOM     14  C   UNL     1      -0.986  -1.828  -2.335  0.00  0.00    +0.256 C 
ATOM     15  O   UNL     1       0.166  -1.598  -2.646  0.00  0.00    -0.269 OA
ATOM     16  N   UNL     1      -1.851  -2.584  -3.035  0.00  0.00    -0.230 N 
ATOM     17  C   UNL     1      -3.045  -2.652  -2.417  0.00  0.00    +0.254 C 
ATOM     18  O   UNL     1      -4.016  -3.262  -2.816  0.00  0.00    -0.270 OA
BRANCH  16  19
ATOM     19  C   UNL     1      -1.533  -3.254  -4.298  0.00  0.00    +0.152 C 
BRANCH  19  20
ATOM     20  C   UNL     1      -0.999  -4.634  -4.014  0.00  0.00    -0.023 A 
ATOM     21  C   UNL     1      -1.857  -5.715  -3.929  0.00  0.00    +0.013 A 
ATOM     22  C   UNL     1      -1.344  -6.943  -3.672  0.00  0.00    +0.045 A 
ATOM     23  S   UNL     1       0.402  -6.594  -3.542  0.00  0.00    -0.105 S 
ATOM     24  C   UNL     1       0.331  -4.836  -3.844  0.00  0.00    +0.050 A 
ENDBRANCH  19  20
ENDBRANCH  16  19
ENDBRANCH   3   8
BRANCH   6  25
ATOM     25  C   UNL     1       3.501   2.017   1.237  0.00  0.00    -0.039 C 
BRANCH  25  29
ATOM     26  C   UNL     1       3.384   6.239   0.550  0.00  0.00    +0.165 A 
ATOM     27  C   UNL     1       3.739   5.374  -0.475  0.00  0.00    +0.050 A 
ATOM     28  C   UNL     1       3.777   4.011  -0.249  0.00  0.00    +0.009 A 
ATOM     29  C   UNL     1       3.459   3.504   0.997  0.00  0.00    -0.018 A 
ATOM     30  C   UNL     1       3.098   4.361   2.025  0.00  0.00    +0.167 A 
ATOM     31  C   UNL     1       3.065   5.733   1.804  0.00  0.00    +0.204 A 
BRANCH  26  33
ATOM     32  C   UNL     1       3.689   8.029  -0.986  0.00  0.00    +0.277 C 
ATOM     33  O   UNL     1       3.348   7.580   0.327  0.00  0.00    -0.491 OA
ENDBRANCH  26  33
BRANCH  31  34
ATOM     34  O   UNL     1       2.715   6.578   2.812  0.00  0.00    -0.488 OA
ATOM     35  C   UNL     1       1.327   6.890   2.945  0.00  0.00    +0.277 C 
ENDBRANCH  31  34
BRANCH  30  36
ATOM     36  O   UNL     1       2.781   3.861   3.249  0.00  0.00    -0.491 OA
ATOM     37  C   UNL     1       3.850   3.713   4.186  0.00  0.00    +0.277 C 
ENDBRANCH  30  36
ENDBRANCH  25  29
ENDBRANCH   6  25
TORSDOF 8
