REMARK  Name = ZINC55270770
REMARK  1 active torsions:
REMARK  status: ('A' for Active; 'I' for Inactive)
REMARK    1  A    between atoms: C_8  and  C_11
REMARK                            x       y       z     vdW  Elec       q    Type
REMARK                         _______ _______ _______ _____ _____    ______ ____
ROOT
ATOM      1  C   UNL     1      -0.019   1.526   0.010  0.00  0.00    +0.007 C 
ATOM      2  C   UNL     1       1.417   2.055  -0.000  0.00  0.00    -0.010 C 
ATOM      3  C   UNL     1       2.157   1.548   1.239  0.00  0.00    +0.007 C 
ATOM      4  C   UNL     1       2.178   0.019   1.231  0.00  0.00    -0.010 C 
ATOM      5  C   UNL     1       0.742  -0.511   1.242  0.00  0.00    +0.007 C 
ATOM      6  C   UNL     1       0.002  -0.004   0.002  0.00  0.00    -0.010 C 
ATOM      7  C   UNL     1       0.718  -0.497  -1.257  0.00  0.00    +0.018 C 
ATOM      8  C   UNL     1       2.154   0.032  -1.268  0.00  0.00    +0.035 C 
ATOM      9  C   UNL     1       2.133   1.562  -1.259  0.00  0.00    +0.018 C 
ATOM     10  C   UNL     1       2.894  -0.475  -0.028  0.00  0.00    +0.018 C 
ENDROOT
BRANCH   8  11
ATOM     11  C   UNL     1       2.859  -0.454  -2.507  0.00  0.00    +0.180 A 
ATOM     12  N   UNL     1       4.126  -0.185  -2.834  0.00  0.00    -0.178 NA
ATOM     13  C   UNL     1       4.427  -0.762  -3.976  0.00  0.00    +0.312 A 
ATOM     14  O   UNL     1       3.340  -1.421  -4.408  0.00  0.00    -0.317 OA
ATOM     15  N   UNL     1       2.333  -1.208  -3.430  0.00  0.00    -0.059 NA
ATOM     16  N   UNL     1       5.641  -0.700  -4.617  0.00  0.00    -0.311 N 
ATOM     17  H   UNL     1       6.370  -0.195  -4.225  0.00  0.00    +0.147 HD
ATOM     18  H   UNL     1       5.768  -1.161  -5.461  0.00  0.00    +0.147 HD
ENDBRANCH   8  11
TORSDOF 1
