REMARK  Name = ZINC02640134
REMARK  7 active torsions:
REMARK  status: ('A' for Active; 'I' for Inactive)
REMARK    1  A    between atoms: C_1  and  C_2
REMARK    2  A    between atoms: C_7  and  C_12
REMARK    3  A    between atoms: C_12  and  O_14
REMARK    4  A    between atoms: O_14  and  C_15
REMARK    5  A    between atoms: C_15  and  C_16
REMARK    6  A    between atoms: C_19  and  C_31
REMARK    7  A    between atoms: C_22  and  C_24
REMARK                            x       y       z     vdW  Elec       q    Type
REMARK                         _______ _______ _______ _____ _____    ______ ____
ROOT
ATOM      1  C   UNL     1      -2.179  -8.615   0.628  0.00  0.00    +0.270 C 
ATOM      2  O   UNL     1      -1.306  -8.876   1.428  0.00  0.00    -0.270 OA
ATOM      3  N   UNL     1      -2.985  -9.592   0.167  0.00  0.00    -0.205 N 
ATOM      4  C   UNL     1      -2.947 -11.018   0.533  0.00  0.00    +0.187 C 
ATOM      5  C   UNL     1      -4.061 -11.651  -0.271  0.00  0.00    +0.030 C 
ATOM      6  C   UNL     1      -4.634 -10.686  -0.985  0.00  0.00    +0.050 C 
ATOM      7  N   UNL     1      -4.034  -9.456  -0.753  0.00  0.00    -0.261 N 
ATOM      8  H   UNL     1      -4.301  -8.622  -1.169  0.00  0.00    +0.170 HD
ENDROOT
BRANCH   6   9
ATOM      9  C   UNL     1      -5.773 -10.897  -1.909  0.00  0.00    -0.003 A 
ATOM     10  C   UNL     1      -6.317 -12.171  -2.069  0.00  0.00    +0.011 A 
ATOM     11  C   UNL     1      -7.378 -12.361  -2.930  0.00  0.00    +0.020 A 
ATOM     12  C   UNL     1      -7.902 -11.291  -3.634  0.00  0.00    +0.041 A 
ATOM     13  C   UNL     1      -7.365 -10.024  -3.479  0.00  0.00    +0.020 A 
ATOM     14  C   UNL     1      -6.308  -9.821  -2.617  0.00  0.00    +0.011 A 
ATOM     15 CL   UNL     1      -9.237 -11.538  -4.717  0.00  0.00    -0.084 Cl
ENDBRANCH   6   9
BRANCH   4  16
ATOM     16  C   UNL     1      -1.618 -11.620   0.157  0.00  0.00    +0.131 A 
ATOM     17  C   UNL     1      -0.922 -12.509   0.889  0.00  0.00    +0.047 A 
ATOM     18  C   UNL     1       0.256 -12.803   0.165  0.00  0.00    +0.041 A 
ATOM     19  C   UNL     1       0.211 -12.075  -0.965  0.00  0.00    +0.195 A 
ATOM     20  O   UNL     1      -0.929 -11.365  -0.968  0.00  0.00    -0.466 OA
ENDBRANCH   4  16
BRANCH   1  21
ATOM     21  C   UNL     1      -2.363  -7.198   0.149  0.00  0.00    +0.329 C 
BRANCH  21  22
ATOM     22  O   UNL     1      -1.396  -6.354   0.776  0.00  0.00    -0.452 OA
BRANCH  22  23
ATOM     23  C   UNL     1      -1.424  -5.045   0.454  0.00  0.00    +0.340 C 
ATOM     24  O   UNL     1      -2.248  -4.633  -0.339  0.00  0.00    -0.245 OA
BRANCH  23  30
ATOM     25  C   UNL     1      -0.019   1.526   0.010  0.00  0.00    +0.008 C 
ATOM     26  C   UNL     1       0.002  -0.004   0.002  0.00  0.00    -0.009 C 
ATOM     27  C   UNL     1      -1.434  -0.536   0.019  0.00  0.00    +0.008 C 
ATOM     28  C   UNL     1      -1.433  -2.045  -0.238  0.00  0.00    +0.037 C 
ATOM     29  C   UNL     1      -0.465  -2.704   0.733  0.00  0.00    -0.023 A 
ATOM     30  C   UNL     1      -0.459  -4.117   1.061  0.00  0.00    +0.069 A 
ATOM     31  C   UNL     1       0.485  -4.556   1.962  0.00  0.00    +0.060 A 
ATOM     32  S   UNL     1       1.340  -3.170   2.371  0.00  0.00    -0.100 S 
ATOM     33  C   UNL     1       0.484  -1.986   1.374  0.00  0.00    -0.006 A 
ATOM     34  C   UNL     1       0.740  -0.515   1.249  0.00  0.00    +0.046 C 
ENDBRANCH  23  30
ENDBRANCH  22  23
ENDBRANCH  21  22
ENDBRANCH   1  21
TORSDOF 6
