REMARK  Name = ZINC09713696
REMARK  10 active torsions:
REMARK  status: ('A' for Active; 'I' for Inactive)
REMARK    1  A    between atoms: C_1  and  C_2
REMARK    2  A    between atoms: C_15  and  C_17
REMARK    3  A    between atoms: C_17  and  S_18
REMARK    4  A    between atoms: S_18  and  C_19
REMARK    5  A    between atoms: C_22  and  C_31
REMARK    6  A    between atoms: N_23  and  C_24
REMARK    7  A    between atoms: C_31  and  C_33
REMARK    8  A    between atoms: C_31  and  N_61
REMARK    9  A    between atoms: C_34  and  N_61
REMARK   10  A    between atoms: C_35  and  N_61
REMARK                            x       y       z     vdW  Elec       q    Type
REMARK                         _______ _______ _______ _____ _____    ______ ____
ROOT
ATOM      1  S   UNL     1       3.268   4.985   1.915  0.00  0.00    -0.076 S 
ENDROOT
BRANCH   1   2
ATOM      2  C   UNL     1       4.970   5.383   1.692  0.00  0.00    +0.197 A 
ATOM      3  N   UNL     1       5.814   4.780   0.886  0.00  0.00    -0.122 NA
ATOM      4  N   UNL     1       6.972   5.329   0.976  0.00  0.00    -0.135 NA
ATOM      5  C   UNL     1       6.940   6.308   1.835  0.00  0.00    +0.125 A 
ATOM      6  N   UNL     1       5.661   6.382   2.320  0.00  0.00    -0.275 N 
BRANCH   6   7
ATOM      7  C   UNL     1       5.165   7.291   3.266  0.00  0.00    +0.050 A 
ATOM      8  C   UNL     1       5.115   8.646   2.969  0.00  0.00    +0.029 A 
ATOM      9  C   UNL     1       4.620   9.539   3.899  0.00  0.00    +0.040 A 
ATOM     10  C   UNL     1       4.185   9.085   5.133  0.00  0.00    +0.124 A 
ATOM     11  C   UNL     1       4.238   7.734   5.433  0.00  0.00    +0.040 A 
ATOM     12  C   UNL     1       4.727   6.838   4.503  0.00  0.00    +0.029 A 
ATOM     13  F   UNL     1       3.707   9.960   6.044  0.00  0.00    -0.205 F 
ENDBRANCH   6   7
BRANCH   5  14
ATOM     14  C   UNL     1       8.094   7.197   2.220  0.00  0.00    -0.003 C 
ATOM     15  C   UNL     1       9.048   6.426   3.136  0.00  0.00    -0.005 C 
BRANCH  14  18
ATOM     16  C   UNL     1       9.872   8.582   1.336  0.00  0.00    -0.096 C 
ATOM     17  C   UNL     1       9.357   6.461   0.290  0.00  0.00    -0.096 C 
ATOM     18  N   UNL     1       8.793   7.632   0.993  0.00  0.00    +0.382 N 
ATOM     19  H   UNL     1       8.121   8.101   0.375  0.00  0.00    -0.082 HD
ENDBRANCH  14  18
ENDBRANCH   5  14
ENDBRANCH   1   2
BRANCH   1  20
ATOM     20  C   UNL     1       3.115   3.598   0.762  0.00  0.00    +0.173 C 
BRANCH  20  34
ATOM     21  C   UNL     1      -0.761   2.031  -1.228  0.00  0.00    +0.029 C 
ATOM     22  C   UNL     1      -0.019   1.526   0.010  0.00  0.00    +0.087 C 
ATOM     23  C   UNL     1       0.002  -0.004   0.002  0.00  0.00    +0.118 C 
ATOM     24  C   UNL     1       1.040  -0.514   0.967  0.00  0.00    +0.219 C 
ATOM     25  O   UNL     1       0.694  -0.981   2.031  0.00  0.00    -0.275 OA
ATOM     26  N   UNL     1       2.354  -0.453   0.655  0.00  0.00    -0.284 N 
ATOM     27  C   UNL     1       2.777   0.163  -0.528  0.00  0.00    +0.055 A 
ATOM     28  C   UNL     1       3.669  -0.467  -1.379  0.00  0.00    +0.025 A 
ATOM     29  C   UNL     1       4.092   0.175  -2.529  0.00  0.00    +0.002 A 
ATOM     30  C   UNL     1       3.628   1.443  -2.830  0.00  0.00    +0.002 A 
ATOM     31  C   UNL     1       2.730   2.074  -1.989  0.00  0.00    +0.025 A 
ATOM     32  C   UNL     1       2.292   1.433  -0.842  0.00  0.00    +0.058 A 
ATOM     33  N   UNL     1       1.351   2.041   0.000  0.00  0.00    -0.266 N 
ATOM     34  C   UNL     1       1.701   3.079   0.784  0.00  0.00    +0.230 C 
ATOM     35  O   UNL     1       0.876   3.597   1.508  0.00  0.00    -0.274 OA
ATOM     36  H   UNL     1       3.009  -0.840   1.257  0.00  0.00    +0.155 HD
ENDBRANCH  20  34
ENDBRANCH   1  20
TORSDOF 6
