REMARK  Name = ZINC58549126
REMARK  7 active torsions:
REMARK  status: ('A' for Active; 'I' for Inactive)
REMARK    1  A    between atoms: C_1  and  C_2
REMARK    2  A    between atoms: C_3  and  C_7
REMARK    3  A    between atoms: N_9  and  C_10
REMARK    4  A    between atoms: C_12  and  N_17
REMARK    5  A    between atoms: N_20  and  C_21
REMARK    6  A    between atoms: C_21  and  C_22
REMARK    7  A    between atoms: C_21  and  C_23
REMARK                            x       y       z     vdW  Elec       q    Type
REMARK                         _______ _______ _______ _____ _____    ______ ____
ROOT
ATOM      1  C   UNL     1      -4.947  -1.031  -0.451  0.00  0.00    +0.071 A 
ATOM      2  C   UNL     1      -5.335   0.301  -0.446  0.00  0.00    +0.049 A 
ATOM      3  C   UNL     1      -6.458   0.692   0.267  0.00  0.00    +0.037 A 
ATOM      4  C   UNL     1      -7.193  -0.250   0.975  0.00  0.00    +0.026 A 
ATOM      5  C   UNL     1      -6.806  -1.577   0.971  0.00  0.00    +0.042 A 
ATOM      6  C   UNL     1      -5.690  -1.971   0.256  0.00  0.00    +0.145 A 
ATOM      7  F   UNL     1      -5.317  -3.270   0.248  0.00  0.00    -0.204 F 
ENDROOT
BRANCH   3   8
ATOM      8  N   UNL     1      -6.851   2.036   0.274  0.00  0.00    -0.269 N 
ATOM      9  C   UNL     1      -8.144   2.360   0.480  0.00  0.00    +0.304 C 
ATOM     10  O   UNL     1      -8.985   1.485   0.551  0.00  0.00    -0.253 OA
ATOM     11  N   UNL     1      -8.503   3.652   0.607  0.00  0.00    -0.296 N 
ATOM     12  H   UNL     1      -6.194   2.735   0.130  0.00  0.00    +0.156 HD
ATOM     13  H   UNL     1      -7.831   4.350   0.551  0.00  0.00    +0.151 HD
BRANCH  11  14
ATOM     14  C   UNL     1      -9.907   4.004   0.832  0.00  0.00    +0.075 C 
ATOM     15  C   UNL     1     -10.221   3.921   2.327  0.00  0.00    +0.028 C 
BRANCH  14  16
ATOM     16  C   UNL     1     -10.162   5.428   0.334  0.00  0.00    +0.012 C 
ATOM     17  C   UNL     1     -10.095   5.480  -1.209  0.00  0.00    +0.009 C 
ATOM     18  C   UNL     1     -11.515   5.951  -1.649  0.00  0.00    -0.010 C 
ATOM     19  C   UNL     1     -12.444   4.739  -1.336  0.00  0.00    +0.004 C 
ATOM     20  C   UNL     1     -12.511   4.687   0.208  0.00  0.00    +0.004 C 
ATOM     21  C   UNL     1     -11.616   5.873   0.681  0.00  0.00    -0.006 C 
ATOM     22  C   UNL     1     -11.883   6.912  -0.464  0.00  0.00    +0.007 C 
ENDBRANCH  14  16
ENDBRANCH  11  14
ENDBRANCH   3   8
BRANCH   1  25
ATOM     23  C   UNL     1      -2.750  -0.606  -1.260  0.00  0.00    +0.252 C 
ATOM     24  O   UNL     1      -2.806   0.514  -0.790  0.00  0.00    -0.270 OA
ATOM     25  N   UNL     1      -3.814  -1.429  -1.169  0.00  0.00    -0.279 N 
ATOM     26  H   UNL     1      -3.794  -2.297  -1.602  0.00  0.00    +0.155 HD
BRANCH  23  29
ATOM     27  C   UNL     1      -0.115   1.053  -1.639  0.00  0.00    +0.087 C 
ATOM     28  C   UNL     1      -0.365  -0.358  -2.105  0.00  0.00    +0.114 A 
ATOM     29  C   UNL     1      -1.520  -1.063  -1.930  0.00  0.00    +0.078 A 
ATOM     30  C   UNL     1      -1.281  -2.375  -2.550  0.00  0.00    +0.054 A 
ATOM     31  C   UNL     1      -0.028  -2.334  -3.028  0.00  0.00    +0.196 A 
ATOM     32  O   UNL     1       0.504  -1.130  -2.764  0.00  0.00    -0.467 OA
ENDBRANCH  23  29
ENDBRANCH   1  25
TORSDOF 5
