REMARK  Name = ZINC13108948
REMARK  10 active torsions:
REMARK  status: ('A' for Active; 'I' for Inactive)
REMARK    1  A    between atoms: C_4  and  C_7
REMARK    2  A    between atoms: C_10  and  O_13
REMARK    3  A    between atoms: O_13  and  C_14
REMARK    4  A    between atoms: C_14  and  C_15
REMARK    5  A    between atoms: C_15  and  C_17
REMARK    6  A    between atoms: C_15  and  O_36
REMARK    7  A    between atoms: C_17  and  N_18
REMARK    8  A    between atoms: N_21  and  S_24
REMARK    9  A    between atoms: S_24  and  C_27
REMARK   10  A    between atoms: C_32  and  N_33
REMARK                            x       y       z     vdW  Elec       q    Type
REMARK                         _______ _______ _______ _____ _____    ______ ____
ROOT
ATOM      1  C   UNL     1       0.673  -0.541  -1.212  0.00  0.00    +0.119 C 
ENDROOT
BRANCH   1   2
ATOM      2  N   UNL     1      -0.136  -0.076  -2.347  0.00  0.00    -0.297 NA
ATOM      3  C   UNL     1      -1.345  -0.895  -2.502  0.00  0.00    +0.101 C 
ATOM      4  C   UNL     1      -2.247  -0.272  -3.573  0.00  0.00    +0.125 C 
ATOM      5  N   UNL     1      -1.458  -0.090  -4.800  0.00  0.00    -0.174 NA
ATOM      6  C   UNL     1      -0.165   0.604  -4.699  0.00  0.00    +0.125 C 
ATOM      7  C   UNL     1       0.655  -0.054  -3.584  0.00  0.00    +0.101 C 
BRANCH   5   8
ATOM      8  S   UNL     1      -2.009  -0.652  -6.257  0.00  0.00    +0.063 S 
ATOM      9  O   UNL     1      -3.429  -0.608  -6.198  0.00  0.00    -0.153 OA
ATOM     10  O   UNL     1      -1.267   0.027  -7.261  0.00  0.00    -0.153 OA
BRANCH   8  11
ATOM     11  C   UNL     1      -1.562  -2.353  -6.363  0.00  0.00    +0.136 A 
ATOM     12  C   UNL     1      -0.660  -2.887  -5.462  0.00  0.00    +0.031 A 
ATOM     13  C   UNL     1      -0.313  -4.223  -5.542  0.00  0.00    +0.002 A 
ATOM     14  C   UNL     1      -0.860  -5.021  -6.529  0.00  0.00    +0.002 A 
ATOM     15  C   UNL     1      -1.758  -4.485  -7.433  0.00  0.00    +0.035 A 
ATOM     16  C   UNL     1      -2.109  -3.151  -7.350  0.00  0.00    +0.152 A 
BRANCH  16  17
ATOM     17  N   UNL     1      -3.070  -2.577  -8.318  0.00  0.00    +0.058 N 
ATOM     18  O   UNL     1      -3.648  -3.303  -9.107  0.00  0.00    -0.126 OA
ATOM     19  O   UNL     1      -3.284  -1.378  -8.326  0.00  0.00    -0.126 OA
ENDBRANCH  16  17
ENDBRANCH   8  11
ENDBRANCH   5   8
ENDBRANCH   1   2
BRANCH   1  20
ATOM     20  C   UNL     1      -0.098  -0.316   0.090  0.00  0.00    +0.166 C 
BRANCH  20  21
ATOM     21  O   UNL     1      -0.378   1.077   0.244  0.00  0.00    -0.387 OA
ATOM     22  H   UNL     1      -0.976   1.605  -0.513  0.00  0.00    +0.210 HD
ENDBRANCH  20  21
BRANCH  20  23
ATOM     23  C   UNL     1       0.745  -0.800   1.272  0.00  0.00    +0.261 C 
BRANCH  23  24
ATOM     24  O   UNL     1      -0.019  -0.699   2.475  0.00  0.00    -0.489 OA
BRANCH  24  28
ATOM     25  C   UNL     1       1.824  -1.894   5.971  0.00  0.00    -0.018 A 
ATOM     26  C   UNL     1       0.514  -1.417   6.000  0.00  0.00    +0.012 A 
ATOM     27  C   UNL     1      -0.099  -1.019   4.830  0.00  0.00    +0.046 A 
ATOM     28  C   UNL     1       0.588  -1.092   3.626  0.00  0.00    +0.121 A 
ATOM     29  C   UNL     1       1.890  -1.571   3.594  0.00  0.00    +0.046 A 
ATOM     30  C   UNL     1       2.510  -1.966   4.761  0.00  0.00    +0.012 A 
BRANCH  25  34
ATOM     31  C   UNL     1       3.720  -3.126   9.572  0.00  0.00    +0.000 A 
ATOM     32  C   UNL     1       4.405  -3.199   8.372  0.00  0.00    +0.001 A 
ATOM     33  C   UNL     1       3.795  -2.800   7.201  0.00  0.00    +0.008 A 
ATOM     34  C   UNL     1       2.486  -2.324   7.228  0.00  0.00    -0.018 A 
ATOM     35  C   UNL     1       1.802  -2.247   8.440  0.00  0.00    +0.008 A 
ATOM     36  C   UNL     1       2.421  -2.654   9.604  0.00  0.00    +0.001 A 
ENDBRANCH  25  34
ENDBRANCH  24  28
ENDBRANCH  23  24
ENDBRANCH  20  23
ENDBRANCH   1  20
TORSDOF 10
