REMARK  Name = ZINC12193831
REMARK  7 active torsions:
REMARK  status: ('A' for Active; 'I' for Inactive)
REMARK    1  A    between atoms: C_1  and  C_2
REMARK    2  A    between atoms: C_3  and  C_17
REMARK    3  A    between atoms: N_6  and  C_7
REMARK    4  A    between atoms: C_17  and  C_19
REMARK    5  A    between atoms: C_17  and  N_49
REMARK    6  A    between atoms: C_20  and  C_21
REMARK    7  A    between atoms: C_20  and  N_49
REMARK                            x       y       z     vdW  Elec       q    Type
REMARK                         _______ _______ _______ _____ _____    ______ ____
ROOT
ATOM      1  C   UNL     1       5.060   5.332  -0.240  0.00  0.00    +0.066 C 
ATOM      2  C   UNL     1       4.799   3.853  -0.119  0.00  0.00    +0.043 A 
ATOM      3  C   UNL     1       5.735   2.875  -0.097  0.00  0.00    -0.021 A 
ATOM      4  C   UNL     1       5.075   1.648   0.027  0.00  0.00    +0.137 A 
ATOM      5  N   UNL     1       3.788   1.876   0.084  0.00  0.00    -0.174 NA
ATOM      6  N   UNL     1       3.583   3.259  -0.012  0.00  0.00    -0.236 N 
ENDROOT
BRANCH   6   7
ATOM      7  C   UNL     1       2.346   3.912   0.006  0.00  0.00    +0.073 A 
ATOM      8  C   UNL     1       2.143   4.993   0.836  0.00  0.00    +0.028 A 
ATOM      9  C   UNL     1       0.916   5.650   0.862  0.00  0.00    +0.003 A 
ATOM     10  C   UNL     1      -0.116   5.244   0.071  0.00  0.00    +0.008 A 
ATOM     11  C   UNL     1       0.051   4.146  -0.790  0.00  0.00    -0.016 A 
ATOM     12  C   UNL     1       1.295   3.470  -0.825  0.00  0.00    +0.008 A 
ATOM     13  C   UNL     1       1.460   2.374  -1.687  0.00  0.00    +0.010 A 
ATOM     14  C   UNL     1       0.425   1.975  -2.475  0.00  0.00    +0.001 A 
ATOM     15  C   UNL     1      -0.798   2.643  -2.446  0.00  0.00    +0.001 A 
ATOM     16  C   UNL     1      -0.996   3.705  -1.619  0.00  0.00    +0.008 A 
ENDBRANCH   6   7
BRANCH   3  17
ATOM     17  C   UNL     1       7.226   3.074  -0.190  0.00  0.00    -0.040 C 
ATOM     18  C   UNL     1       7.622   3.285  -1.653  0.00  0.00    -0.009 C 
BRANCH  17  19
ATOM     19  N   UNL     1       7.908   1.877   0.337  0.00  0.00    +0.386 N 
ATOM     20  H   UNL     1       7.984   1.175  -0.409  0.00  0.00    -0.085 HD
ATOM     21  H   UNL     1       7.362   1.491   1.116  0.00  0.00    -0.085 HD
BRANCH  19  22
ATOM     22  C   UNL     1       9.259   2.225   0.816  0.00  0.00    -0.046 C 
BRANCH  22  23
ATOM     23  C   UNL     1       9.930   0.985   1.347  0.00  0.00    -0.062 A 
ATOM     24  C   UNL     1      10.685   0.195   0.480  0.00  0.00    +0.004 A 
ATOM     25  C   UNL     1      11.309  -0.929   0.908  0.00  0.00    +0.031 A 
ATOM     26  C   UNL     1      11.202  -1.327   2.266  0.00  0.00    +0.100 A 
ATOM     27  C   UNL     1      10.412  -0.500   3.173  0.00  0.00    +0.100 A 
ATOM     28  C   UNL     1       9.790   0.667   2.656  0.00  0.00    +0.032 A 
ATOM     29  N   UNL     1      10.397  -0.989   4.411  0.00  0.00    -0.191 NA
ATOM     30  S   UNL     1      11.265  -2.294   4.377  0.00  0.00    +0.116 S 
ATOM     31  N   UNL     1      11.729  -2.383   2.883  0.00  0.00    -0.191 NA
ENDBRANCH  22  23
ENDBRANCH  19  22
ENDBRANCH  17  19
ENDBRANCH   3  17
TORSDOF 5
