REMARK  Name = ZINC40036201
REMARK  8 active torsions:
REMARK  status: ('A' for Active; 'I' for Inactive)
REMARK    1  A    between atoms: C_1  and  C_2
REMARK    2  A    between atoms: C_2  and  C_3
REMARK    3  A    between atoms: C_3  and  C_4
REMARK    4  A    between atoms: C_4  and  C_34
REMARK    5  A    between atoms: N_16  and  C_32
REMARK    6  A    between atoms: N_19  and  N_20
REMARK    7  A    between atoms: C_21  and  C_22
REMARK    8  A    between atoms: C_32  and  C_33
REMARK                            x       y       z     vdW  Elec       q    Type
REMARK                         _______ _______ _______ _____ _____    ______ ____
ROOT
ATOM      1  C   UNL     1       0.833  -1.914  -1.310  0.00  0.00    +0.004 C 
ATOM      2  C   UNL     1       1.635  -2.281  -2.556  0.00  0.00    +0.047 C 
ATOM      3  C   UNL     1       0.844  -1.981  -3.801  0.00  0.00    -0.037 A 
ATOM      4  C   UNL     1       1.478  -1.526  -4.939  0.00  0.00    +0.004 A 
ATOM      5  C   UNL     1       0.744  -1.256  -6.080  0.00  0.00    +0.000 A 
ATOM      6  C   UNL     1      -0.628  -1.440  -6.091  0.00  0.00    +0.001 A 
ATOM      7  C   UNL     1      -1.274  -1.893  -4.958  0.00  0.00    +0.010 A 
ATOM      8  C   UNL     1      -0.539  -2.164  -3.807  0.00  0.00    +0.004 A 
ATOM      9  C   UNL     1      -1.205  -2.642  -2.574  0.00  0.00    +0.084 A 
ATOM     10  C   UNL     1      -0.538  -2.525  -1.364  0.00  0.00    +0.049 A 
ATOM     11  C   UNL     1      -1.167  -2.986  -0.199  0.00  0.00    +0.260 A 
ATOM     12  O   UNL     1      -0.611  -2.902   0.884  0.00  0.00    -0.267 OA
ATOM     13  N   UNL     1      -2.401  -3.525  -0.301  0.00  0.00    -0.280 N 
ATOM     14  C   UNL     1      -3.014  -3.611  -1.514  0.00  0.00    +0.219 A 
ATOM     15  N   UNL     1      -2.429  -3.180  -2.614  0.00  0.00    -0.214 NA
ATOM     16  N   UNL     1      -4.269  -4.157  -1.594  0.00  0.00    -0.206 N 
ATOM     17  C   UNL     1       1.567  -2.430  -0.070  0.00  0.00    +0.017 C 
ATOM     18  H   UNL     1      -4.710  -4.477  -0.791  0.00  0.00    +0.177 HD
ENDROOT
BRANCH  16  19
ATOM     19  N   UNL     1      -4.914  -4.253  -2.833  0.00  0.00    -0.188 NA
ATOM     20  C   UNL     1      -6.104  -4.771  -2.909  0.00  0.00    +0.139 C 
BRANCH  20  21
ATOM     21  C   UNL     1      -6.781  -4.871  -4.210  0.00  0.00    +0.002 A 
ATOM     22  C   UNL     1      -8.094  -5.318  -4.294  0.00  0.00    +0.010 A 
ATOM     23  C   UNL     1      -8.731  -5.412  -5.524  0.00  0.00    +0.001 A 
ATOM     24  C   UNL     1      -8.105  -5.074  -6.684  0.00  0.00    +0.008 A 
ATOM     25  C   UNL     1      -6.777  -4.614  -6.675  0.00  0.00    -0.017 A 
ATOM     26  C   UNL     1      -6.090  -4.497  -5.442  0.00  0.00    -0.009 A 
ATOM     27  C   UNL     1      -4.768  -4.034  -5.428  0.00  0.00    +0.009 A 
ATOM     28  C   UNL     1      -4.161  -3.696  -6.601  0.00  0.00    +0.001 A 
ATOM     29  C   UNL     1      -4.836  -3.805  -7.814  0.00  0.00    +0.001 A 
ATOM     30  C   UNL     1      -6.118  -4.262  -7.865  0.00  0.00    +0.008 A 
ENDBRANCH  20  21
ENDBRANCH  16  19
BRANCH  13  31
ATOM     31  C   UNL     1      -3.083  -4.019   0.898  0.00  0.00    +0.125 C 
ATOM     32  C   UNL     1      -3.905  -2.889   1.519  0.00  0.00    +0.027 C 
ENDBRANCH  13  31
BRANCH   1  33
ATOM     33  C   UNL     1       0.705  -0.392  -1.223  0.00  0.00    +0.011 C 
BRANCH  33  35
ATOM     34  C   UNL     1      -0.202   1.505   0.127  0.00  0.00    +0.004 C 
ATOM     35  C   UNL     1      -0.073  -0.018   0.040  0.00  0.00    -0.003 C 
ENDBRANCH  33  35
ENDBRANCH   1  33
TORSDOF 5
