REMARK  Name = ZINC09542896
REMARK  6 active torsions:
REMARK  status: ('A' for Active; 'I' for Inactive)
REMARK    1  A    between atoms: C_1  and  O_2
REMARK    2  A    between atoms: O_2  and  C_3
REMARK    3  A    between atoms: C_6  and  C_9
REMARK    4  A    between atoms: C_11  and  C_24
REMARK    5  A    between atoms: C_13  and  C_16
REMARK    6  A    between atoms: C_21  and  O_22
REMARK                            x       y       z     vdW  Elec       q    Type
REMARK                         _______ _______ _______ _____ _____    ______ ____
ROOT
ATOM      1  C   UNL     1       3.148  -0.734  -1.518  0.00  0.00    +0.040 C 
ATOM      2  N   UNL     1       2.313  -0.237  -0.684  0.00  0.00    -0.299 NA
ATOM      3  C   UNL     1       2.490   1.046  -0.016  0.00  0.00    +0.081 C 
ATOM      4  C   UNL     1       4.725   1.083  -0.921  0.00  0.00    -0.028 C 
ATOM      5  C   UNL     1       4.421  -0.040  -1.918  0.00  0.00    +0.044 C 
ATOM      6  N   UNL     1       3.491   1.866  -0.716  0.00  0.00    +0.401 N 
ATOM      7  H   UNL     1       3.705   2.697  -0.152  0.00  0.00    -0.081 HD
ATOM      8  H   UNL     1       3.116   2.157  -1.627  0.00  0.00    -0.081 HD
ENDROOT
BRANCH   3   9
ATOM      9  C   UNL     1       1.175   1.783   0.000  0.00  0.00    -0.039 A 
ATOM     10  C   UNL     1       1.158   3.166   0.009  0.00  0.00    +0.006 A 
ATOM     11  C   UNL     1      -0.047   3.842   0.024  0.00  0.00    +0.040 A 
ATOM     12  C   UNL     1      -1.238   3.136   0.031  0.00  0.00    +0.137 A 
ATOM     13  C   UNL     1      -1.220   1.751   0.017  0.00  0.00    +0.053 A 
ATOM     14  C   UNL     1      -0.013   1.076   0.008  0.00  0.00    +0.022 A 
ATOM     15 BR   UNL     1      -2.845   0.783   0.020  0.00  0.00    -0.047 Br
ATOM     16  F   UNL     1      -2.416   3.797   0.045  0.00  0.00    -0.204 F 
ENDBRANCH   3   9
BRANCH   4  17
ATOM     17  C   UNL     1       5.803   1.977  -1.477  0.00  0.00    -0.018 A 
ATOM     18  C   UNL     1       5.465   3.164  -2.098  0.00  0.00    +0.025 A 
ATOM     19  C   UNL     1       6.454   3.988  -2.603  0.00  0.00    +0.041 A 
ATOM     20  C   UNL     1       7.784   3.620  -2.498  0.00  0.00    +0.023 A 
ATOM     21  C   UNL     1       8.126   2.432  -1.883  0.00  0.00    +0.047 A 
ATOM     22  C   UNL     1       7.136   1.607  -1.370  0.00  0.00    +0.119 A 
ATOM     23 CL   UNL     1       6.027   5.482  -3.377  0.00  0.00    -0.084 Cl
BRANCH  22  24
ATOM     24  O   UNL     1       7.470   0.437  -0.764  0.00  0.00    -0.507 OA
ATOM     25  H   UNL     1       7.513  -0.319  -1.366  0.00  0.00    +0.292 HD
ENDBRANCH  22  24
ENDBRANCH   4  17
BRANCH   1  29
ATOM     26  C   UNL     1       2.284  -4.520  -3.233  0.00  0.00    +0.120 A 
ATOM     27  C   UNL     1       1.399  -3.953  -2.325  0.00  0.00    +0.046 A 
ATOM     28  C   UNL     1       1.675  -2.725  -1.766  0.00  0.00    +0.013 A 
ATOM     29  C   UNL     1       2.849  -2.049  -2.113  0.00  0.00    -0.004 A 
ATOM     30  C   UNL     1       3.734  -2.621  -3.031  0.00  0.00    +0.013 A 
ATOM     31  C   UNL     1       3.452  -3.852  -3.581  0.00  0.00    +0.046 A 
BRANCH  26  33
ATOM     32  C   UNL     1       2.961  -6.256  -4.708  0.00  0.00    +0.277 C 
ATOM     33  O   UNL     1       2.008  -5.730  -3.782  0.00  0.00    -0.495 OA
ENDBRANCH  26  33
ENDBRANCH   1  29
TORSDOF 5
