REMARK  Name = ZINC67401371
REMARK  6 active torsions:
REMARK  status: ('A' for Active; 'I' for Inactive)
REMARK    1  A    between atoms: C_1  and  C_2
REMARK    2  A    between atoms: C_7  and  C_13
REMARK    3  A    between atoms: C_13  and  N_14
REMARK    4  A    between atoms: C_17  and  C_20
REMARK    5  A    between atoms: C_20  and  C_22
REMARK    6  A    between atoms: C_20  and  O_29
REMARK                            x       y       z     vdW  Elec       q    Type
REMARK                         _______ _______ _______ _____ _____    ______ ____
ROOT
ATOM      1  N   UNL     1      -1.157  -6.768   0.523  0.00  0.00    +0.383 N 
ATOM      2  C   UNL     1      -2.282  -6.405   1.393  0.00  0.00    -0.078 C 
ATOM      3  C   UNL     1      -3.596  -6.846   0.744  0.00  0.00    -0.012 C 
ATOM      4  C   UNL     1      -3.574  -8.364   0.540  0.00  0.00    +0.019 C 
ATOM      5  C   UNL     1      -2.354  -8.739  -0.306  0.00  0.00    -0.012 C 
ATOM      6  C   UNL     1      -1.087  -8.227   0.381  0.00  0.00    -0.078 C 
ATOM      7  H   UNL     1      -1.288  -6.349  -0.386  0.00  0.00    -0.081 HD
ENDROOT
BRANCH   1   8
ATOM      8  C   UNL     1       0.095  -6.274   1.112  0.00  0.00    -0.022 C 
BRANCH   8  15
ATOM      9  C   UNL     1      -0.018   1.503   0.010  0.00  0.00    +0.045 C 
ATOM     10  C   UNL     1       0.002  -0.004   0.002  0.00  0.00    -0.034 A 
ATOM     11  C   UNL     1       0.006  -0.697  -1.217  0.00  0.00    +0.008 A 
ATOM     12  C   UNL     1       0.025  -2.059  -1.216  0.00  0.00    +0.047 A 
ATOM     13  C   UNL     1       0.040  -2.750   0.010  0.00  0.00    +0.140 A 
ATOM     14  N   UNL     1       0.059  -4.082   0.013  0.00  0.00    -0.236 NA
ATOM     15  C   UNL     1       0.074  -4.768   1.145  0.00  0.00    +0.032 A 
ATOM     16  C   UNL     1       0.071  -4.104   2.356  0.00  0.00    +0.092 A 
ATOM     17  C   UNL     1       0.051  -2.704   2.361  0.00  0.00    +0.258 A 
ATOM     18  O   UNL     1       0.048  -2.088   3.415  0.00  0.00    -0.267 OA
ATOM     19  N   UNL     1       0.037  -2.046   1.182  0.00  0.00    -0.268 N 
ATOM     20  C   UNL     1       0.022  -0.685   1.170  0.00  0.00    +0.099 A 
ENDBRANCH   8  15
ENDBRANCH   1   8
BRANCH   4  21
ATOM     21  C   UNL     1      -4.851  -8.802  -0.180  0.00  0.00    +0.147 C 
BRANCH  21  22
ATOM     22  C   UNL     1      -4.828 -10.296  -0.380  0.00  0.00    -0.019 A 
ATOM     23  C   UNL     1      -5.272 -11.134   0.626  0.00  0.00    +0.007 A 
ATOM     24  C   UNL     1      -5.252 -12.504   0.444  0.00  0.00    +0.020 A 
ATOM     25  C   UNL     1      -4.786 -13.036  -0.745  0.00  0.00    +0.041 A 
ATOM     26  C   UNL     1      -4.341 -12.197  -1.751  0.00  0.00    +0.020 A 
ATOM     27  C   UNL     1      -4.368 -10.827  -1.570  0.00  0.00    +0.007 A 
ATOM     28 CL   UNL     1      -4.759 -14.757  -0.975  0.00  0.00    -0.084 Cl
ENDBRANCH  21  22
BRANCH  21  29
ATOM     29  O   UNL     1      -5.989  -8.444   0.607  0.00  0.00    -0.387 OA
ATOM     30  H   UNL     1      -6.003  -8.849   1.485  0.00  0.00    +0.210 HD
ENDBRANCH  21  29
ENDBRANCH   4  21
TORSDOF 5
