REMARK  Name = ZINC43262320
REMARK  12 active torsions:
REMARK  status: ('A' for Active; 'I' for Inactive)
REMARK    1  A    between atoms: C_1  and  C_2
REMARK    2  A    between atoms: C_2  and  C_3
REMARK    3  A    between atoms: C_3  and  C_4
REMARK    4  A    between atoms: C_4  and  C_5
REMARK    5  A    between atoms: C_5  and  C_6
REMARK    6  A    between atoms: C_9  and  C_12
REMARK    7  A    between atoms: C_18  and  C_21
REMARK    8  A    between atoms: N_23  and  C_24
REMARK    9  A    between atoms: C_24  and  C_25
REMARK   10  A    between atoms: C_25  and  C_26
REMARK   11  A    between atoms: C_26  and  C_27
REMARK   12  A    between atoms: C_26  and  C_33
REMARK                            x       y       z     vdW  Elec       q    Type
REMARK                         _______ _______ _______ _____ _____    ______ ____
ROOT
ATOM      1  C   UNL     1       1.864 -10.212  -2.625  0.00  0.00    -0.027 C 
ATOM      2  C   UNL     1       2.448 -11.062  -3.759  0.00  0.00    +0.092 C 
ATOM      3  S   UNL     1       2.708 -12.750  -3.131  0.00  0.00    +0.020 S 
ATOM      4  O   UNL     1       3.721 -12.734  -2.135  0.00  0.00    -0.257 OA
ATOM      5  C   UNL     1       1.106 -13.140  -2.361  0.00  0.00    +0.097 C 
ATOM      6  C   UNL     1       0.723 -11.979  -1.435  0.00  0.00    +0.029 C 
ATOM      7  N   UNL     1       0.565 -10.752  -2.219  0.00  0.00    +0.392 N 
ATOM      8  H   UNL     1       0.081 -10.064  -1.661  0.00  0.00    -0.084 HD
ATOM      9  H   UNL     1       0.018 -10.952  -3.043  0.00  0.00    -0.084 HD
ENDROOT
BRANCH   1  13
ATOM     10  C   UNL     1       1.372  -6.189  -3.976  0.00  0.00    -0.047 A 
ATOM     11  C   UNL     1       2.467  -6.530  -3.205  0.00  0.00    +0.004 A 
ATOM     12  C   UNL     1       2.626  -7.832  -2.767  0.00  0.00    +0.002 A 
ATOM     13  C   UNL     1       1.690  -8.793  -3.101  0.00  0.00    -0.060 A 
ATOM     14  C   UNL     1       0.594  -8.451  -3.871  0.00  0.00    +0.002 A 
ATOM     15  C   UNL     1       0.433  -7.149  -4.305  0.00  0.00    +0.004 A 
BRANCH  10  16
ATOM     16  C   UNL     1       1.198  -4.771  -4.453  0.00  0.00    +0.035 C 
BRANCH  16  17
ATOM     17  C   UNL     1       0.400  -3.978  -3.416  0.00  0.00    +0.005 C 
BRANCH  17  18
ATOM     18  C   UNL     1       0.224  -2.537  -3.900  0.00  0.00    +0.000 C 
BRANCH  18  20
ATOM     19  C   UNL     1      -0.750  -0.304  -3.347  0.00  0.00    +0.004 C 
ATOM     20  C   UNL     1      -0.574  -1.745  -2.862  0.00  0.00    -0.003 C 
ENDBRANCH  18  20
ENDBRANCH  17  18
ENDBRANCH  16  17
ENDBRANCH  10  16
ENDBRANCH   1  13
BRANCH   6  21
ATOM     21  C   UNL     1       1.806 -11.780  -0.406  0.00  0.00    +0.200 C 
ATOM     22  O   UNL     1       2.492 -12.718  -0.060  0.00  0.00    -0.278 OA
ATOM     23  N   UNL     1       2.011 -10.561   0.129  0.00  0.00    -0.317 N 
ATOM     24  H   UNL     1       1.462  -9.811  -0.149  0.00  0.00    +0.149 HD
BRANCH  23  25
ATOM     25  C   UNL     1       3.064 -10.367   1.129  0.00  0.00    +0.105 C 
BRANCH  25  26
ATOM     26  C   UNL     1       3.086  -8.902   1.569  0.00  0.00    +0.031 C 
BRANCH  26  27
ATOM     27  C   UNL     1       4.186  -8.701   2.614  0.00  0.00    +0.050 C 
BRANCH  27  28
ATOM     28  C   UNL     1       5.531  -8.947   1.981  0.00  0.00    -0.040 A 
ATOM     29  C   UNL     1       6.412  -9.843   2.557  0.00  0.00    +0.004 A 
ATOM     30  C   UNL     1       7.646 -10.069   1.977  0.00  0.00    +0.000 A 
ATOM     31  C   UNL     1       7.999  -9.399   0.820  0.00  0.00    +0.000 A 
ATOM     32  C   UNL     1       7.118  -8.504   0.243  0.00  0.00    +0.000 A 
ATOM     33  C   UNL     1       5.882  -8.281   0.821  0.00  0.00    +0.004 A 
ENDBRANCH  27  28
BRANCH  27  34
ATOM     34  C   UNL     1       4.128  -7.289   3.138  0.00  0.00    -0.040 A 
ATOM     35  C   UNL     1       4.121  -6.224   2.256  0.00  0.00    +0.004 A 
ATOM     36  C   UNL     1       4.068  -4.929   2.737  0.00  0.00    +0.000 A 
ATOM     37  C   UNL     1       4.022  -4.699   4.099  0.00  0.00    +0.000 A 
ATOM     38  C   UNL     1       4.028  -5.763   4.981  0.00  0.00    +0.000 A 
ATOM     39  C   UNL     1       4.077  -7.059   4.500  0.00  0.00    +0.004 A 
ENDBRANCH  27  34
ENDBRANCH  26  27
ENDBRANCH  25  26
ENDBRANCH  23  25
ENDBRANCH   6  21
TORSDOF 11
