REMARK  Name = ZINC35744167
REMARK  10 active torsions:
REMARK  status: ('A' for Active; 'I' for Inactive)
REMARK    1  A    between atoms: C_1  and  C_2
REMARK    2  A    between atoms: C_2  and  C_4
REMARK    3  A    between atoms: C_2  and  N_10
REMARK    4  A    between atoms: C_11  and  C_13
REMARK    5  A    between atoms: C_13  and  N_14
REMARK    6  A    between atoms: N_16  and  C_31
REMARK    7  A    between atoms: C_25  and  C_27
REMARK    8  A    between atoms: C_27  and  C_28
REMARK    9  A    between atoms: C_27  and  C_29
REMARK   10  A    between atoms: C_27  and  C_30
REMARK                            x       y       z     vdW  Elec       q    Type
REMARK                         _______ _______ _______ _____ _____    ______ ____
ROOT
ATOM      1  N   UNL     1       0.276  -1.283  -4.694  0.00  0.00    -0.275 N 
ATOM      2  C   UNL     1      -0.651  -2.356  -5.051  0.00  0.00    +0.217 C 
ATOM      3  N   UNL     1      -1.571  -1.841  -6.072  0.00  0.00    -0.300 N 
ATOM      4  C   UNL     1      -1.169  -0.449  -6.310  0.00  0.00    +0.115 C 
ATOM      5  C   UNL     1      -0.002  -0.173  -5.399  0.00  0.00    +0.241 C 
ATOM      6  O   UNL     1       0.593   0.880  -5.316  0.00  0.00    -0.273 OA
ATOM      7  C   UNL     1      -2.326   0.492  -5.972  0.00  0.00    +0.054 C 
ATOM      8  C   UNL     1      -3.526   0.163  -6.866  0.00  0.00    +0.110 C 
ATOM      9  N   UNL     1      -3.095   0.205  -8.270  0.00  0.00    -0.301 N 
ATOM     10  C   UNL     1      -1.941  -0.605  -8.680  0.00  0.00    +0.110 C 
ATOM     11  C   UNL     1      -0.754  -0.270  -7.770  0.00  0.00    +0.054 C 
ATOM     12  C   UNL     1      -3.747   0.974  -9.165  0.00  0.00    +0.221 C 
ATOM     13  O   UNL     1      -3.397   0.983 -10.326  0.00  0.00    -0.275 OA
ENDROOT
BRANCH   3  14
ATOM     14  C   UNL     1      -2.615  -2.533  -6.691  0.00  0.00    +0.032 A 
ATOM     15  C   UNL     1      -2.927  -3.826  -6.291  0.00  0.00    +0.023 A 
ATOM     16  C   UNL     1      -3.960  -4.507  -6.904  0.00  0.00    +0.002 A 
ATOM     17  C   UNL     1      -4.683  -3.904  -7.917  0.00  0.00    +0.000 A 
ATOM     18  C   UNL     1      -4.375  -2.616  -8.318  0.00  0.00    +0.002 A 
ATOM     19  C   UNL     1      -3.347  -1.927  -7.705  0.00  0.00    +0.023 A 
ENDBRANCH   3  14
BRANCH  12  20
ATOM     20  C   UNL     1      -4.912   1.821  -8.723  0.00  0.00    +0.039 C 
ATOM     21  C   UNL     1      -5.478   2.578  -9.927  0.00  0.00    +0.020 C 
ATOM     22  C   UNL     1      -6.000   0.924  -8.129  0.00  0.00    +0.020 C 
ATOM     23  C   UNL     1      -4.443   2.822  -7.666  0.00  0.00    +0.020 C 
ENDBRANCH  12  20
BRANCH   1  24
ATOM     24  C   UNL     1       1.351  -1.400  -3.706  0.00  0.00    +0.205 C 
BRANCH  24  26
ATOM     25  N   UNL     1       1.645  -1.046  -1.275  0.00  0.00    -0.307 N 
ATOM     26  C   UNL     1       0.828  -1.015  -2.346  0.00  0.00    +0.231 C 
ATOM     27  O   UNL     1      -0.330  -0.676  -2.216  0.00  0.00    -0.274 OA
ATOM     28  H   UNL     1       2.571  -1.317  -1.379  0.00  0.00    +0.149 HD
BRANCH  25  30
ATOM     29  C   UNL     1       1.218   0.847   0.213  0.00  0.00    +0.033 C 
ATOM     30  C   UNL     1       1.136  -0.672   0.047  0.00  0.00    +0.100 C 
BRANCH  30  31
ATOM     31  C   UNL     1       1.966  -1.340   1.112  0.00  0.00    -0.027 A 
ATOM     32  C   UNL     1       3.338  -1.427   0.966  0.00  0.00    +0.005 A 
ATOM     33  C   UNL     1       4.100  -2.039   1.944  0.00  0.00    +0.000 A 
ATOM     34  C   UNL     1       3.490  -2.564   3.068  0.00  0.00    +0.000 A 
ATOM     35  C   UNL     1       2.118  -2.477   3.214  0.00  0.00    +0.000 A 
ATOM     36  C   UNL     1       1.357  -1.860   2.239  0.00  0.00    +0.005 A 
ENDBRANCH  30  31
ENDBRANCH  25  30
ENDBRANCH  24  26
ENDBRANCH   1  24
TORSDOF 6
