REMARK  Name = ZINC13559250
REMARK  5 active torsions:
REMARK  status: ('A' for Active; 'I' for Inactive)
REMARK    1  A    between atoms: C_1  and  N_2
REMARK    2  A    between atoms: N_4  and  S_5
REMARK    3  A    between atoms: S_5  and  C_8
REMARK    4  A    between atoms: C_17  and  C_28
REMARK    5  A    between atoms: C_19  and  C_21
REMARK                            x       y       z     vdW  Elec       q    Type
REMARK                         _______ _______ _______ _____ _____    ______ ____
ROOT
ATOM      1  C   UNL     1      -0.018   1.461   0.010  0.00  0.00    +0.128 C 
ATOM      2  N   UNL     1       0.002  -0.004   0.002  0.00  0.00    -0.318 N 
ATOM      3  C   UNL     1      -1.180  -0.708   0.009  0.00  0.00    +0.222 C 
ATOM      4  N   UNL     1      -1.162  -2.011   0.002  0.00  0.00    -0.096 NA
ATOM      5  N   UNL     1      -2.381  -0.036   0.025  0.00  0.00    -0.193 N 
ATOM      6  C   UNL     1      -3.712  -0.663   0.040  0.00  0.00    +0.149 C 
ATOM      7  C   UNL     1      -4.678   0.539   0.053  0.00  0.00    +0.089 C 
ATOM      8  C   UNL     1      -3.761   1.742   0.043  0.00  0.00    +0.076 C 
ATOM      9  N   UNL     1      -2.535   1.349   0.034  0.00  0.00    -0.181 NA
ATOM     10  H   UNL     1       0.849  -0.478  -0.009  0.00  0.00    +0.148 HD
ENDROOT
BRANCH   8  11
ATOM     11  C   UNL     1      -4.204   3.149   0.050  0.00  0.00    -0.002 A 
ATOM     12  C   UNL     1      -5.567   3.455   0.072  0.00  0.00    +0.011 A 
ATOM     13  C   UNL     1      -5.974   4.773   0.078  0.00  0.00    +0.020 A 
ATOM     14  C   UNL     1      -5.035   5.791   0.062  0.00  0.00    +0.041 A 
ATOM     15  C   UNL     1      -3.683   5.494   0.040  0.00  0.00    +0.020 A 
ATOM     16  C   UNL     1      -3.262   4.180   0.040  0.00  0.00    +0.011 A 
ATOM     17 CL   UNL     1      -5.557   7.447   0.070  0.00  0.00    -0.084 Cl
ENDBRANCH   8  11
BRANCH   7  18
ATOM     18  C   UNL     1      -5.523   0.525   1.300  0.00  0.00    -0.037 A 
ATOM     19  C   UNL     1      -4.922   0.592   2.543  0.00  0.00    +0.004 A 
ATOM     20  C   UNL     1      -5.698   0.579   3.687  0.00  0.00    +0.000 A 
ATOM     21  C   UNL     1      -7.074   0.499   3.588  0.00  0.00    +0.000 A 
ATOM     22  C   UNL     1      -7.675   0.432   2.345  0.00  0.00    +0.000 A 
ATOM     23  C   UNL     1      -6.900   0.450   1.201  0.00  0.00    +0.004 A 
ENDBRANCH   7  18
BRANCH   4  24
ATOM     24  S   UNL     1       0.283  -2.820  -0.016  0.00  0.00    +0.102 S 
ATOM     25  O   UNL     1       0.894  -2.531  -1.266  0.00  0.00    -0.146 OA
ATOM     26  O   UNL     1       0.918  -2.544   1.225  0.00  0.00    -0.146 OA
BRANCH  24  27
ATOM     27  C   UNL     1      -0.084  -4.543  -0.021  0.00  0.00    +0.113 A 
ATOM     28  C   UNL     1      -0.222  -5.224   1.174  0.00  0.00    +0.030 A 
ATOM     29  C   UNL     1      -0.510  -6.576   1.170  0.00  0.00    +0.022 A 
ATOM     30  C   UNL     1      -0.660  -7.248  -0.030  0.00  0.00    +0.041 A 
ATOM     31  C   UNL     1      -0.522  -6.566  -1.226  0.00  0.00    +0.022 A 
ATOM     32  C   UNL     1      -0.239  -5.213  -1.221  0.00  0.00    +0.030 A 
ATOM     33 CL   UNL     1      -1.021  -8.946  -0.036  0.00  0.00    -0.084 Cl
ENDBRANCH  24  27
ENDBRANCH   4  24
TORSDOF 4
