REMARK  Name = ZINC16524871
REMARK  2 active torsions:
REMARK  status: ('A' for Active; 'I' for Inactive)
REMARK    1  A    between atoms: C_10  and  S_13
REMARK    2  A    between atoms: S_13  and  C_14
REMARK                            x       y       z     vdW  Elec       q    Type
REMARK                         _______ _______ _______ _____ _____    ______ ____
ROOT
ATOM      1  C   UNL     1       2.054   4.324   0.450  0.00  0.00    +0.002 A 
ATOM      2  C   UNL     1       3.285   3.881   0.002  0.00  0.00    +0.001 A 
ATOM      3  C   UNL     1       3.430   2.580  -0.445  0.00  0.00    +0.017 A 
ATOM      4  C   UNL     1       2.341   1.726  -0.444  0.00  0.00    +0.033 A 
ATOM      5  C   UNL     1       1.094   2.166   0.003  0.00  0.00    +0.081 A 
ATOM      6  C   UNL     1       0.964   3.476   0.452  0.00  0.00    +0.027 A 
ATOM      7  N   UNL     1      -0.016   1.326   0.009  0.00  0.00    -0.112 N 
ATOM      8  C   UNL     1       0.002  -0.004   0.002  0.00  0.00    +0.269 C 
ATOM      9  O   UNL     1      -1.059  -0.592   0.016  0.00  0.00    -0.271 OA
ATOM     10  C   UNL     1       1.266  -0.820  -0.023  0.00  0.00    +0.204 C 
ATOM     11  S   UNL     1       2.513   0.062  -1.009  0.00  0.00    -0.099 S 
ATOM     12  O   UNL     1      -1.288   1.948   0.018  0.00  0.00    -0.088 OA
ENDROOT
BRANCH  10  13
ATOM     13  S   UNL     1       1.876  -1.046   1.666  0.00  0.00    -0.069 S 
BRANCH  13  14
ATOM     14  C   UNL     1       3.318  -2.006   1.345  0.00  0.00    +0.124 C 
ATOM     15  N   UNL     1       3.628  -2.327   0.119  0.00  0.00    -0.382 N 
ATOM     16  N   UNL     1       4.117  -2.417   2.386  0.00  0.00    -0.340 N 
ATOM     17  H   UNL     1       4.528  -2.926  -0.082  0.00  0.00    +0.158 HD
ATOM     18  H   UNL     1       5.017  -3.016   2.186  0.00  0.00    +0.144 HD
ATOM     19  H   UNL     1       3.855  -2.146   3.420  0.00  0.00    +0.144 HD
ATOM     20  H   UNL     1       2.989  -1.998  -0.714  0.00  0.00    +0.158 HD
ENDBRANCH  13  14
ENDBRANCH  10  13
TORSDOF 2
