REMARK  Name = ZINC13445309
REMARK  11 active torsions:
REMARK  status: ('A' for Active; 'I' for Inactive)
REMARK    1  A    between atoms: C_1  and  C_2
REMARK    2  A    between atoms: C_2  and  O_3
REMARK    3  A    between atoms: O_3  and  C_4
REMARK    4  A    between atoms: C_9  and  N_10
REMARK    5  A    between atoms: C_11  and  C_13
REMARK    6  A    between atoms: C_13  and  S_14
REMARK    7  A    between atoms: S_14  and  C_15
REMARK    8  A    between atoms: N_25  and  C_26
REMARK    9  A    between atoms: C_26  and  C_27
REMARK   10  A    between atoms: C_27  and  C_28
REMARK   11  A    between atoms: C_31  and  C_34
REMARK                            x       y       z     vdW  Elec       q    Type
REMARK                         _______ _______ _______ _____ _____    ______ ____
ROOT
ATOM      1  C   UNL     1       3.729  -0.983   0.176  0.00  0.00    +0.173 C 
ENDROOT
BRANCH   1   3
ATOM      2  N   UNL     1       2.399   1.093  -0.015  0.00  0.00    -0.282 N 
ATOM      3  C   UNL     1       2.416  -0.251   0.079  0.00  0.00    +0.228 C 
ATOM      4  O   UNL     1       1.373  -0.871   0.086  0.00  0.00    -0.275 OA
ATOM      5  H   UNL     1       3.232   1.584  -0.101  0.00  0.00    +0.155 HD
BRANCH   2  11
ATOM      6  C   UNL     1       1.079   3.039  -0.581  0.00  0.00    +0.142 A 
ATOM      7  C   UNL     1      -0.132   3.713  -0.554  0.00  0.00    +0.055 A 
ATOM      8  C   UNL     1      -1.228   3.140   0.056  0.00  0.00    +0.001 A 
ATOM      9  C   UNL     1      -1.139   1.889   0.652  0.00  0.00    +0.126 A 
ATOM     10  C   UNL     1       0.077   1.213   0.627  0.00  0.00    +0.073 A 
ATOM     11  C   UNL     1       1.179   1.783   0.011  0.00  0.00    +0.079 A 
ATOM     12  O   UNL     1      -2.329   1.522   1.206  0.00  0.00    -0.488 OA
ATOM     13  C   UNL     1      -3.384   2.301   0.618  0.00  0.00    +0.175 C 
ATOM     14  C   UNL     1      -2.658   3.613   0.226  0.00  0.00    +0.083 C 
ATOM     15  C   UNL     1      -3.955   1.597  -0.615  0.00  0.00    +0.052 C 
BRANCH   6  16
ATOM     16  O   UNL     1       2.162   3.602  -1.181  0.00  0.00    -0.490 OA
BRANCH  16  18
ATOM     17  C   UNL     1       3.299   5.359  -2.390  0.00  0.00    +0.048 C 
ATOM     18  C   UNL     1       1.982   4.893  -1.767  0.00  0.00    +0.226 C 
ENDBRANCH  16  18
ENDBRANCH   6  16
ENDBRANCH   2  11
ENDBRANCH   1   3
BRANCH   1  19
ATOM     19  S   UNL     1       3.421  -2.763   0.289  0.00  0.00    -0.078 S 
BRANCH  19  20
ATOM     20  C   UNL     1       5.077  -3.355   0.388  0.00  0.00    +0.173 A 
ATOM     21  N   UNL     1       6.055  -2.484   0.356  0.00  0.00    -0.223 NA
ATOM     22  C   UNL     1       7.345  -2.866   0.432  0.00  0.00    +0.079 A 
ATOM     23  C   UNL     1       8.389  -1.936   0.403  0.00  0.00    +0.028 A 
ATOM     24  C   UNL     1       9.682  -2.368   0.477  0.00  0.00    +0.002 A 
ATOM     25  C   UNL     1       9.979  -3.721   0.582  0.00  0.00    +0.001 A 
ATOM     26  C   UNL     1       8.981  -4.655   0.613  0.00  0.00    +0.015 A 
ATOM     27  C   UNL     1       7.651  -4.242   0.538  0.00  0.00    +0.065 A 
ATOM     28  C   UNL     1       6.538  -5.200   0.567  0.00  0.00    +0.262 A 
ATOM     29  O   UNL     1       6.738  -6.398   0.657  0.00  0.00    -0.267 OA
ATOM     30  N   UNL     1       5.282  -4.702   0.489  0.00  0.00    -0.287 N 
BRANCH  30  31
ATOM     31  C   UNL     1       4.135  -5.613   0.512  0.00  0.00    +0.138 C 
BRANCH  31  32
ATOM     32  C   UNL     1       3.786  -6.030  -0.918  0.00  0.00    +0.147 C 
BRANCH  32  33
ATOM     33  C   UNL     1       2.606  -6.967  -0.894  0.00  0.00    +0.358 C 
ATOM     34  O   UNL     1       2.096  -7.270   0.159  0.00  0.00    -0.246 OA
ATOM     35  O   UNL     1       2.121  -7.465  -2.042  0.00  0.00    -0.246 OA
ENDBRANCH  32  33
ENDBRANCH  31  32
ENDBRANCH  30  31
ENDBRANCH  19  20
ENDBRANCH   1  19
TORSDOF 9
