REMARK  Name = ZINC34781494
REMARK  7 active torsions:
REMARK  status: ('A' for Active; 'I' for Inactive)
REMARK    1  A    between atoms: C_1  and  C_2
REMARK    2  A    between atoms: C_2  and  O_4
REMARK    3  A    between atoms: O_4  and  C_5
REMARK    4  A    between atoms: C_10  and  O_37
REMARK    5  A    between atoms: C_13  and  O_36
REMARK    6  A    between atoms: C_21  and  C_34
REMARK    7  A    between atoms: C_26  and  C_28
REMARK                            x       y       z     vdW  Elec       q    Type
REMARK                         _______ _______ _______ _____ _____    ______ ____
ROOT
ATOM      1  C   UNL     1      -1.066  -2.179  -0.148  0.00  0.00    +0.320 C 
ATOM      2  C   UNL     1      -2.414  -2.876  -0.353  0.00  0.00    +0.067 C 
ATOM      3  C   UNL     1      -2.741  -3.111  -1.808  0.00  0.00    +0.019 C 
ATOM      4  C   UNL     1      -3.166  -1.806  -2.485  0.00  0.00    +0.032 C 
ATOM      5  C   UNL     1      -4.383  -1.238  -1.750  0.00  0.00    +0.117 C 
ATOM      6  C   UNL     1      -3.994  -0.911  -0.307  0.00  0.00    +0.066 C 
ATOM      7  C   UNL     1      -3.537  -2.180   0.412  0.00  0.00    +0.080 C 
ATOM      8  C   UNL     1      -3.059  -1.822   1.826  0.00  0.00    +0.038 C 
ATOM      9  C   UNL     1      -2.484  -3.057   2.527  0.00  0.00    +0.038 C 
ATOM     10  C   UNL     1      -1.422  -3.688   1.618  0.00  0.00    +0.081 C 
ATOM     11  C   UNL     1      -2.163  -4.234   0.377  0.00  0.00    +0.036 C 
ATOM     12  C   UNL     1      -1.263  -5.106  -0.479  0.00  0.00    +0.008 C 
ATOM     13  C   UNL     1      -0.588  -6.243   0.297  0.00  0.00    +0.008 C 
ATOM     14  C   UNL     1      -0.883  -6.159   1.769  0.00  0.00    -0.020 C 
ATOM     15  C   UNL     1      -0.595  -4.734   2.285  0.00  0.00    +0.028 C 
ATOM     16  C   UNL     1      -0.741  -4.901   3.803  0.00  0.00    +0.007 C 
ATOM     17  C   UNL     1      -0.107  -6.292   4.072  0.00  0.00    +0.009 C 
ATOM     18  C   UNL     1       0.014  -6.999   2.698  0.00  0.00    +0.025 C 
ATOM     19  C   UNL     1      -2.325  -6.598   2.058  0.00  0.00    +0.012 C 
ATOM     20  O   UNL     1      -0.583  -2.616   1.133  0.00  0.00    -0.334 OA
ENDROOT
BRANCH  18  21
ATOM     21  C   UNL     1       1.451  -7.013   2.244  0.00  0.00    -0.022 C 
ATOM     22  C   UNL     1       2.164  -8.083   1.899  0.00  0.00    +0.094 C 
ATOM     23  C   UNL     1       3.514  -7.656   1.522  0.00  0.00    +0.332 C 
ATOM     24  O   UNL     1       4.406  -8.397   1.156  0.00  0.00    -0.246 OA
ATOM     25  O   UNL     1       3.619  -6.319   1.640  0.00  0.00    -0.457 OA
ATOM     26  C   UNL     1       2.357  -5.815   2.089  0.00  0.00    +0.264 C 
ENDBRANCH  18  21
BRANCH   7  27
ATOM     27  O   UNL     1      -4.660  -3.073   0.517  0.00  0.00    -0.388 OA
ATOM     28  H   UNL     1      -5.416  -2.700   0.992  0.00  0.00    +0.210 HD
ENDBRANCH   7  27
BRANCH   5  29
ATOM     29  O   UNL     1      -4.826  -0.048  -2.405  0.00  0.00    -0.392 OA
ATOM     30  H   UNL     1      -5.087  -0.180  -3.326  0.00  0.00    +0.210 HD
ENDBRANCH   5  29
BRANCH   1  31
ATOM     31  O   UNL     1      -1.170  -0.761  -0.193  0.00  0.00    -0.435 OA
BRANCH  31  33
ATOM     32  C   UNL     1      -0.053   1.440  -0.260  0.00  0.00    +0.136 C 
ATOM     33  C   UNL     1      -0.022  -0.066  -0.213  0.00  0.00    +0.306 C 
ATOM     34  O   UNL     1       1.037  -0.648  -0.193  0.00  0.00    -0.251 OA
ENDBRANCH  31  33
ENDBRANCH   1  31
TORSDOF 5
