REMARK  Name = ZINC35643587
REMARK  12 active torsions:
REMARK  status: ('A' for Active; 'I' for Inactive)
REMARK    1  A    between atoms: C_1  and  C_2
REMARK    2  A    between atoms: C_2  and  N_3
REMARK    3  A    between atoms: C_4  and  C_23
REMARK    4  A    between atoms: C_5  and  C_18
REMARK    5  A    between atoms: C_6  and  C_11
REMARK    6  A    between atoms: C_15  and  C_17
REMARK    7  A    between atoms: C_18  and  O_20
REMARK    8  A    between atoms: O_20  and  C_21
REMARK    9  A    between atoms: C_21  and  C_22
REMARK   10  A    between atoms: C_23  and  N_24
REMARK   11  A    between atoms: C_28  and  C_31
REMARK   12  A    between atoms: C_32  and  C_34
REMARK                            x       y       z     vdW  Elec       q    Type
REMARK                         _______ _______ _______ _____ _____    ______ ____
ROOT
ATOM      1  N   UNL     1      -2.574   0.295   1.911  0.00  0.00    -0.258 N 
ATOM      2  C   UNL     1      -2.902   0.157   3.230  0.00  0.00    +0.041 C 
ATOM      3  C   UNL     1      -4.168  -0.121   3.608  0.00  0.00    +0.080 C 
ATOM      4  C   UNL     1      -5.212  -0.275   2.520  0.00  0.00    +0.144 C 
ATOM      5  N   UNL     1      -4.755  -0.106   1.129  0.00  0.00    -0.288 N 
ATOM      6  C   UNL     1      -3.456   0.175   0.910  0.00  0.00    +0.307 C 
ATOM      7  O   UNL     1      -3.070   0.319  -0.233  0.00  0.00    -0.252 OA
ATOM      8  H   UNL     1      -5.377  -0.193   0.389  0.00  0.00    +0.151 HD
ENDROOT
BRANCH   4   9
ATOM      9  C   UNL     1      -5.816  -1.649   2.646  0.00  0.00    -0.022 A 
ATOM     10  C   UNL     1      -5.145  -2.749   2.144  0.00  0.00    +0.006 A 
ATOM     11  C   UNL     1      -5.700  -4.009   2.260  0.00  0.00    +0.001 A 
ATOM     12  C   UNL     1      -6.925  -4.171   2.879  0.00  0.00    +0.003 A 
ATOM     13  C   UNL     1      -7.596  -3.072   3.382  0.00  0.00    -0.050 A 
ATOM     14  C   UNL     1      -7.039  -1.811   3.270  0.00  0.00    +0.009 A 
ATOM     15  C   UNL     1      -8.932  -3.248   4.056  0.00  0.00    +0.044 C 
ENDBRANCH   4   9
BRANCH   1  17
ATOM     16  C   UNL     1      -0.982   2.114   1.538  0.00  0.00    +0.025 C 
ATOM     17  C   UNL     1      -1.181   0.597   1.573  0.00  0.00    +0.111 C 
ENDBRANCH   1  17
BRANCH   3  18
ATOM     18  C   UNL     1      -4.509  -0.265   4.973  0.00  0.00    +0.339 C 
ATOM     19  O   UNL     1      -4.590  -1.374   5.466  0.00  0.00    -0.245 OA
BRANCH  18  20
ATOM     20  O   UNL     1      -4.745   0.828   5.728  0.00  0.00    -0.462 OA
BRANCH  20  21
ATOM     21  C   UNL     1      -5.084   0.609   7.099  0.00  0.00    +0.229 C 
ATOM     22  C   UNL     1      -5.313   1.955   7.790  0.00  0.00    +0.048 C 
ENDBRANCH  20  21
ENDBRANCH  18  20
ENDBRANCH   3  18
BRANCH   2  23
ATOM     23  C   UNL     1      -1.833   0.318   4.280  0.00  0.00    +0.136 C 
BRANCH  23  24
ATOM     24  N   UNL     1      -0.863  -0.779   4.163  0.00  0.00    -0.294 NA
ATOM     25  C   UNL     1      -1.487  -2.070   4.484  0.00  0.00    +0.104 C 
ATOM     26  C   UNL     1      -0.500  -3.201   4.178  0.00  0.00    +0.124 C 
ATOM     27  N   UNL     1       0.760  -2.926   4.885  0.00  0.00    -0.292 N 
ATOM     28  C   UNL     1       1.375  -1.600   4.721  0.00  0.00    +0.087 C 
ATOM     29  C   UNL     1       0.314  -0.532   5.006  0.00  0.00    +0.107 C 
ATOM     30  C   UNL     1       2.539  -1.449   5.702  0.00  0.00    +0.029 C 
ATOM     31  C   UNL     1       1.335  -3.864   5.663  0.00  0.00    +0.250 C 
ATOM     32  O   UNL     1       2.330  -3.594   6.307  0.00  0.00    -0.270 OA
BRANCH  31  33
ATOM     33  C   UNL     1       0.756  -5.221   5.734  0.00  0.00    +0.072 A 
ATOM     34  C   UNL     1       0.068  -5.748   4.639  0.00  0.00    +0.016 A 
ATOM     35  C   UNL     1      -0.470  -7.016   4.712  0.00  0.00    +0.001 A 
ATOM     36  C   UNL     1      -0.329  -7.768   5.866  0.00  0.00    +0.003 A 
ATOM     37  C   UNL     1       0.350  -7.255   6.955  0.00  0.00    +0.039 A 
ATOM     38  C   UNL     1       0.900  -5.987   6.895  0.00  0.00    +0.135 A 
ATOM     39  F   UNL     1       1.569  -5.488   7.957  0.00  0.00    -0.205 F 
ENDBRANCH  31  33
ENDBRANCH  23  24
ENDBRANCH   2  23
TORSDOF 8
