REMARK  Name = ZINC57003737
REMARK  8 active torsions:
REMARK  status: ('A' for Active; 'I' for Inactive)
REMARK    1  A    between atoms: C_1  and  C_2
REMARK    2  A    between atoms: C_2  and  O_3
REMARK    3  A    between atoms: O_3  and  C_4
REMARK    4  A    between atoms: C_11  and  C_13
REMARK    5  A    between atoms: C_13  and  C_15
REMARK    6  A    between atoms: C_13  and  N_16
REMARK    7  A    between atoms: N_19  and  C_20
REMARK    8  A    between atoms: C_29  and  O_31
REMARK                            x       y       z     vdW  Elec       q    Type
REMARK                         _______ _______ _______ _____ _____    ______ ____
ROOT
ATOM      1  N   UNL     1       2.699  -1.375   6.281  0.00  0.00    -0.290 N 
ATOM      2  C   UNL     1       2.836  -1.267   7.617  0.00  0.00    +0.301 C 
ATOM      3  O   UNL     1       3.482  -2.095   8.230  0.00  0.00    -0.253 OA
ATOM      4  N   UNL     1       2.257  -0.242   8.274  0.00  0.00    -0.290 N 
ATOM      5  H   UNL     1       2.184  -0.714   5.792  0.00  0.00    +0.151 HD
ATOM      6  H   UNL     1       1.742   0.418   7.785  0.00  0.00    +0.151 HD
ENDROOT
BRANCH   4   7
ATOM      7  C   UNL     1       2.406  -0.126   9.727  0.00  0.00    +0.134 C 
ATOM      8  C   UNL     1       1.319  -0.908  10.431  0.00  0.00    -0.021 A 
ATOM      9  C   UNL     1       1.198  -2.269  10.663  0.00  0.00    +0.006 A 
ATOM     10  C   UNL     1       0.100  -2.764  11.337  0.00  0.00    +0.000 A 
ATOM     11  C   UNL     1      -0.884  -1.901  11.782  0.00  0.00    +0.000 A 
ATOM     12  C   UNL     1      -0.766  -0.544  11.552  0.00  0.00    +0.004 A 
ATOM     13  C   UNL     1       0.335  -0.045  10.876  0.00  0.00    -0.040 A 
ATOM     14  C   UNL     1       0.695   1.377  10.502  0.00  0.00    +0.069 C 
ATOM     15  C   UNL     1       2.204   1.339  10.170  0.00  0.00    +0.143 C 
BRANCH  15  16
ATOM     16  O   UNL     1       2.515   2.239   9.105  0.00  0.00    -0.389 OA
ATOM     17  H   UNL     1       2.404   3.172   9.333  0.00  0.00    +0.210 HD
ENDBRANCH  15  16
ENDBRANCH   4   7
BRANCH   1  18
ATOM     18  C   UNL     1       3.328  -2.489   5.567  0.00  0.00    +0.137 C 
ATOM     19  C   UNL     1       4.780  -2.131   5.242  0.00  0.00    +0.036 C 
BRANCH  18  27
ATOM     20  C   UNL     1       0.802  -1.825   1.306  0.00  0.00    +0.163 A 
ATOM     21  C   UNL     1       0.262  -2.671   0.354  0.00  0.00    +0.049 A 
ATOM     22  C   UNL     1       0.365  -4.047   0.492  0.00  0.00    +0.004 A 
ATOM     23  C   UNL     1       1.010  -4.590   1.581  0.00  0.00    +0.012 A 
ATOM     24  C   UNL     1       1.561  -3.749   2.549  0.00  0.00    +0.024 A 
ATOM     25  C   UNL     1       1.463  -2.356   2.411  0.00  0.00    +0.177 A 
ATOM     26  O   UNL     1       2.082  -1.804   3.475  0.00  0.00    -0.454 OA
ATOM     27  C   UNL     1       2.577  -2.753   4.287  0.00  0.00    +0.126 A 
ATOM     28  C   UNL     1       2.296  -3.970   3.800  0.00  0.00    +0.055 A 
BRANCH  20  29
ATOM     29  O   UNL     1       0.693  -0.477   1.160  0.00  0.00    -0.489 OA
BRANCH  29  31
ATOM     30  C   UNL     1      -0.019   1.526   0.010  0.00  0.00    +0.048 C 
ATOM     31  C   UNL     1       0.002  -0.004   0.002  0.00  0.00    +0.226 C 
ENDBRANCH  29  31
ENDBRANCH  20  29
ENDBRANCH  18  27
ENDBRANCH   1  18
TORSDOF 6
