REMARK  Name = ZINC40084734
REMARK  18 active torsions:
REMARK  status: ('A' for Active; 'I' for Inactive)
REMARK    1  A    between atoms: C_1  and  C_2
REMARK    2  A    between atoms: C_4  and  O_33
REMARK    3  A    between atoms: C_7  and  C_8
REMARK    4  A    between atoms: C_8  and  C_10
REMARK    5  A    between atoms: N_14  and  C_26
REMARK    6  A    between atoms: C_15  and  C_17
REMARK    7  A    between atoms: C_20  and  N_23
REMARK    8  A    between atoms: N_23  and  C_24
REMARK    9  A    between atoms: N_23  and  C_25
REMARK   10  A    between atoms: C_26  and  C_27
REMARK   11  A    between atoms: C_27  and  O_28
REMARK   12  A    between atoms: O_28  and  C_29
REMARK   13  A    between atoms: C_29  and  C_30
REMARK   14  A    between atoms: C_30  and  O_31
REMARK   15  A    between atoms: O_33  and  C_34
REMARK   16  A    between atoms: C_34  and  C_35
REMARK   17  A    between atoms: C_35  and  C_36
REMARK   18  A    between atoms: C_35  and  C_37
REMARK                            x       y       z     vdW  Elec       q    Type
REMARK                         _______ _______ _______ _____ _____    ______ ____
ROOT
ATOM      1  C   UNL     1       0.394  -1.126   4.497  0.00  0.00    +0.076 C 
ATOM      2  C   UNL     1       0.439  -0.440   5.663  0.00  0.00    +0.249 C 
ATOM      3  C   UNL     1       0.335  -1.391   6.790  0.00  0.00    +0.288 C 
ATOM      4  O   UNL     1       0.345  -1.083   7.965  0.00  0.00    -0.266 OA
ATOM      5  N   UNL     1       0.227  -2.648   6.322  0.00  0.00    -0.281 N 
ATOM      6  C   UNL     1       0.248  -2.587   4.856  0.00  0.00    +0.145 C 
ATOM      7  O   UNL     1       0.561   0.902   5.779  0.00  0.00    -0.282 OA
ENDROOT
BRANCH   6   8
ATOM      8  C   UNL     1      -1.039  -3.132   4.292  0.00  0.00    -0.022 A 
ATOM      9  C   UNL     1      -1.009  -3.982   3.202  0.00  0.00    +0.007 A 
ATOM     10  C   UNL     1      -2.186  -4.483   2.683  0.00  0.00    +0.023 A 
ATOM     11  C   UNL     1      -3.401  -4.134   3.258  0.00  0.00    +0.029 A 
ATOM     12  C   UNL     1      -3.428  -3.280   4.354  0.00  0.00    +0.023 A 
ATOM     13  C   UNL     1      -2.247  -2.787   4.871  0.00  0.00    +0.007 A 
BRANCH  11  14
ATOM     14  N   UNL     1      -4.594  -4.639   2.735  0.00  0.00    -0.336 N 
ATOM     15  C   UNL     1      -4.576  -5.438   1.507  0.00  0.00    +0.129 C 
ATOM     16  C   UNL     1      -5.864  -4.370   3.415  0.00  0.00    +0.129 C 
ENDBRANCH  11  14
ENDBRANCH   6   8
BRANCH   1  17
ATOM     17  C   UNL     1       0.467  -0.560   3.147  0.00  0.00    +0.195 C 
ATOM     18  O   UNL     1      -0.440   0.136   2.729  0.00  0.00    -0.287 OA
BRANCH  17  25
ATOM     19  C   UNL     1       0.474   0.342   0.398  0.00  0.00    +0.044 C 
ATOM     20  C   UNL     1       1.655  -0.404   0.964  0.00  0.00    -0.036 A 
ATOM     21  C   UNL     1       2.753  -0.657   0.173  0.00  0.00    +0.049 A 
ATOM     22  C   UNL     1       3.843  -1.345   0.693  0.00  0.00    +0.121 A 
ATOM     23  C   UNL     1       3.829  -1.780   2.014  0.00  0.00    +0.046 A 
ATOM     24  C   UNL     1       2.736  -1.532   2.811  0.00  0.00    +0.015 A 
ATOM     25  C   UNL     1       1.639  -0.835   2.293  0.00  0.00    +0.025 A 
BRANCH  22  26
ATOM     26  O   UNL     1       4.923  -1.593  -0.090  0.00  0.00    -0.492 OA
BRANCH  26  27
ATOM     27  C   UNL     1       6.008  -2.305   0.508  0.00  0.00    +0.232 C 
BRANCH  27  28
ATOM     28  C   UNL     1       7.126  -2.489  -0.520  0.00  0.00    +0.020 C 
ATOM     29  C   UNL     1       7.699  -1.122  -0.900  0.00  0.00    +0.010 C 
ATOM     30  C   UNL     1       8.234  -3.357   0.081  0.00  0.00    +0.010 C 
ENDBRANCH  27  28
ENDBRANCH  26  27
ENDBRANCH  22  26
ENDBRANCH  17  25
ENDBRANCH   1  17
BRANCH   5  31
ATOM     31  C   UNL     1       0.103  -3.862   7.133  0.00  0.00    +0.137 C 
BRANCH  31  32
ATOM     32  C   UNL     1       1.486  -4.488   7.326  0.00  0.00    +0.179 C 
BRANCH  32  33
ATOM     33  O   UNL     1       2.295  -3.619   8.121  0.00  0.00    -0.376 OA
BRANCH  33  34
ATOM     34  C   UNL     1       3.646  -4.060   8.272  0.00  0.00    +0.187 C 
BRANCH  34  35
ATOM     35  C   UNL     1       4.383  -3.125   9.233  0.00  0.00    +0.184 C 
BRANCH  35  36
ATOM     36  O   UNL     1       3.821  -3.246  10.541  0.00  0.00    -0.393 OA
ATOM     37  H   UNL     1       4.241  -2.680  11.203  0.00  0.00    +0.209 HD
ENDBRANCH  35  36
ENDBRANCH  34  35
ENDBRANCH  33  34
ENDBRANCH  32  33
ENDBRANCH  31  32
ENDBRANCH   5  31
TORSDOF 13
