REMARK  Name = ZINC38746506
REMARK  9 active torsions:
REMARK  status: ('A' for Active; 'I' for Inactive)
REMARK    1  A    between atoms: C_1  and  C_2
REMARK    2  A    between atoms: C_2  and  O_3
REMARK    3  A    between atoms: O_3  and  C_4
REMARK    4  A    between atoms: C_4  and  C_6
REMARK    5  A    between atoms: C_10  and  N_11
REMARK    6  A    between atoms: C_12  and  C_14
REMARK    7  A    between atoms: C_14  and  S_15
REMARK    8  A    between atoms: S_15  and  C_16
REMARK    9  A    between atoms: C_32  and  C_36
REMARK                            x       y       z     vdW  Elec       q    Type
REMARK                         _______ _______ _______ _____ _____    ______ ____
ROOT
ATOM      1  N   UNL     1      -3.033  -2.524   2.498  0.00  0.00    -0.279 N 
ATOM      2  C   UNL     1      -3.808  -2.867   3.546  0.00  0.00    +0.228 C 
ATOM      3  O   UNL     1      -4.910  -3.337   3.357  0.00  0.00    -0.275 OA
ATOM      4  H   UNL     1      -2.152  -2.147   2.650  0.00  0.00    +0.155 HD
ENDROOT
BRANCH   1   9
ATOM      5  C   UNL     1      -2.842  -2.416   0.016  0.00  0.00    +0.091 A 
ATOM      6  C   UNL     1      -3.548  -2.714  -1.219  0.00  0.00    -0.021 A 
ATOM      7  C   UNL     1      -4.777  -3.242  -1.039  0.00  0.00    -0.004 A 
ATOM      8  S   UNL     1      -4.974  -3.335   0.716  0.00  0.00    -0.077 S 
ATOM      9  C   UNL     1      -3.495  -2.708   1.205  0.00  0.00    +0.086 A 
ATOM     10  C   UNL     1      -5.745  -3.651  -2.106  0.00  0.00    +0.046 C 
ATOM     11  C   UNL     1      -5.287  -3.033  -3.435  0.00  0.00    -0.009 C 
ATOM     12  C   UNL     1      -3.790  -3.300  -3.616  0.00  0.00    +0.008 C 
ATOM     13  C   UNL     1      -2.988  -2.468  -2.612  0.00  0.00    +0.037 C 
ATOM     14  C   UNL     1      -6.066  -3.666  -4.590  0.00  0.00    +0.008 C 
BRANCH   5  15
ATOM     15  C   UNL     1      -1.497  -1.838   0.006  0.00  0.00    +0.342 C 
ATOM     16  O   UNL     1      -0.523  -2.566  -0.007  0.00  0.00    -0.245 OA
BRANCH  15  17
ATOM     17  O   UNL     1      -1.339  -0.499   0.012  0.00  0.00    -0.461 OA
BRANCH  17  19
ATOM     18  C   UNL     1      -0.019   1.526   0.010  0.00  0.00    +0.048 C 
ATOM     19  C   UNL     1       0.002  -0.004   0.002  0.00  0.00    +0.229 C 
ENDBRANCH  17  19
ENDBRANCH  15  17
ENDBRANCH   5  15
ENDBRANCH   1   9
BRANCH   2  20
ATOM     20  C   UNL     1      -3.306  -2.666   4.953  0.00  0.00    +0.173 C 
BRANCH  20  21
ATOM     21  S   UNL     1      -4.570  -3.220   6.131  0.00  0.00    -0.079 S 
BRANCH  21  22
ATOM     22  C   UNL     1      -3.841  -2.924   7.708  0.00  0.00    +0.182 C 
ATOM     23  N   UNL     1      -2.629  -2.398   7.752  0.00  0.00    -0.151 NA
ATOM     24  C   UNL     1      -2.001  -2.134   8.897  0.00  0.00    +0.272 C 
ATOM     25  O   UNL     1      -0.881  -1.651   8.902  0.00  0.00    -0.268 OA
ATOM     26  C   UNL     1      -2.711  -2.448  10.179  0.00  0.00    +0.071 C 
ATOM     27  C   UNL     1      -2.293  -2.207  11.433  0.00  0.00    -0.042 C 
ATOM     28  C   UNL     1      -1.046  -1.393  11.771  0.00  0.00    +0.033 C 
ATOM     29  C   UNL     1      -1.495  -0.268  12.714  0.00  0.00    +0.004 C 
ATOM     30  C   UNL     1      -2.262  -0.848  13.900  0.00  0.00    +0.002 C 
ATOM     31  C   UNL     1      -3.550  -1.534  13.434  0.00  0.00    +0.019 C 
ATOM     32  C   UNL     1      -3.174  -2.734  12.560  0.00  0.00    +0.079 C 
ATOM     33  S   UNL     1      -4.647  -3.329  11.646  0.00  0.00    -0.097 S 
ATOM     34  C   UNL     1      -4.054  -3.041   9.997  0.00  0.00    +0.112 C 
ATOM     35  N   UNL     1      -4.541  -3.235   8.799  0.00  0.00    -0.217 NA
ENDBRANCH  21  22
ENDBRANCH  20  21
ENDBRANCH   2  20
TORSDOF 7
