REMARK  Name = ZINC34829742
REMARK  12 active torsions:
REMARK  status: ('A' for Active; 'I' for Inactive)
REMARK    1  A    between atoms: C_1  and  C_2
REMARK    2  A    between atoms: C_2  and  C_3
REMARK    3  A    between atoms: C_3  and  C_4
REMARK    4  A    between atoms: C_4  and  C_5
REMARK    5  A    between atoms: C_5  and  C_7
REMARK    6  A    between atoms: C_5  and  C_9
REMARK    7  A    between atoms: C_7  and  C_8
REMARK    8  A    between atoms: C_16  and  C_18
REMARK    9  A    between atoms: C_19  and  C_21
REMARK   10  A    between atoms: C_21  and  N_22
REMARK   11  A    between atoms: C_30  and  C_32
REMARK   12  A    between atoms: C_35  and  C_38
REMARK                            x       y       z     vdW  Elec       q    Type
REMARK                         _______ _______ _______ _____ _____    ______ ____
ROOT
ATOM      1  C   UNL     1       1.968  -3.498   2.308  0.00  0.00    +0.219 C 
ATOM      2  O   UNL     1       1.543  -3.946   1.265  0.00  0.00    -0.275 OA
ATOM      3  N   UNL     1       2.326  -4.333   3.304  0.00  0.00    -0.295 N 
ATOM      4  C   UNL     1       2.942  -3.811   4.533  0.00  0.00    +0.127 C 
ATOM      5  C   UNL     1       4.279  -4.529   4.754  0.00  0.00    +0.126 C 
ATOM      6  N   UNL     1       4.061  -5.977   4.631  0.00  0.00    -0.300 N 
ATOM      7  C   UNL     1       3.446  -6.498   3.403  0.00  0.00    +0.130 C 
ATOM      8  C   UNL     1       2.103  -5.780   3.184  0.00  0.00    +0.090 C 
ATOM      9  C   UNL     1       1.568  -6.103   1.787  0.00  0.00    +0.029 C 
ATOM     10  C   UNL     1       4.419  -6.811   5.627  0.00  0.00    +0.199 C 
ATOM     11  O   UNL     1       4.234  -8.005   5.514  0.00  0.00    -0.278 OA
ENDROOT
BRANCH   1  12
ATOM     12  C   UNL     1       2.097  -2.008   2.492  0.00  0.00    +0.075 C 
BRANCH  12  13
ATOM     13  C   UNL     1       0.983  -1.301   1.717  0.00  0.00    +0.009 C 
ATOM     14  C   UNL     1      -0.373  -1.674   2.319  0.00  0.00    +0.004 C 
ENDBRANCH  12  13
BRANCH  12  15
ATOM     15  C   UNL     1       3.457  -1.545   1.965  0.00  0.00    +0.013 C 
BRANCH  15  16
ATOM     16  C   UNL     1       3.639  -0.055   2.264  0.00  0.00    +0.000 C 
BRANCH  16  18
ATOM     17  C   UNL     1       5.181   1.897   2.036  0.00  0.00    +0.004 C 
ATOM     18  C   UNL     1       4.999   0.408   1.737  0.00  0.00    -0.003 C 
ENDBRANCH  16  18
ENDBRANCH  15  16
ENDBRANCH  12  15
ENDBRANCH   1  12
BRANCH  10  19
ATOM     19  C   UNL     1       5.049  -6.262   6.881  0.00  0.00    +0.020 C 
BRANCH  19  20
ATOM     20  N   UNL     1       5.344  -7.365   7.805  0.00  0.00    +0.393 N 
ATOM     21  C   UNL     1       6.339  -8.256   7.192  0.00  0.00    -0.072 C 
ATOM     22  C   UNL     1       6.398  -9.565   7.998  0.00  0.00    +0.024 C 
ATOM     23  C   UNL     1       6.481  -9.200   9.444  0.00  0.00    -0.010 A 
ATOM     24  C   UNL     1       6.245  -7.970   9.983  0.00  0.00    -0.047 A 
ATOM     25  C   UNL     1       6.388  -7.859  11.363  0.00  0.00    +0.010 A 
ATOM     26  C   UNL     1       6.741  -8.940  12.097  0.00  0.00    +0.045 A 
ATOM     27  S   UNL     1       6.893 -10.204  10.842  0.00  0.00    -0.101 S 
ATOM     28  C   UNL     1       5.846  -6.815   9.069  0.00  0.00    -0.005 C 
ATOM     29  H   UNL     1       4.498  -7.885   7.982  0.00  0.00    -0.080 HD
BRANCH  28  30
ATOM     30  C   UNL     1       4.765  -5.999   9.730  0.00  0.00    -0.057 A 
ATOM     31  C   UNL     1       3.456  -6.443   9.713  0.00  0.00    +0.002 A 
ATOM     32  C   UNL     1       2.464  -5.695  10.319  0.00  0.00    +0.003 A 
ATOM     33  C   UNL     1       2.781  -4.503  10.942  0.00  0.00    -0.050 A 
ATOM     34  C   UNL     1       4.090  -4.059  10.960  0.00  0.00    +0.003 A 
ATOM     35  C   UNL     1       5.083  -4.809  10.358  0.00  0.00    +0.002 A 
ATOM     36  C   UNL     1       1.700  -3.686  11.602  0.00  0.00    +0.044 C 
ENDBRANCH  28  30
ENDBRANCH  19  20
ENDBRANCH  10  19
TORSDOF 8
