REMARK  Name = ZINC10058584
REMARK  15 active torsions:
REMARK  status: ('A' for Active; 'I' for Inactive)
REMARK    1  A    between atoms: C_1  and  C_2
REMARK    2  A    between atoms: C_3  and  C_34
REMARK    3  A    between atoms: C_4  and  C_33
REMARK    4  A    between atoms: C_7  and  C_8
REMARK    5  A    between atoms: C_8  and  C_10
REMARK    6  A    between atoms: C_10  and  C_12
REMARK    7  A    between atoms: C_10  and  S_13
REMARK    8  A    between atoms: S_13  and  C_14
REMARK    9  A    between atoms: N_27  and  C_28
REMARK   10  A    between atoms: C_28  and  C_29
REMARK   11  A    between atoms: C_29  and  C_30
REMARK   12  A    between atoms: C_30  and  C_31
REMARK   13  A    between atoms: C_30  and  C_32
REMARK   14  A    between atoms: C_34  and  O_36
REMARK   15  A    between atoms: O_36  and  C_37
REMARK                            x       y       z     vdW  Elec       q    Type
REMARK                         _______ _______ _______ _____ _____    ______ ____
ROOT
ATOM      1  C   UNL     1       3.855   3.027   5.739  0.00  0.00    +0.198 A 
ATOM      2  N   UNL     1       3.020   3.050   6.749  0.00  0.00    -0.120 NA
ATOM      3  N   UNL     1       3.714   3.508   7.875  0.00  0.00    -0.109 NA
ATOM      4  C   UNL     1       4.953   3.760   7.518  0.00  0.00    +0.240 A 
ATOM      5  N   UNL     1       5.071   3.468   6.186  0.00  0.00    -0.256 N 
ATOM      6  C   UNL     1       6.287   3.641   5.529  0.00  0.00    +0.064 A 
ATOM      7  C   UNL     1       6.418   3.348   4.180  0.00  0.00    +0.027 A 
ATOM      8  C   UNL     1       7.636   3.526   3.553  0.00  0.00    +0.002 A 
ATOM      9  C   UNL     1       8.731   3.998   4.260  0.00  0.00    +0.001 A 
ATOM     10  C   UNL     1       8.619   4.294   5.602  0.00  0.00    +0.015 A 
ATOM     11  C   UNL     1       7.395   4.117   6.246  0.00  0.00    +0.064 A 
ATOM     12  C   UNL     1       7.234   4.422   7.680  0.00  0.00    +0.263 A 
ATOM     13  O   UNL     1       8.173   4.836   8.334  0.00  0.00    -0.267 OA
ATOM     14  N   UNL     1       6.029   4.233   8.254  0.00  0.00    -0.277 N 
ENDROOT
BRANCH   1  15
ATOM     15  S   UNL     1       3.477   2.523   4.094  0.00  0.00    -0.074 S 
BRANCH  15  16
ATOM     16  C   UNL     1       1.724   2.061   4.168  0.00  0.00    +0.124 C 
ATOM     17  C   UNL     1       1.555   0.845   5.080  0.00  0.00    +0.028 C 
BRANCH  16  18
ATOM     18  C   UNL     1       1.235   1.722   2.783  0.00  0.00    +0.192 C 
ATOM     19  O   UNL     1       2.020   1.343   1.938  0.00  0.00    -0.289 OA
BRANCH  18  26
ATOM     20  C   UNL     1      -0.013   1.086   0.008  0.00  0.00    +0.047 C 
ATOM     21  C   UNL     1      -0.718   1.572   1.248  0.00  0.00    -0.008 A 
ATOM     22  C   UNL     1      -2.098   1.839   1.381  0.00  0.00    +0.083 A 
ATOM     23  C   UNL     1      -2.309   2.259   2.683  0.00  0.00    +0.028 A 
ATOM     24  N   UNL     1      -1.134   2.266   3.328  0.00  0.00    -0.355 N 
ATOM     25  H   UNL     1      -1.003   2.524   4.254  0.00  0.00    +0.166 HD
ATOM     26  C   UNL     1      -0.139   1.847   2.468  0.00  0.00    +0.087 A 
ATOM     27  C   UNL     1      -3.638   2.651   3.274  0.00  0.00    +0.064 C 
BRANCH  22  28
ATOM     28  C   UNL     1      -3.121   1.694   0.332  0.00  0.00    +0.341 C 
ATOM     29  O   UNL     1      -3.708   0.638   0.197  0.00  0.00    -0.245 OA
BRANCH  28  30
ATOM     30  O   UNL     1      -3.408   2.732  -0.478  0.00  0.00    -0.464 OA
ATOM     31  C   UNL     1      -4.427   2.518  -1.489  0.00  0.00    +0.280 C 
ENDBRANCH  28  30
ENDBRANCH  22  28
ENDBRANCH  18  26
ENDBRANCH  16  18
ENDBRANCH  15  16
ENDBRANCH   1  15
BRANCH  14  32
ATOM     32  C   UNL     1       5.853   4.531   9.677  0.00  0.00    +0.128 C 
BRANCH  32  33
ATOM     33  C   UNL     1       6.162   3.280  10.502  0.00  0.00    +0.025 C 
BRANCH  33  34
ATOM     34  C   UNL     1       5.979   3.592  11.989  0.00  0.00    -0.016 C 
ATOM     35  C   UNL     1       6.165   2.311  12.805  0.00  0.00    +0.007 C 
ATOM     36  C   UNL     1       7.015   4.630  12.424  0.00  0.00    +0.007 C 
ENDBRANCH  33  34
ENDBRANCH  32  33
ENDBRANCH  14  32
TORSDOF 9
