REMARK  Name = ZINC39961406
REMARK  5 active torsions:
REMARK  status: ('A' for Active; 'I' for Inactive)
REMARK    1  A    between atoms: C_4  and  C_7
REMARK    2  A    between atoms: C_7  and  S_8
REMARK    3  A    between atoms: S_8  and  C_9
REMARK    4  A    between atoms: C_22  and  C_25
REMARK    5  A    between atoms: C_30  and  C_31
REMARK                            x       y       z     vdW  Elec       q    Type
REMARK                         _______ _______ _______ _____ _____    ______ ____
ROOT
ATOM      1  C   UNL     1       5.846  -1.952   1.357  0.00  0.00    +0.213 A 
ATOM      2  N   UNL     1       6.495  -2.345   2.449  0.00  0.00    -0.184 NA
ATOM      3  C   UNL     1       7.677  -2.924   2.325  0.00  0.00    +0.248 A 
ATOM      4  C   UNL     1       8.215  -3.101   1.030  0.00  0.00    +0.156 A 
ATOM      5  N   UNL     1       7.516  -2.689  -0.017  0.00  0.00    -0.141 NA
ATOM      6  N   UNL     1       6.364  -2.137   0.149  0.00  0.00    -0.122 NA
ATOM      7  C   UNL     1       9.542  -3.731   0.871  0.00  0.00    +0.028 A 
ATOM      8  C   UNL     1       9.758  -4.750  -0.049  0.00  0.00    +0.012 A 
ATOM      9  C   UNL     1      11.017  -5.304  -0.177  0.00  0.00    +0.001 A 
ATOM     10  C   UNL     1      12.065  -4.849   0.605  0.00  0.00    +0.002 A 
ATOM     11  C   UNL     1      11.863  -3.839   1.528  0.00  0.00    +0.023 A 
ATOM     12  C   UNL     1      10.607  -3.280   1.673  0.00  0.00    +0.039 A 
ATOM     13  N   UNL     1      10.359  -2.283   2.620  0.00  0.00    -0.308 N 
ATOM     14  C   UNL     1       9.527  -2.603   3.776  0.00  0.00    +0.276 C 
ATOM     15  O   UNL     1       8.373  -3.348   3.407  0.00  0.00    -0.452 OA
ATOM     16  H   UNL     1      10.733  -1.394   2.512  0.00  0.00    +0.150 HD
ENDROOT
BRANCH  14  17
ATOM     17  C   UNL     1      10.351  -3.422   4.772  0.00  0.00    +0.142 C 
ATOM     18  C   UNL     1      10.620  -4.810   4.226  0.00  0.00    +0.122 C 
ATOM     19  N   UNL     1      10.065  -5.635   5.053  0.00  0.00    -0.161 NA
ATOM     20  N   UNL     1       9.439  -4.987   6.112  0.00  0.00    -0.153 NA
ATOM     21  C   UNL     1       9.555  -3.686   6.035  0.00  0.00    +0.084 C 
BRANCH  21  22
ATOM     22  C   UNL     1       9.024  -2.686   6.974  0.00  0.00    -0.001 A 
ATOM     23  C   UNL     1       9.232  -1.323   6.742  0.00  0.00    +0.010 A 
ATOM     24  C   UNL     1       8.731  -0.392   7.627  0.00  0.00    +0.001 A 
ATOM     25  C   UNL     1       8.025  -0.803   8.744  0.00  0.00    +0.000 A 
ATOM     26  C   UNL     1       7.816  -2.150   8.982  0.00  0.00    +0.001 A 
ATOM     27  C   UNL     1       8.304  -3.093   8.102  0.00  0.00    +0.010 A 
ENDBRANCH  21  22
ENDBRANCH  14  17
BRANCH   1  28
ATOM     28  S   UNL     1       4.271  -1.179   1.515  0.00  0.00    -0.080 S 
BRANCH  28  29
ATOM     29  C   UNL     1       3.778  -0.832  -0.196  0.00  0.00    +0.112 C 
BRANCH  29  33
ATOM     30  C   UNL     1      -0.047   1.069  -0.219  0.00  0.00    +0.000 A 
ATOM     31  C   UNL     1       1.103   1.832  -0.150  0.00  0.00    +0.000 A 
ATOM     32  C   UNL     1       2.341   1.217  -0.143  0.00  0.00    +0.004 A 
ATOM     33  C   UNL     1       2.429  -0.161  -0.203  0.00  0.00    -0.037 A 
ATOM     34  C   UNL     1       1.278  -0.924  -0.271  0.00  0.00    +0.004 A 
ATOM     35  C   UNL     1       0.040  -0.309  -0.281  0.00  0.00    +0.000 A 
ENDBRANCH  29  33
ENDBRANCH  28  29
ENDBRANCH   1  28
TORSDOF 5
