REMARK  Name = ZINC16711443
REMARK  12 active torsions:
REMARK  status: ('A' for Active; 'I' for Inactive)
REMARK    1  A    between atoms: C_1  and  C_2
REMARK    2  A    between atoms: C_2  and  C_3
REMARK    3  A    between atoms: C_2  and  C_4
REMARK    4  A    between atoms: C_2  and  C_5
REMARK    5  A    between atoms: C_7  and  C_16
REMARK    6  A    between atoms: C_9  and  C_12
REMARK    7  A    between atoms: C_10  and  O_11
REMARK    8  A    between atoms: C_12  and  C_13
REMARK    9  A    between atoms: C_12  and  C_14
REMARK   10  A    between atoms: C_12  and  C_15
REMARK   11  A    between atoms: N_20  and  C_21
REMARK   12  A    between atoms: N_28  and  C_29
REMARK                            x       y       z     vdW  Elec       q    Type
REMARK                         _______ _______ _______ _____ _____    ______ ____
ROOT
ATOM      1  C   UNL     1       2.223   1.314  -0.170  0.00  0.00    +0.063 A 
ATOM      2  C   UNL     1       2.940   1.431  -1.306  0.00  0.00    +0.075 A 
ATOM      3  S   UNL     1       3.897  -0.076  -1.304  0.00  0.00    -0.057 S 
ATOM      4  C   UNL     1       3.267  -0.769   0.217  0.00  0.00    +0.179 A 
ATOM      5  N   UNL     1       3.574  -1.909   0.804  0.00  0.00    -0.223 NA
ATOM      6  N   UNL     1       2.374   0.202   0.615  0.00  0.00    -0.288 N 
ENDROOT
BRANCH   5   7
ATOM      7  C   UNL     1       4.572  -2.694   0.293  0.00  0.00    +0.067 A 
ATOM      8  C   UNL     1       4.293  -3.608  -0.726  0.00  0.00    +0.029 A 
ATOM      9  C   UNL     1       5.304  -4.393  -1.240  0.00  0.00    +0.022 A 
ATOM     10  C   UNL     1       6.591  -4.283  -0.741  0.00  0.00    +0.041 A 
ATOM     11  C   UNL     1       6.873  -3.382   0.273  0.00  0.00    +0.022 A 
ATOM     12  C   UNL     1       5.872  -2.588   0.792  0.00  0.00    +0.029 A 
ATOM     13 CL   UNL     1       7.857  -5.279  -1.388  0.00  0.00    -0.084 Cl
ENDBRANCH   5   7
BRANCH   6  14
ATOM     14  C   UNL     1       1.637   0.054   1.796  0.00  0.00    +0.049 A 
ATOM     15  C   UNL     1       1.561   1.103   2.704  0.00  0.00    +0.027 A 
ATOM     16  C   UNL     1       0.829   0.957   3.866  0.00  0.00    +0.022 A 
ATOM     17  C   UNL     1       0.181  -0.237   4.132  0.00  0.00    +0.041 A 
ATOM     18  C   UNL     1       0.260  -1.285   3.232  0.00  0.00    +0.022 A 
ATOM     19  C   UNL     1       0.986  -1.142   2.066  0.00  0.00    +0.027 A 
ATOM     20 CL   UNL     1      -0.732  -0.419   5.597  0.00  0.00    -0.084 Cl
ENDBRANCH   6  14
BRANCH   1  23
ATOM     21  C   UNL     1      -0.891   3.039   1.028  0.00  0.00    +0.000 A 
ATOM     22  C   UNL     1      -0.007   2.044   0.667  0.00  0.00    +0.017 A 
ATOM     23  C   UNL     1       1.274   2.377   0.224  0.00  0.00    +0.000 A 
ATOM     24  C   UNL     1       1.656   3.718   0.153  0.00  0.00    +0.017 A 
ATOM     25  C   UNL     1       0.768   4.707   0.521  0.00  0.00    +0.000 A 
ATOM     26  C   UNL     1      -0.505   4.370   0.962  0.00  0.00    +0.124 A 
BRANCH  21  28
ATOM     27  C   UNL     1      -2.442   1.159   1.486  0.00  0.00    +0.015 C 
ATOM     28  C   UNL     1      -2.276   2.680   1.501  0.00  0.00    -0.009 C 
ATOM     29  C   UNL     1      -2.480   3.201   2.925  0.00  0.00    +0.015 C 
ATOM     30  C   UNL     1      -3.313   3.314   0.572  0.00  0.00    +0.015 C 
ENDBRANCH  21  28
BRANCH  25  31
ATOM     31  C   UNL     1       1.181   6.154   0.445  0.00  0.00    -0.009 C 
ATOM     32  C   UNL     1       2.638   6.246  -0.010  0.00  0.00    +0.015 C 
ATOM     33  C   UNL     1       0.286   6.888  -0.556  0.00  0.00    +0.015 C 
ATOM     34  C   UNL     1       1.036   6.798   1.826  0.00  0.00    +0.015 C 
ENDBRANCH  25  31
BRANCH  26  35
ATOM     35  O   UNL     1      -1.377   5.348   1.323  0.00  0.00    -0.506 OA
ATOM     36  H   UNL     1      -1.927   5.672   0.598  0.00  0.00    +0.292 HD
ENDBRANCH  26  35
ENDBRANCH   1  23
TORSDOF 6
