REMARK  Name = ZINC08791687
REMARK  18 active torsions:
REMARK  status: ('A' for Active; 'I' for Inactive)
REMARK    1  A    between atoms: C_1  and  C_2
REMARK    2  A    between atoms: C_2  and  C_3
REMARK    3  A    between atoms: C_2  and  C_4
REMARK    4  A    between atoms: C_4  and  C_5
REMARK    5  A    between atoms: C_5  and  C_7
REMARK    6  A    between atoms: C_5  and  N_29
REMARK    7  A    between atoms: N_9  and  C_10
REMARK    8  A    between atoms: C_10  and  C_11
REMARK    9  A    between atoms: C_15  and  C_19
REMARK   10  A    between atoms: N_21  and  CA_22
REMARK   11  A    between atoms: CA_22  and  CB_24
REMARK   12  A    between atoms: CA_22  and  C_27
REMARK   13  A    between atoms: CB_24  and  CG_25
REMARK   14  A    between atoms: C_30  and  O_32
REMARK   15  A    between atoms: O_32  and  C_33
REMARK   16  A    between atoms: C_33  and  C_34
REMARK   17  A    between atoms: C_33  and  C_35
REMARK   18  A    between atoms: C_33  and  C_36
REMARK                            x       y       z     vdW  Elec       q    Type
REMARK                         _______ _______ _______ _____ _____    ______ ____
ROOT
ATOM      1  C   UNK A   0      -2.880   1.543   2.537  0.00  0.00    +0.107 C 
ENDROOT
BRANCH   1   2
ATOM      2  C   UNK A   0      -2.164   1.050   1.278  0.00  0.00    +0.006 C 
ATOM      3  C   UNK A   0      -0.729   1.579   1.267  0.00  0.00    +0.006 C 
ATOM      4  C   UNK A   0      -0.013   1.086   0.008  0.00  0.00    +0.013 C 
ATOM      5  C   UNK A   0      -0.753   1.593  -1.232  0.00  0.00    +0.075 C 
ATOM      6  C   UNK A   0      -2.188   1.063  -1.221  0.00  0.00    +0.013 C 
ATOM      7  C   UNK A   0      -2.904   1.556   0.038  0.00  0.00    +0.006 C 
BRANCH   5   8
ATOM      8  C   UNK A   0      -0.047   1.107  -2.471  0.00  0.00    +0.217 C 
ATOM      9  O   UNK A   0       0.949   0.422  -2.373  0.00  0.00    -0.275 OA
ATOM     10  N   ASP A   1      -0.524   1.433  -3.689  0.00  0.00    -0.302 N 
ATOM     11  H   ASP A   1      -1.321   1.980  -3.768  0.00  0.00    +0.150 HD
BRANCH  10  12
ATOM     12  CA  ASP A   1       0.162   0.960  -4.895  0.00  0.00    +0.197 C 
BRANCH  12  13
ATOM     13  C   ASP A   1       1.282   1.907  -5.239  0.00  0.00    +0.376 C 
ATOM     14  O   ASP A   1       1.487   2.877  -4.548  0.00  0.00    -0.244 OA
ATOM     15  OXT ASP A   1       2.053   1.673  -6.313  0.00  0.00    -0.244 OA
ENDBRANCH  12  13
BRANCH  12  16
ATOM     16  CB  ASP A   1      -0.832   0.901  -6.057  0.00  0.00    +0.159 C 
BRANCH  16  17
ATOM     17  CG  ASP A   1      -1.885  -0.136  -5.765  0.00  0.00    +0.358 C 
ATOM     18  OD1 ASP A   1      -1.846  -0.764  -4.734  0.00  0.00    -0.246 OA
ATOM     19  OD2 ASP A   1      -2.868  -0.362  -6.651  0.00  0.00    -0.246 OA
ENDBRANCH  16  17
ENDBRANCH  12  16
ENDBRANCH  10  12
ENDBRANCH   5   8
ENDBRANCH   1   2
BRANCH   1  22
ATOM     20  C   UNK A   0      -2.709   1.256   4.950  0.00  0.00    +0.233 C 
ATOM     21  O   UNK A   0      -3.656   2.004   5.077  0.00  0.00    -0.274 OA
ATOM     22  N   UNK A   0      -2.244   0.961   3.720  0.00  0.00    -0.314 N 
ATOM     23  H   UNK A   0      -1.487   0.363   3.619  0.00  0.00    +0.149 HD
BRANCH  20  24
ATOM     24  C   UNK A   0      -2.054   0.658   6.168  0.00  0.00    +0.162 C 
BRANCH  24  25
ATOM     25  N   UNK A   0      -2.740   1.130   7.373  0.00  0.00    -0.270 N 
ATOM     26  C   UNK A   0      -2.700   0.396   8.503  0.00  0.00    +0.401 C 
ATOM     27  O   UNK A   0      -2.095  -0.658   8.522  0.00  0.00    -0.226 OA
ATOM     28  H   UNK A   0      -3.223   1.971   7.359  0.00  0.00    +0.153 HD
BRANCH  26  29
ATOM     29  O   UNK A   0      -3.330   0.830   9.611  0.00  0.00    -0.445 OA
BRANCH  29  30
ATOM     30  C   UNK A   0      -3.245  -0.012  10.790  0.00  0.00    +0.107 C 
ATOM     31  C   UNK A   0      -1.778  -0.181  11.191  0.00  0.00    +0.055 C 
ATOM     32  C   UNK A   0      -4.016   0.641  11.940  0.00  0.00    +0.055 C 
ATOM     33  C   UNK A   0      -3.851  -1.383  10.484  0.00  0.00    +0.055 C 
ENDBRANCH  29  30
ENDBRANCH  26  29
ENDBRANCH  24  25
BRANCH  24  34
ATOM     34  C   UNK A   0      -0.585   1.082   6.218  0.00  0.00    +0.035 C 
BRANCH  34  36
ATOM     35  C   UNK A   0       0.134  -1.132   7.124  0.00  0.00    +0.007 C 
ATOM     36  C   UNK A   0       0.111   0.376   7.383  0.00  0.00    -0.015 C 
ATOM     37  C   UNK A   0       1.545   0.893   7.509  0.00  0.00    +0.007 C 
ENDBRANCH  34  36
ENDBRANCH  24  34
ENDBRANCH  20  24
ENDBRANCH   1  22
TORSDOF 13
