REMARK  Name = ZINC03200201
REMARK  6 active torsions:
REMARK  status: ('A' for Active; 'I' for Inactive)
REMARK    1  A    between atoms: C_1  and  O_2
REMARK    2  A    between atoms: O_2  and  C_3
REMARK    3  A    between atoms: C_6  and  C_9
REMARK    4  A    between atoms: C_16  and  C_17
REMARK    5  A    between atoms: C_17  and  N_19
REMARK    6  A    between atoms: C_20  and  C_22
REMARK                            x       y       z     vdW  Elec       q    Type
REMARK                         _______ _______ _______ _____ _____    ______ ____
ROOT
ATOM      1  C   UNL     1       5.056   3.819   0.323  0.00  0.00    +0.015 A 
ATOM      2  C   UNL     1       3.812   4.422   0.342  0.00  0.00    +0.004 A 
ATOM      3  C   UNL     1       2.901   3.422   0.082  0.00  0.00    +0.123 A 
ATOM      4  N   UNL     1       1.535   3.371  -0.053  0.00  0.00    -0.323 N 
ATOM      5  C   UNL     1       1.210   2.042   0.002  0.00  0.00    +0.106 A 
ATOM      6  C   UNL     1       2.424   1.309   0.005  0.00  0.00    +0.075 A 
ATOM      7  N   UNL     1       3.479   2.208   0.054  0.00  0.00    -0.291 N 
ATOM      8  C   UNL     1       4.846   2.440   0.113  0.00  0.00    +0.085 A 
ATOM      9  C   UNL     1       2.420  -0.080  -0.013  0.00  0.00    +0.031 A 
ATOM     10  C   UNL     1       1.188  -0.716  -0.013  0.00  0.00    +0.043 A 
ATOM     11  C   UNL     1       0.002  -0.004   0.002  0.00  0.00    +0.161 A 
ATOM     12  C   UNL     1      -0.017   1.385   0.010  0.00  0.00    +0.184 A 
ATOM     13  F   UNL     1      -1.180   2.072   0.019  0.00  0.00    -0.200 F 
ATOM     14  F   UNL     1      -1.169  -0.678   0.011  0.00  0.00    -0.202 F 
ATOM     15  C   UNL     1       0.746   4.588  -0.336  0.00  0.00    +0.124 C 
ATOM     16  C   UNL     1       1.581   5.428  -1.311  0.00  0.00    +0.022 C 
ATOM     17  C   UNL     1       2.640   6.344  -0.682  0.00  0.00    +0.006 C 
ATOM     18  C   UNL     1       3.292   5.814   0.584  0.00  0.00    +0.039 C 
ENDROOT
BRANCH   1  22
ATOM     19  C   UNL     1       8.808   5.756   0.812  0.00  0.00    +0.120 A 
ATOM     20  C   UNL     1       8.374   4.838   1.759  0.00  0.00    +0.046 A 
ATOM     21  C   UNL     1       7.158   4.208   1.604  0.00  0.00    +0.012 A 
ATOM     22  C   UNL     1       6.363   4.494   0.494  0.00  0.00    -0.015 A 
ATOM     23  C   UNL     1       6.805   5.413  -0.459  0.00  0.00    +0.012 A 
ATOM     24  C   UNL     1       8.019   6.043  -0.294  0.00  0.00    +0.046 A 
BRANCH  19  26
ATOM     25  C   UNL     1      10.393   7.309  -0.044  0.00  0.00    +0.277 C 
ATOM     26  O   UNL     1      10.008   6.375   0.968  0.00  0.00    -0.495 OA
ENDBRANCH  19  26
ENDBRANCH   1  22
BRANCH   8  27
ATOM     27  C   UNL     1       5.854   1.463  -0.015  0.00  0.00    +0.103 C 
ATOM     28  S   UNL     1       5.430  -0.176  -0.268  0.00  0.00    -0.033 S 
BRANCH  27  29
ATOM     29  N   UNL     1       7.152   1.819   0.061  0.00  0.00    -0.271 N 
ATOM     30  C   UNL     1       8.116   0.885  -0.061  0.00  0.00    +0.284 C 
ATOM     31  O   UNL     1       7.814  -0.280  -0.240  0.00  0.00    -0.266 OA
ATOM     32  H   UNL     1       7.392   2.748   0.204  0.00  0.00    +0.156 HD
BRANCH  30  33
ATOM     33  C   UNL     1       9.527   1.273   0.022  0.00  0.00    +0.189 A 
ATOM     34  C   UNL     1      10.598   0.432  -0.085  0.00  0.00    +0.054 A 
ATOM     35  C   UNL     1      11.748   1.224   0.054  0.00  0.00    +0.042 A 
ATOM     36  C   UNL     1      11.334   2.498   0.237  0.00  0.00    +0.196 A 
ATOM     37  O   UNL     1       9.995   2.524   0.211  0.00  0.00    -0.458 OA
ENDBRANCH  30  33
ENDBRANCH  27  29
ENDBRANCH   8  27
TORSDOF 5
