REMARK  Name = ZINC02637993
REMARK  8 active torsions:
REMARK  status: ('A' for Active; 'I' for Inactive)
REMARK    1  A    between atoms: C_1  and  C_2
REMARK    2  A    between atoms: C_5  and  S_8
REMARK    3  A    between atoms: S_8  and  N_11
REMARK    4  A    between atoms: C_12  and  C_14
REMARK    5  A    between atoms: C_16  and  C_31
REMARK    6  A    between atoms: N_17  and  C_20
REMARK    7  A    between atoms: C_18  and  C_19
REMARK    8  A    between atoms: C_24  and  C_26
REMARK                            x       y       z     vdW  Elec       q    Type
REMARK                         _______ _______ _______ _____ _____    ______ ____
ROOT
ATOM      1  C   UNL     1       0.672   3.490   0.014  0.00  0.00    +0.059 A 
ATOM      2  C   UNL     1      -0.794   3.462   0.028  0.00  0.00    +0.036 A 
ATOM      3  C   UNL     1      -1.149   2.164   0.019  0.00  0.00    +0.022 A 
ATOM      4  N   UNL     1      -0.017   1.398   0.010  0.00  0.00    -0.317 N 
ATOM      5  C   UNL     1       1.079   2.184   0.004  0.00  0.00    +0.033 A 
ATOM      6  C   UNL     1       2.508   1.706  -0.013  0.00  0.00    +0.064 C 
ATOM      7  C   UNL     1      -2.562   1.641   0.021  0.00  0.00    +0.064 C 
ENDROOT
BRANCH   4   8
ATOM      8  C   UNL     1       0.002  -0.004   0.002  0.00  0.00    +0.047 A 
ATOM      9  C   UNL     1       0.530  -0.698   1.083  0.00  0.00    +0.027 A 
ATOM     10  C   UNL     1       0.547  -2.079   1.073  0.00  0.00    +0.022 A 
ATOM     11  C   UNL     1       0.040  -2.771  -0.013  0.00  0.00    +0.053 A 
ATOM     12  C   UNL     1      -0.486  -2.081  -1.091  0.00  0.00    +0.075 A 
ATOM     13  C   UNL     1      -0.512  -0.700  -1.083  0.00  0.00    +0.040 A 
ATOM     14 CL   UNL     1       0.065  -4.507  -0.024  0.00  0.00    -0.083 Cl
BRANCH  12  15
ATOM     15  C   UNL     1      -1.038  -2.838  -2.272  0.00  0.00    +0.419 C 
ATOM     16  F   UNL     1      -1.510  -1.931  -3.228  0.00  0.00    -0.166 F 
ATOM     17  F   UNL     1      -0.028  -3.625  -2.835  0.00  0.00    -0.166 F 
ATOM     18  F   UNL     1      -2.089  -3.659  -1.850  0.00  0.00    -0.166 F 
ENDBRANCH  12  15
ENDBRANCH   4   8
BRANCH   1  20
ATOM     19  N   UNL     1       0.981   5.914   0.025  0.00  0.00    -0.181 N 
ATOM     20  C   UNL     1       1.534   4.685   0.013  0.00  0.00    +0.265 C 
ATOM     21  O   UNL     1       2.744   4.562   0.002  0.00  0.00    -0.269 OA
ATOM     22  H   UNL     1       0.016   6.012   0.034  0.00  0.00    +0.177 HD
BRANCH  19  23
ATOM     23  S   UNL     1       1.950   7.257   0.024  0.00  0.00    +0.075 S 
ATOM     24  O   UNL     1       1.083   8.383   0.011  0.00  0.00    -0.150 OA
ATOM     25  O   UNL     1       2.923   7.057   1.040  0.00  0.00    -0.150 OA
BRANCH  23  30
ATOM     26  C   UNL     1       4.922   7.309  -5.226  0.00  0.00    +0.044 C 
ATOM     27  C   UNL     1       4.180   7.296  -3.915  0.00  0.00    -0.050 A 
ATOM     28  C   UNL     1       2.954   7.927  -3.808  0.00  0.00    +0.005 A 
ATOM     29  C   UNL     1       2.273   7.915  -2.605  0.00  0.00    +0.029 A 
ATOM     30  C   UNL     1       2.818   7.272  -1.509  0.00  0.00    +0.109 A 
ATOM     31  C   UNL     1       4.045   6.645  -1.615  0.00  0.00    +0.029 A 
ATOM     32  C   UNL     1       4.724   6.654  -2.819  0.00  0.00    +0.005 A 
ENDBRANCH  23  30
ENDBRANCH  19  23
ENDBRANCH   1  20
TORSDOF 5
