REMARK  Name = ZINC40227132
REMARK  3 active torsions:
REMARK  status: ('A' for Active; 'I' for Inactive)
REMARK    1  A    between atoms: C_4  and  N_19
REMARK    2  A    between atoms: C_5  and  N_7
REMARK    3  A    between atoms: N_7  and  C_8
REMARK                            x       y       z     vdW  Elec       q    Type
REMARK                         _______ _______ _______ _____ _____    ______ ____
ROOT
ATOM      1  N   UNL     1       1.250  -2.028   0.517  0.00  0.00    -0.335 N 
ATOM      2  H   UNL     1       2.099  -2.490   0.587  0.00  0.00    +0.147 HD
ENDROOT
BRANCH   1   3
ATOM      3  C   UNL     1      -0.003  -2.768   0.685  0.00  0.00    +0.101 C 
ATOM      4  C   UNL     1       0.237  -4.046   1.516  0.00  0.00    +0.031 C 
ATOM      5  C   UNL     1       0.506  -5.104   0.425  0.00  0.00    +0.037 C 
ATOM      6  C   UNL     1      -0.217  -4.598  -0.805  0.00  0.00    -0.041 A 
ATOM      7  C   UNL     1      -0.511  -3.253  -0.655  0.00  0.00    -0.024 A 
ATOM      8  C   UNL     1      -1.175  -2.574  -1.663  0.00  0.00    +0.007 A 
ATOM      9  C   UNL     1      -1.546  -3.233  -2.818  0.00  0.00    +0.015 A 
ATOM     10  C   UNL     1      -1.254  -4.576  -2.971  0.00  0.00    +0.018 A 
ATOM     11  C   UNL     1      -0.589  -5.260  -1.962  0.00  0.00    +0.019 A 
ATOM     12 BR   UNL     1      -1.761  -5.482  -4.551  0.00  0.00    -0.050 Br
ENDBRANCH   1   3
BRANCH   1  17
ATOM     13  C   UNL     1      -0.011   1.387   0.014  0.00  0.00    +0.002 A 
ATOM     14  C   UNL     1       1.165   2.061  -0.265  0.00  0.00    +0.002 A 
ATOM     15  C   UNL     1       2.368   1.380  -0.285  0.00  0.00    +0.034 A 
ATOM     16  C   UNL     1       2.400   0.024  -0.026  0.00  0.00    +0.147 A 
ATOM     17  C   UNL     1       1.221  -0.656   0.255  0.00  0.00    +0.058 A 
ATOM     18  C   UNL     1       0.014   0.032   0.274  0.00  0.00    +0.025 A 
BRANCH  16  19
ATOM     19  N   UNL     1       3.688  -0.705  -0.048  0.00  0.00    +0.058 N 
ATOM     20  O   UNL     1       4.689  -0.175   0.376  0.00  0.00    -0.126 OA
ATOM     21  O   UNL     1       3.739  -1.829  -0.489  0.00  0.00    -0.126 OA
ENDBRANCH  16  19
ENDBRANCH   1  17
TORSDOF 3
