REMARK  Name = ZINC35993395
REMARK  10 active torsions:
REMARK  status: ('A' for Active; 'I' for Inactive)
REMARK    1  A    between atoms: C_1  and  C_2
REMARK    2  A    between atoms: C_2  and  O_3
REMARK    3  A    between atoms: O_3  and  C_4
REMARK    4  A    between atoms: C_4  and  C_6
REMARK    5  A    between atoms: C_7  and  C_22
REMARK    6  A    between atoms: N_8  and  C_21
REMARK    7  A    between atoms: C_12  and  C_14
REMARK    8  A    between atoms: C_19  and  C_20
REMARK    9  A    between atoms: C_22  and  N_23
REMARK   10  A    between atoms: C_30  and  C_32
REMARK                            x       y       z     vdW  Elec       q    Type
REMARK                         _______ _______ _______ _____ _____    ______ ____
ROOT
ATOM      1  C   UNL     1       1.870  -2.539  -2.418  0.00  0.00    +0.076 C 
ATOM      2  C   UNL     1       1.835  -3.880  -2.573  0.00  0.00    +0.010 C 
ATOM      3  N   UNL     1       2.657  -4.509  -3.464  0.00  0.00    -0.264 N 
ATOM      4  C   UNL     1       3.542  -3.868  -4.237  0.00  0.00    +0.307 C 
ATOM      5  O   UNL     1       4.232  -4.514  -5.002  0.00  0.00    -0.252 OA
ATOM      6  N   UNL     1       3.693  -2.529  -4.197  0.00  0.00    -0.288 N 
ATOM      7  C   UNL     1       2.847  -1.756  -3.271  0.00  0.00    +0.144 C 
ATOM      8  C   UNL     1       2.567  -5.966  -3.579  0.00  0.00    +0.139 C 
ATOM      9  H   UNL     1       4.341  -2.084  -4.766  0.00  0.00    +0.151 HD
ENDROOT
BRANCH   7  10
ATOM     10  C   UNL     1       3.758  -0.989  -2.348  0.00  0.00    -0.020 A 
ATOM     11  C   UNL     1       3.898  -1.383  -1.031  0.00  0.00    +0.006 A 
ATOM     12  C   UNL     1       4.734  -0.679  -0.184  0.00  0.00    +0.000 A 
ATOM     13  C   UNL     1       5.429   0.419  -0.655  0.00  0.00    +0.000 A 
ATOM     14  C   UNL     1       5.290   0.813  -1.972  0.00  0.00    +0.004 A 
ATOM     15  C   UNL     1       4.457   0.106  -2.820  0.00  0.00    -0.045 A 
ATOM     16  C   UNL     1       4.309   0.532  -4.258  0.00  0.00    +0.044 C 
ENDBRANCH   7  10
BRANCH   1  17
ATOM     17  C   UNL     1       1.018  -1.887  -1.496  0.00  0.00    +0.339 C 
ATOM     18  O   UNL     1       0.260  -2.538  -0.803  0.00  0.00    -0.245 OA
BRANCH  17  19
ATOM     19  O   UNL     1       1.047  -0.542  -1.385  0.00  0.00    -0.462 OA
BRANCH  19  21
ATOM     20  C   UNL     1       0.499   1.549  -0.306  0.00  0.00    +0.048 C 
ATOM     21  C   UNL     1       0.246   0.041  -0.356  0.00  0.00    +0.229 C 
ENDBRANCH  19  21
ENDBRANCH  17  19
ENDBRANCH   1  17
BRANCH   2  22
ATOM     22  C   UNL     1       0.874  -4.697  -1.748  0.00  0.00    -0.026 C 
BRANCH  22  23
ATOM     23  N   UNL     1      -0.462  -4.643  -2.356  0.00  0.00    +0.384 N 
ATOM     24  C   UNL     1      -1.423  -5.205  -1.410  0.00  0.00    -0.077 C 
ATOM     25  C   UNL     1      -2.772  -4.555  -1.622  0.00  0.00    +0.000 C 
ATOM     26  C   UNL     1      -3.607  -5.412  -2.591  0.00  0.00    +0.106 C 
ATOM     27  N   UNL     1      -2.770  -5.945  -3.685  0.00  0.00    -0.299 N 
ATOM     28  C   UNL     1      -1.759  -5.146  -4.346  0.00  0.00    +0.089 C 
ATOM     29  C   UNL     1      -0.408  -5.294  -3.608  0.00  0.00    -0.059 C 
ATOM     30  C   UNL     1      -2.954  -7.219  -4.083  0.00  0.00    +0.247 C 
ATOM     31  O   UNL     1      -2.211  -7.711  -4.909  0.00  0.00    -0.270 OA
ATOM     32  H   UNL     1      -0.701  -3.674  -2.511  0.00  0.00    -0.081 HD
BRANCH  30  33
ATOM     33  C   UNL     1      -4.059  -8.018  -3.514  0.00  0.00    +0.037 A 
ATOM     34  C   UNL     1      -5.304  -7.430  -3.285  0.00  0.00    +0.016 A 
ATOM     35  C   UNL     1      -6.332  -8.180  -2.754  0.00  0.00    +0.039 A 
ATOM     36  C   UNL     1      -6.130  -9.517  -2.446  0.00  0.00    +0.123 A 
ATOM     37  C   UNL     1      -4.895 -10.106  -2.671  0.00  0.00    +0.039 A 
ATOM     38  C   UNL     1      -3.863  -9.367  -3.207  0.00  0.00    +0.016 A 
ATOM     39  F   UNL     1      -7.139 -10.247  -1.925  0.00  0.00    -0.205 F 
ENDBRANCH  30  33
ENDBRANCH  22  23
ENDBRANCH   2  22
TORSDOF 7
