REMARK  Name = ZINC08793065
REMARK  10 active torsions:
REMARK  status: ('A' for Active; 'I' for Inactive)
REMARK    1  A    between atoms: C_1  and  C_2
REMARK    2  A    between atoms: C_2  and  O_3
REMARK    3  A    between atoms: O_3  and  C_4
REMARK    4  A    between atoms: C_4  and  C_6
REMARK    5  A    between atoms: C_10  and  N_11
REMARK    6  A    between atoms: C_12  and  C_14
REMARK    7  A    between atoms: C_16  and  C_24
REMARK    8  A    between atoms: C_32  and  C_33
REMARK    9  A    between atoms: C_32  and  C_34
REMARK   10  A    between atoms: C_32  and  N_62
REMARK                            x       y       z     vdW  Elec       q    Type
REMARK                         _______ _______ _______ _____ _____    ______ ____
ROOT
ATOM      1  N   UNL     1       0.002  -0.004   0.016  0.00  0.00    -0.275 N 
ATOM      2  C   UNL     1      -1.156  -0.694   0.009  0.00  0.00    +0.249 C 
ATOM      3  O   UNL     1      -2.217  -0.100   0.010  0.00  0.00    -0.270 OA
ATOM      4  H   UNL     1       0.849  -0.478   0.015  0.00  0.00    +0.156 HD
ENDROOT
BRANCH   1   9
ATOM      5  C   UNL     1       1.061   2.259   0.031  0.00  0.00    +0.091 A 
ATOM      6  C   UNL     1       0.765   3.679   0.037  0.00  0.00    -0.025 A 
ATOM      7  C   UNL     1      -0.550   3.995   0.036  0.00  0.00    -0.021 A 
ATOM      8  S   UNL     1      -1.389   2.438   0.018  0.00  0.00    -0.079 S 
ATOM      9  C   UNL     1      -0.017   1.380   0.024  0.00  0.00    +0.086 A 
ATOM     10  C   UNL     1      -1.132   5.374   0.043  0.00  0.00    -0.035 C 
ATOM     11  C   UNL     1       1.142   6.087  -0.392  0.00  0.00    -0.073 C 
ATOM     12  C   UNL     1       1.817   4.782   0.042  0.00  0.00    +0.018 C 
ATOM     13  N   UNL     1      -0.058   6.318   0.438  0.00  0.00    +0.384 N 
ATOM     14  H   UNL     1       0.182   6.159   1.423  0.00  0.00    -0.081 HD
BRANCH  13  15
ATOM     15  C   UNL     1      -0.524   7.712   0.276  0.00  0.00    -0.074 C 
ATOM     16  C   UNL     1      -0.909   7.981  -1.180  0.00  0.00    -0.014 C 
ATOM     17  C   UNL     1      -1.742   7.936   1.175  0.00  0.00    -0.014 C 
ENDBRANCH  13  15
BRANCH   5  18
ATOM     18  C   UNL     1       2.441   1.769   0.033  0.00  0.00    +0.342 C 
ATOM     19  O   UNL     1       3.017   1.571  -1.020  0.00  0.00    -0.245 OA
BRANCH  18  20
ATOM     20  O   UNL     1       3.074   1.538   1.201  0.00  0.00    -0.461 OA
BRANCH  20  22
ATOM     21  C   UNL     1       4.988   0.852   2.541  0.00  0.00    +0.048 C 
ATOM     22  C   UNL     1       4.441   1.054   1.127  0.00  0.00    +0.229 C 
ENDBRANCH  20  22
ENDBRANCH  18  20
ENDBRANCH   5  18
ENDBRANCH   1   9
BRANCH   2  23
ATOM     23  C   UNL     1      -1.136  -2.172   0.001  0.00  0.00    +0.048 A 
ATOM     24  C   UNL     1       0.053  -2.876  -0.117  0.00  0.00    +0.042 A 
ATOM     25  C   UNL     1       0.025  -4.281  -0.116  0.00  0.00    +0.079 A 
ATOM     26  N   UNL     1      -1.100  -4.963  -0.015  0.00  0.00    -0.246 NA
ATOM     27  C   UNL     1      -2.287  -4.365   0.098  0.00  0.00    +0.072 A 
ATOM     28  C   UNL     1      -2.371  -2.950   0.112  0.00  0.00    +0.013 A 
ATOM     29  C   UNL     1      -3.618  -2.328   0.230  0.00  0.00    +0.011 A 
ATOM     30  C   UNL     1      -4.744  -3.090   0.331  0.00  0.00    +0.001 A 
ATOM     31  C   UNL     1      -4.668  -4.481   0.318  0.00  0.00    +0.002 A 
ATOM     32  C   UNL     1      -3.471  -5.118   0.204  0.00  0.00    +0.028 A 
BRANCH  25  33
ATOM     33  C   UNL     1       1.297  -5.019  -0.236  0.00  0.00    +0.038 A 
ATOM     34  C   UNL     1       1.512  -6.373  -0.257  0.00  0.00    +0.017 A 
ATOM     35  C   UNL     1       2.801  -6.837  -0.383  0.00  0.00    +0.008 A 
ATOM     36  C   UNL     1       3.821  -5.942  -0.473  0.00  0.00    +0.046 A 
ATOM     37  S   UNL     1       2.958  -4.382  -0.386  0.00  0.00    -0.095 S 
ENDBRANCH  25  33
ENDBRANCH   2  23
TORSDOF 7
