REMARK  Name = ZINC36498360
REMARK  11 active torsions:
REMARK  status: ('A' for Active; 'I' for Inactive)
REMARK    1  A    between atoms: C_1  and  C_2
REMARK    2  A    between atoms: C_2  and  C_3
REMARK    3  A    between atoms: C_2  and  C_4
REMARK    4  A    between atoms: C_2  and  N_5
REMARK    5  A    between atoms: C_6  and  C_8
REMARK    6  A    between atoms: C_8  and  C_10
REMARK    7  A    between atoms: C_8  and  N_20
REMARK    8  A    between atoms: C_13  and  C_16
REMARK    9  A    between atoms: N_20  and  C_21
REMARK   10  A    between atoms: C_21  and  C_22
REMARK   11  A    between atoms: C_27  and  C_29
REMARK                            x       y       z     vdW  Elec       q    Type
REMARK                         _______ _______ _______ _____ _____    ______ ____
ROOT
ATOM      1  C   UNL     1       2.637  -0.618  -2.628  0.00  0.00    +0.193 C 
ENDROOT
BRANCH   1   2
ATOM      2  C   UNL     1       2.537  -2.121  -2.597  0.00  0.00    -0.018 A 
ATOM      3  C   UNL     1       3.384  -2.853  -1.786  0.00  0.00    +0.006 A 
ATOM      4  C   UNL     1       3.293  -4.232  -1.757  0.00  0.00    +0.013 A 
ATOM      5  C   UNL     1       2.355  -4.879  -2.539  0.00  0.00    +0.055 A 
ATOM      6  C   UNL     1       1.508  -4.147  -3.350  0.00  0.00    +0.013 A 
ATOM      7  C   UNL     1       1.596  -2.768  -3.376  0.00  0.00    +0.006 A 
BRANCH   5   8
ATOM      8  C   UNL     1       2.257  -6.383  -2.509  0.00  0.00    +0.417 C 
ATOM      9  F   UNL     1       1.352  -6.771  -1.515  0.00  0.00    -0.166 F 
ATOM     10  F   UNL     1       1.811  -6.846  -3.752  0.00  0.00    -0.166 F 
ATOM     11  F   UNL     1       3.515  -6.927  -2.232  0.00  0.00    -0.166 F 
ENDBRANCH   5   8
ENDBRANCH   1   2
BRANCH   1  13
ATOM     12  N   UNL     1       0.649   0.694  -1.961  0.00  0.00    -0.309 N 
ATOM     13  C   UNL     1       1.720  -0.032  -1.585  0.00  0.00    +0.239 C 
ATOM     14  O   UNL     1       1.947  -0.214  -0.408  0.00  0.00    -0.273 OA
ATOM     15  H   UNL     1       0.468   0.840  -2.903  0.00  0.00    +0.149 HD
BRANCH  12  17
ATOM     16  C   UNL     1       0.550   2.213  -0.046  0.00  0.00    +0.031 C 
ATOM     17  C   UNL     1      -0.242   1.264  -0.947  0.00  0.00    +0.026 C 
ATOM     18  C   UNL     1      -0.838   0.137  -0.101  0.00  0.00    +0.031 C 
ATOM     19  C   UNL     1      -1.370   2.036  -1.635  0.00  0.00    +0.031 C 
ENDBRANCH  12  17
ENDBRANCH   1  13
BRANCH   1  20
ATOM     20  N   UNL     1       4.017  -0.213  -2.348  0.00  0.00    -0.272 N 
ATOM     21  C   UNL     1       5.013  -0.603  -3.169  0.00  0.00    +0.283 C 
ATOM     22  O   UNL     1       6.172  -0.414  -2.850  0.00  0.00    -0.267 OA
BRANCH  21  23
ATOM     23  C   UNL     1       4.699  -1.253  -4.445  0.00  0.00    +0.189 A 
ATOM     24  C   UNL     1       5.598  -1.840  -5.289  0.00  0.00    +0.054 A 
ATOM     25  C   UNL     1       4.866  -2.331  -6.381  0.00  0.00    +0.042 A 
ATOM     26  C   UNL     1       3.568  -2.026  -6.159  0.00  0.00    +0.196 A 
ATOM     27  O   UNL     1       3.471  -1.381  -4.989  0.00  0.00    -0.458 OA
ENDBRANCH  21  23
BRANCH  20  28
ATOM     28  C   UNL     1       4.314   0.614  -1.176  0.00  0.00    +0.183 C 
BRANCH  28  29
ATOM     29  C   UNL     1       4.723  -0.272  -0.027  0.00  0.00    +0.122 A 
ATOM     30  C   UNL     1       5.979  -0.658   0.261  0.00  0.00    +0.046 A 
ATOM     31  C   UNL     1       5.902  -1.475   1.412  0.00  0.00    +0.041 A 
ATOM     32  C   UNL     1       4.604  -1.540   1.758  0.00  0.00    +0.195 A 
ATOM     33  O   UNL     1       3.895  -0.804   0.887  0.00  0.00    -0.466 OA
ENDBRANCH  28  29
ENDBRANCH  20  28
ENDBRANCH   1  20
TORSDOF 8
