REMARK  Name = ZINC10025535
REMARK  8 active torsions:
REMARK  status: ('A' for Active; 'I' for Inactive)
REMARK    1  A    between atoms: C_1  and  N_61
REMARK    2  A    between atoms: C_2  and  C_3
REMARK    3  A    between atoms: C_2  and  N_61
REMARK    4  A    between atoms: C_15  and  C_16
REMARK    5  A    between atoms: C_15  and  N_61
REMARK    6  A    between atoms: N_18  and  N_19
REMARK    7  A    between atoms: C_22  and  C_26
REMARK    8  A    between atoms: C_22  and  C_32
REMARK                            x       y       z     vdW  Elec       q    Type
REMARK                         _______ _______ _______ _____ _____    ______ ____
ROOT
ATOM      1  C   UNL     1       2.058   7.644  -2.150  0.00  0.00    +0.213 C 
ATOM      2  O   UNL     1       1.263   8.096  -1.352  0.00  0.00    -0.276 OA
ATOM      3  N   UNL     1       3.095   8.397  -2.568  0.00  0.00    -0.225 N 
ATOM      4  H   UNL     1       3.730   8.036  -3.206  0.00  0.00    +0.173 HD
ENDROOT
BRANCH   3   5
ATOM      5  N   UNL     1       3.255   9.701  -2.082  0.00  0.00    -0.137 N 
ATOM      6  C   UNL     1       2.983  10.813  -2.793  0.00  0.00    +0.272 C 
ATOM      7  O   UNL     1       2.570  10.871  -3.931  0.00  0.00    -0.270 OA
ATOM      8  C   UNL     1       3.300  11.975  -1.873  0.00  0.00    +0.165 C 
ATOM      9  N   UNL     1       3.764  11.322  -0.637  0.00  0.00    -0.276 N 
ATOM     10  C   UNL     1       3.702   9.996  -0.855  0.00  0.00    +0.327 C 
ATOM     11  O   UNL     1       4.016   9.160  -0.031  0.00  0.00    -0.251 OA
ATOM     12  H   UNL     1       4.058  11.762   0.176  0.00  0.00    +0.152 HD
BRANCH   8  13
ATOM     13  C   UNL     1       2.066  12.798  -1.607  0.00  0.00    -0.011 A 
ATOM     14  C   UNL     1       1.729  13.139  -0.311  0.00  0.00    +0.006 A 
ATOM     15  C   UNL     1       0.599  13.898  -0.067  0.00  0.00    +0.000 A 
ATOM     16  C   UNL     1      -0.198  14.308  -1.119  0.00  0.00    +0.000 A 
ATOM     17  C   UNL     1       0.137  13.963  -2.415  0.00  0.00    +0.000 A 
ATOM     18  C   UNL     1       1.269  13.208  -2.659  0.00  0.00    +0.006 A 
ENDBRANCH   8  13
BRANCH   8  19
ATOM     19  C   UNL     1       4.391  12.833  -2.461  0.00  0.00    -0.011 A 
ATOM     20  C   UNL     1       4.266  13.326  -3.746  0.00  0.00    +0.006 A 
ATOM     21  C   UNL     1       5.265  14.116  -4.283  0.00  0.00    +0.000 A 
ATOM     22  C   UNL     1       6.393  14.406  -3.538  0.00  0.00    +0.000 A 
ATOM     23  C   UNL     1       6.520  13.909  -2.255  0.00  0.00    +0.000 A 
ATOM     24  C   UNL     1       5.519  13.123  -1.716  0.00  0.00    +0.006 A 
ENDBRANCH   8  19
ENDBRANCH   3   5
BRANCH   1  25
ATOM     25  C   UNL     1       1.885   6.242  -2.673  0.00  0.00    +0.020 C 
BRANCH  25  27
ATOM     26  C   UNL     1       0.868   5.451  -0.623  0.00  0.00    -0.095 C 
ATOM     27  N   UNL     1       0.668   5.655  -2.073  0.00  0.00    +0.388 N 
ATOM     28  H   UNL     1      -0.117   6.301  -2.214  0.00  0.00    -0.081 HD
BRANCH  27  29
ATOM     29  C   UNL     1       0.354   4.367  -2.725  0.00  0.00    -0.003 C 
BRANCH  29  30
ATOM     30  C   UNL     1      -1.000   3.901  -2.255  0.00  0.00    +0.094 A 
ATOM     31  N   UNL     1      -1.489   2.736  -2.752  0.00  0.00    -0.312 N 
ATOM     32  H   UNL     1      -0.966   2.229  -3.394  0.00  0.00    +0.170 HD
ATOM     33  C   UNL     1      -2.700   2.274  -2.362  0.00  0.00    +0.259 A 
ATOM     34  O   UNL     1      -3.151   1.232  -2.800  0.00  0.00    -0.267 OA
ATOM     35  C   UNL     1      -3.453   3.085  -1.393  0.00  0.00    +0.065 A 
ATOM     36  C   UNL     1      -4.705   2.696  -0.922  0.00  0.00    +0.015 A 
ATOM     37  C   UNL     1      -5.364   3.491  -0.010  0.00  0.00    +0.001 A 
ATOM     38  C   UNL     1      -4.788   4.669   0.447  0.00  0.00    +0.002 A 
ATOM     39  C   UNL     1      -3.549   5.068  -0.001  0.00  0.00    +0.028 A 
ATOM     40  C   UNL     1      -2.861   4.279  -0.926  0.00  0.00    +0.078 A 
ATOM     41  N   UNL     1      -1.638   4.634  -1.395  0.00  0.00    -0.236 NA
ENDBRANCH  29  30
ENDBRANCH  27  29
ENDBRANCH  25  27
ENDBRANCH   1  25
TORSDOF 7
