REMARK  Name = ZINC09431548
REMARK  10 active torsions:
REMARK  status: ('A' for Active; 'I' for Inactive)
REMARK    1  A    between atoms: C_1  and  C_2
REMARK    2  A    between atoms: C_2  and  C_4
REMARK    3  A    between atoms: C_2  and  N_28
REMARK    4  A    between atoms: N_6  and  CA_7
REMARK    5  A    between atoms: CA_14  and  C_26
REMARK    6  A    between atoms: C_15  and  C_18
REMARK    7  A    between atoms: C_18  and  S_19
REMARK    8  A    between atoms: S_19  and  C_20
REMARK    9  A    between atoms: N_24  and  C_25
REMARK   10  A    between atoms: C_30  and  N_33
REMARK                            x       y       z     vdW  Elec       q    Type
REMARK                         _______ _______ _______ _____ _____    ______ ____
ROOT
ATOM      1  CA  UNL     1      -9.503   1.043  -1.649  0.00  0.00    +0.191 C 
ATOM      2  C   UNL     1      -8.084   1.585  -1.792  0.00  0.00    +0.169 C 
ATOM      3  N   UNL     1      -7.798   0.841  -0.524  0.00  0.00    -0.249 N 
ATOM      4  C   UNL     1      -8.967   0.177  -0.521  0.00  0.00    +0.244 C 
ATOM      5  O   UNL     1      -9.416  -0.746   0.125  0.00  0.00    -0.273 OA
ATOM      6  CA  UNL     1      -6.699   1.039   0.329  0.00  0.00    +0.127 C 
ATOM      7  C   UNL     1      -6.024   2.178   0.294  0.00  0.00    -0.021 C 
ATOM      8  C   UNL     1      -6.223   3.347  -0.615  0.00  0.00    +0.104 C 
ATOM      9  S   UNL     1      -7.877   3.349  -1.373  0.00  0.00    -0.131 S 
ENDROOT
BRANCH   1  12
ATOM     10  C   UNL     1     -11.277   0.170  -3.072  0.00  0.00    +0.238 C 
ATOM     11  O   UNL     1     -12.085   0.707  -2.344  0.00  0.00    -0.273 OA
ATOM     12  N   UNL     1      -9.959   0.277  -2.811  0.00  0.00    -0.300 N 
ATOM     13  H   UNL     1      -9.313  -0.152  -3.393  0.00  0.00    +0.150 HD
BRANCH  10  15
ATOM     14  C   UNL     1     -11.167  -0.002  -5.543  0.00  0.00    +0.042 C 
ATOM     15  C   UNL     1     -11.747  -0.617  -4.268  0.00  0.00    +0.189 C 
BRANCH  15  16
ATOM     16  N   UNL     1     -13.210  -0.583  -4.331  0.00  0.00    -0.258 N 
ATOM     17  C   UNL     1     -13.958   0.388  -4.897  0.00  0.00    +0.142 A 
ATOM     18  C   UNL     1     -15.259   0.048  -4.746  0.00  0.00    +0.163 A 
ATOM     19  C   UNL     1     -15.308  -1.173  -4.065  0.00  0.00    +0.167 A 
ATOM     20  N   UNL     1     -14.081  -1.554  -3.821  0.00  0.00    -0.177 NA
BRANCH  18  21
ATOM     21  N   UNL     1     -16.424   0.829  -5.219  0.00  0.00    +0.059 N 
ATOM     22  O   UNL     1     -16.253   1.883  -5.804  0.00  0.00    -0.126 OA
ATOM     23  O   UNL     1     -17.553   0.417  -5.023  0.00  0.00    -0.126 OA
ENDBRANCH  18  21
ENDBRANCH  15  16
ENDBRANCH  10  15
ENDBRANCH   1  12
BRANCH   6  24
ATOM     24  C   UNL     1      -6.300  -0.023   1.271  0.00  0.00    +0.401 C 
ATOM     25  O   UNL     1      -5.532  -0.894   0.914  0.00  0.00    -0.239 OA
ATOM     26  OXT UNL     1      -6.786  -0.026   2.528  0.00  0.00    -0.239 OA
ENDBRANCH   6  24
BRANCH   7  27
ATOM     27  C   UNL     1      -4.906   2.308   1.296  0.00  0.00    +0.111 C 
BRANCH  27  28
ATOM     28  S   UNL     1      -3.321   2.018   0.472  0.00  0.00    -0.080 S 
BRANCH  28  29
ATOM     29  C   UNL     1      -2.225   2.227   1.836  0.00  0.00    +0.209 A 
ATOM     30  N   UNL     1      -2.564   2.510   3.075  0.00  0.00    -0.102 NA
ATOM     31  N   UNL     1      -1.520   2.599   3.818  0.00  0.00    -0.022 NA
ATOM     32  N   UNL     1      -0.456   2.377   3.124  0.00  0.00    -0.043 NA
ATOM     33  N   UNL     1      -0.875   2.123   1.806  0.00  0.00    -0.223 N 
ATOM     34  C   UNL     1      -0.032   1.816   0.649  0.00  0.00    +0.177 C 
ENDBRANCH  28  29
ENDBRANCH  27  28
ENDBRANCH   7  27
TORSDOF 8
