REMARK  Name = ZINC09575247
REMARK  3 active torsions:
REMARK  status: ('A' for Active; 'I' for Inactive)
REMARK    1  A    between atoms: C_8  and  C_11
REMARK    2  A    between atoms: C_11  and  C_12
REMARK    3  A    between atoms: C_14  and  O_26
REMARK                            x       y       z     vdW  Elec       q    Type
REMARK                         _______ _______ _______ _____ _____    ______ ____
ROOT
ATOM      1  C   UNL     1      -3.744   6.673   1.133  0.00  0.00    +0.114 C 
ATOM      2  C   UNL     1      -4.966   7.570   1.245  0.00  0.00    +0.165 C 
ATOM      3  C   UNL     1      -6.271   6.838   1.139  0.00  0.00    +0.009 A 
ATOM      4  C   UNL     1      -7.369   7.552   0.665  0.00  0.00    +0.008 A 
ATOM      5  C   UNL     1      -8.606   6.955   0.561  0.00  0.00    +0.000 A 
ATOM      6  C   UNL     1      -8.771   5.633   0.930  0.00  0.00    +0.002 A 
ATOM      7  C   UNL     1      -7.685   4.916   1.393  0.00  0.00    +0.029 A 
ATOM      8  C   UNL     1      -6.441   5.515   1.484  0.00  0.00    +0.111 A 
ATOM      9  S   UNL     1      -5.066   4.545   2.025  0.00  0.00    +0.059 S 
ATOM     10  O   UNL     1      -5.373   4.081   3.333  0.00  0.00    -0.153 OA
ATOM     11  O   UNL     1      -4.730   3.670   0.957  0.00  0.00    -0.153 OA
ATOM     12  N   UNL     1      -3.809   5.632   2.177  0.00  0.00    -0.184 NA
ATOM     13  H   UNL     1      -3.166   5.584   2.901  0.00  0.00    +0.148 HD
ENDROOT
BRANCH   2  14
ATOM     14  O   UNL     1      -4.924   8.241   2.506  0.00  0.00    -0.386 OA
ATOM     15  H   UNL     1      -5.670   8.836   2.660  0.00  0.00    +0.210 HD
ENDBRANCH   2  14
BRANCH   1  16
ATOM     16  C   UNL     1      -3.720   6.013  -0.247  0.00  0.00    +0.057 C 
BRANCH  16  24
ATOM     17  C   UNL     1      -0.797   9.569  -4.370  0.00  0.00    +0.001 A 
ATOM     18  C   UNL     1      -1.868  10.406  -4.633  0.00  0.00    +0.004 A 
ATOM     19  C   UNL     1      -3.058  10.262  -3.943  0.00  0.00    +0.046 A 
ATOM     20  C   UNL     1      -3.183   9.272  -2.987  0.00  0.00    +0.128 A 
ATOM     21  C   UNL     1      -2.103   8.417  -2.725  0.00  0.00    +0.017 A 
ATOM     22  C   UNL     1      -0.909   8.571  -3.422  0.00  0.00    +0.011 A 
ATOM     23  C   UNL     1      -2.275   7.353  -1.714  0.00  0.00    +0.014 C 
ATOM     24  C   UNL     1      -3.507   7.066  -1.304  0.00  0.00    -0.030 C 
ATOM     25  C   UNL     1      -4.689   7.790  -1.892  0.00  0.00    +0.260 C 
ATOM     26  O   UNL     1      -4.331   9.116  -2.279  0.00  0.00    -0.487 OA
ENDBRANCH  16  24
ENDBRANCH   1  16
TORSDOF 3
