REMARK  Name = ZINC02129336
REMARK  10 active torsions:
REMARK  status: ('A' for Active; 'I' for Inactive)
REMARK    1  A    between atoms: C_1  and  C_2
REMARK    2  A    between atoms: C_4  and  O_34
REMARK    3  A    between atoms: C_6  and  C_33
REMARK    4  A    between atoms: C_7  and  C_13
REMARK    5  A    between atoms: C_13  and  C_14
REMARK    6  A    between atoms: N_16  and  CA_17
REMARK    7  A    between atoms: CA_17  and  C_19
REMARK    8  A    between atoms: CA_17  and  C_31
REMARK    9  A    between atoms: C_19  and  C_20
REMARK   10  A    between atoms: C_27  and  O_30
REMARK                            x       y       z     vdW  Elec       q    Type
REMARK                         _______ _______ _______ _____ _____    ______ ____
ROOT
ATOM      1  C   UNL     1       3.277   1.291  -1.913  0.00  0.00    +0.218 C 
ATOM      2  O   UNL     1       3.754   1.445  -0.809  0.00  0.00    -0.275 OA
ATOM      3  N   UNL     1       1.940   1.325  -2.080  0.00  0.00    -0.302 N 
ATOM      4  H   UNL     1       1.559   1.202  -2.963  0.00  0.00    +0.150 HD
ENDROOT
BRANCH   1   5
ATOM      5  C   UNL     1       4.179   1.061  -3.098  0.00  0.00    +0.138 C 
BRANCH   5  12
ATOM      6  C   UNL     1      11.777   1.992  -0.855  0.00  0.00    +0.044 C 
ATOM      7  C   UNL     1      10.346   2.059  -1.320  0.00  0.00    -0.043 A 
ATOM      8  C   UNL     1       9.806   3.277  -1.702  0.00  0.00    +0.049 A 
ATOM      9  C   UNL     1       8.493   3.354  -2.131  0.00  0.00    +0.128 A 
ATOM     10  C   UNL     1       7.712   2.188  -2.176  0.00  0.00    +0.062 A 
ATOM     11  C   UNL     1       6.321   2.229  -2.629  0.00  0.00    -0.026 A 
ATOM     12  C   UNL     1       5.616   1.067  -2.644  0.00  0.00    +0.049 A 
ATOM     13  C   UNL     1       6.236  -0.133  -2.239  0.00  0.00    +0.341 A 
ATOM     14  O   UNL     1       5.595  -1.168  -2.262  0.00  0.00    -0.245 OA
ATOM     15  O   UNL     1       7.514  -0.163  -1.830  0.00  0.00    -0.422 OA
ATOM     16  C   UNL     1       8.267   0.957  -1.786  0.00  0.00    +0.143 A 
ATOM     17  C   UNL     1       9.587   0.907  -1.360  0.00  0.00    +0.050 A 
ATOM     18  C   UNL     1       5.686   3.525  -3.063  0.00  0.00    +0.045 C 
BRANCH   9  19
ATOM     19  O   UNL     1       7.965   4.546  -2.505  0.00  0.00    -0.506 OA
ATOM     20  H   UNL     1       8.075   4.747  -3.445  0.00  0.00    +0.292 HD
ENDBRANCH   9  19
ENDBRANCH   5  12
ENDBRANCH   1   5
BRANCH   3  21
ATOM     21  CA  UNL     1       1.063   1.549  -0.928  0.00  0.00    +0.191 C 
BRANCH  21  22
ATOM     22  C   UNL     1       0.926   3.029  -0.682  0.00  0.00    +0.376 C 
ATOM     23  O   UNL     1       1.501   3.817  -1.395  0.00  0.00    -0.244 OA
ATOM     24  OXT UNL     1       0.164   3.473   0.330  0.00  0.00    -0.244 OA
ENDBRANCH  21  22
BRANCH  21  25
ATOM     25  C   UNL     1      -0.315   0.949  -1.212  0.00  0.00    +0.071 C 
BRANCH  25  26
ATOM     26  C   UNL     1      -0.195  -0.548  -1.337  0.00  0.00    -0.020 A 
ATOM     27  C   UNL     1      -0.056  -1.246  -2.476  0.00  0.00    +0.087 A 
ATOM     28  N   UNL     1       0.025  -2.583  -2.197  0.00  0.00    -0.360 N 
ATOM     29  H   UNL     1       0.131  -3.285  -2.858  0.00  0.00    +0.165 HD
ATOM     30  C   UNL     1      -0.072  -2.784  -0.836  0.00  0.00    +0.047 A 
ATOM     31  C   UNL     1      -0.213  -1.519  -0.240  0.00  0.00    +0.006 A 
ATOM     32  C   UNL     1      -0.335  -1.410   1.147  0.00  0.00    +0.055 A 
ATOM     33  C   UNL     1      -0.316  -2.551   1.925  0.00  0.00    +0.118 A 
ATOM     34  C   UNL     1      -0.175  -3.803   1.331  0.00  0.00    +0.047 A 
ATOM     35  C   UNL     1      -0.054  -3.921  -0.036  0.00  0.00    +0.030 A 
BRANCH  33  36
ATOM     36  O   UNL     1      -0.433  -2.452   3.276  0.00  0.00    -0.507 OA
ATOM     37  H   UNL     1      -1.346  -2.487   3.595  0.00  0.00    +0.292 HD
ENDBRANCH  33  36
ENDBRANCH  25  26
ENDBRANCH  21  25
ENDBRANCH   3  21
TORSDOF 8
