REMARK  Name = ZINC03309479
REMARK  7 active torsions:
REMARK  status: ('A' for Active; 'I' for Inactive)
REMARK    1  A    between atoms: C_4  and  C_7
REMARK    2  A    between atoms: C_7  and  C_8
REMARK    3  A    between atoms: C_8  and  C_10
REMARK    4  A    between atoms: C_8  and  N_30
REMARK    5  A    between atoms: N_12  and  C_13
REMARK    6  A    between atoms: C_16  and  S_19
REMARK    7  A    between atoms: S_19  and  N_22
REMARK                            x       y       z     vdW  Elec       q    Type
REMARK                         _______ _______ _______ _____ _____    ______ ____
ROOT
ATOM      1  C   UNL     1       5.422  -1.804   1.382  0.00  0.00    +0.239 C 
ATOM      2  O   UNL     1       6.448  -1.374   1.865  0.00  0.00    -0.273 OA
ATOM      3  N   UNL     1       5.402  -3.031   0.824  0.00  0.00    -0.284 N 
ATOM      4  H   UNL     1       4.567  -3.402   0.498  0.00  0.00    +0.155 HD
ENDROOT
BRANCH   3   5
ATOM      5  C   UNL     1       6.585  -3.769   0.716  0.00  0.00    +0.034 A 
ATOM      6  C   UNL     1       6.797  -4.586  -0.387  0.00  0.00    +0.025 A 
ATOM      7  C   UNL     1       7.966  -5.314  -0.491  0.00  0.00    +0.031 A 
ATOM      8  C   UNL     1       8.926  -5.230   0.501  0.00  0.00    +0.113 A 
ATOM      9  C   UNL     1       8.718  -4.418   1.601  0.00  0.00    +0.031 A 
ATOM     10  C   UNL     1       7.553  -3.683   1.708  0.00  0.00    +0.025 A 
BRANCH   8  11
ATOM     11  S   UNL     1      10.416  -6.160   0.365  0.00  0.00    +0.100 S 
ATOM     12  O   UNL     1      10.912  -6.328   1.686  0.00  0.00    -0.146 OA
ATOM     13  O   UNL     1      10.131  -7.260  -0.488  0.00  0.00    -0.146 OA
BRANCH  11  14
ATOM     14  N   UNL     1      11.513  -5.212  -0.435  0.00  0.00    -0.118 NA
ATOM     15  C   UNL     1      12.703  -5.659  -0.671  0.00  0.00    +0.117 C 
ATOM     16  C   UNL     1      13.718  -4.785  -1.403  0.00  0.00    +0.073 C 
ATOM     17  C   UNL     1      14.784  -4.397  -0.401  0.00  0.00    +0.008 C 
ATOM     18  C   UNL     1      15.930  -5.406  -0.309  0.00  0.00    +0.002 C 
ATOM     19  C   UNL     1      15.452  -6.858  -0.308  0.00  0.00    +0.019 C 
ATOM     20  C   UNL     1      14.239  -7.087   0.568  0.00  0.00    +0.102 C 
ATOM     21  N   UNL     1      13.045  -6.869  -0.276  0.00  0.00    -0.331 N 
ATOM     22  H   UNL     1      12.507  -7.631  -0.542  0.00  0.00    +0.147 HD
ENDBRANCH  11  14
ENDBRANCH   8  11
ENDBRANCH   3   5
BRANCH   1  23
ATOM     23  C   UNL     1       4.170  -0.966   1.405  0.00  0.00    +0.175 C 
BRANCH  23  24
ATOM     24  N   UNL     1       4.450   0.314   2.060  0.00  0.00    -0.222 N 
ATOM     25  C   UNL     1       5.358   1.208   1.627  0.00  0.00    +0.255 C 
ATOM     26  O   UNL     1       6.064   1.083   0.647  0.00  0.00    -0.270 OA
ATOM     27  C   UNL     1       5.352   2.367   2.544  0.00  0.00    +0.049 A 
ATOM     28  C   UNL     1       6.055   3.559   2.602  0.00  0.00    +0.014 A 
ATOM     29  C   UNL     1       5.801   4.459   3.625  0.00  0.00    +0.001 A 
ATOM     30  C   UNL     1       4.850   4.174   4.588  0.00  0.00    +0.001 A 
ATOM     31  C   UNL     1       4.139   2.986   4.543  0.00  0.00    +0.014 A 
ATOM     32  C   UNL     1       4.383   2.077   3.526  0.00  0.00    +0.049 A 
ATOM     33  C   UNL     1       3.830   0.753   3.170  0.00  0.00    +0.255 C 
ATOM     34  O   UNL     1       2.962   0.161   3.778  0.00  0.00    -0.270 OA
ENDBRANCH  23  24
BRANCH  23  35
ATOM     35  C   UNL     1       3.699  -0.713  -0.029  0.00  0.00    +0.067 C 
BRANCH  35  39
ATOM     36  C   UNL     1      -0.034   1.362   0.040  0.00  0.00    +0.000 A 
ATOM     37  C   UNL     1       1.151   2.073   0.024  0.00  0.00    +0.000 A 
ATOM     38  C   UNL     1       2.360   1.401   0.002  0.00  0.00    +0.004 A 
ATOM     39  C   UNL     1       2.382   0.019  -0.004  0.00  0.00    -0.045 A 
ATOM     40  C   UNL     1       1.196  -0.692   0.013  0.00  0.00    +0.004 A 
ATOM     41  C   UNL     1      -0.012  -0.020   0.034  0.00  0.00    +0.000 A 
ENDBRANCH  35  39
ENDBRANCH  23  35
ENDBRANCH   1  23
TORSDOF 7
