REMARK  Name = ZINC40282756
REMARK  2 active torsions:
REMARK  status: ('A' for Active; 'I' for Inactive)
REMARK    1  A    between atoms: C_6  and  C_7
REMARK    2  A    between atoms: C_7  and  C_9
REMARK                            x       y       z     vdW  Elec       q    Type
REMARK                         _______ _______ _______ _____ _____    ______ ____
ROOT
ATOM      1  C   UNL     1       0.195   1.239  -0.020  0.00  0.00    +0.007 A 
ATOM      2  C   UNL     1       1.441   1.829  -0.104  0.00  0.00    +0.028 A 
ATOM      3  C   UNL     1       2.570   1.039  -0.251  0.00  0.00    +0.067 A 
ATOM      4  C   UNL     1       2.444  -0.350  -0.313  0.00  0.00    +0.067 A 
ATOM      5  C   UNL     1       1.189  -0.934  -0.229  0.00  0.00    +0.033 A 
ATOM      6  C   UNL     1       0.069  -0.138  -0.082  0.00  0.00    -0.027 A 
ATOM      7  N   UNL     1       3.730  -0.865  -0.459  0.00  0.00    -0.306 N 
ATOM      8  H   UNL     1       3.960  -1.805  -0.531  0.00  0.00    +0.170 HD
ATOM      9  C   UNL     1       4.598   0.163  -0.484  0.00  0.00    +0.325 A 
ATOM     10  O   UNL     1       5.805   0.058  -0.602  0.00  0.00    -0.247 OA
ATOM     11  N   UNL     1       3.929   1.325  -0.361  0.00  0.00    -0.306 N 
ATOM     12  H   UNL     1       4.326   2.210  -0.350  0.00  0.00    +0.170 HD
ENDROOT
BRANCH   6  13
ATOM     13  C   UNL     1      -1.294  -0.772   0.011  0.00  0.00    +0.118 C 
ATOM     14 BR   UNL     1      -2.213  -0.117   1.621  0.00  0.00    -0.078 Br
BRANCH  13  15
ATOM     15  C   UNL     1      -2.101  -0.410  -1.210  0.00  0.00    -0.010 A 
ATOM     16  C   UNL     1      -2.462  -1.385  -2.127  0.00  0.00    +0.023 A 
ATOM     17  C   UNL     1      -3.204  -1.006  -3.236  0.00  0.00    +0.036 A 
ATOM     18  C   UNL     1      -3.557   0.323  -3.388  0.00  0.00    +0.126 A 
ATOM     19  N   UNL     1      -3.195   1.222  -2.495  0.00  0.00    -0.262 NA
ATOM     20  C   UNL     1      -2.494   0.897  -1.426  0.00  0.00    +0.115 A 
ATOM     21 BR   UNL     1      -3.727  -2.289  -4.523  0.00  0.00    -0.049 Br
ENDBRANCH  13  15
ENDBRANCH   6  13
TORSDOF 2
