REMARK  Name = ZINC09891926
REMARK  9 active torsions:
REMARK  status: ('A' for Active; 'I' for Inactive)
REMARK    1  A    between atoms: C_1  and  C_2
REMARK    2  A    between atoms: C_2  and  C_4
REMARK    3  A    between atoms: C_2  and  N_10
REMARK    4  A    between atoms: N_10  and  C_11
REMARK    5  A    between atoms: C_13  and  N_20
REMARK    6  A    between atoms: C_16  and  N_17
REMARK    7  A    between atoms: N_23  and  S_26
REMARK    8  A    between atoms: S_26  and  C_29
REMARK    9  A    between atoms: C_34  and  N_35
REMARK                            x       y       z     vdW  Elec       q    Type
REMARK                         _______ _______ _______ _____ _____    ______ ____
ROOT
ATOM      1  C   UNL     1       2.897   1.230  -1.212  0.00  0.00    +0.060 A 
ATOM      2  C   UNL     1       2.434   0.040  -1.756  0.00  0.00    +0.048 A 
ATOM      3  C   UNL     1       3.300  -0.775  -2.471  0.00  0.00    +0.032 A 
ATOM      4  C   UNL     1       4.630  -0.403  -2.632  0.00  0.00    +0.025 A 
ATOM      5  C   UNL     1       5.088   0.780  -2.085  0.00  0.00    +0.036 A 
ATOM      6  C   UNL     1       4.227   1.597  -1.376  0.00  0.00    +0.147 A 
ENDROOT
BRANCH   3   7
ATOM      7  N   UNL     1       2.838  -1.971  -3.025  0.00  0.00    -0.327 N 
ATOM      8  C   UNL     1       2.225  -2.825  -1.998  0.00  0.00    +0.122 C 
ATOM      9  C   UNL     1       1.573  -4.037  -2.669  0.00  0.00    +0.128 C 
ATOM     10  N   UNL     1       2.578  -4.703  -3.511  0.00  0.00    -0.174 NA
ATOM     11  C   UNL     1       3.332  -3.884  -4.472  0.00  0.00    +0.128 C 
ATOM     12  C   UNL     1       3.916  -2.676  -3.730  0.00  0.00    +0.122 C 
BRANCH  10  13
ATOM     13  S   UNL     1       2.853  -6.330  -3.382  0.00  0.00    +0.063 S 
ATOM     14  O   UNL     1       1.625  -6.918  -2.972  0.00  0.00    -0.153 OA
ATOM     15  O   UNL     1       3.526  -6.724  -4.570  0.00  0.00    -0.153 OA
BRANCH  13  16
ATOM     16  C   UNL     1       3.990  -6.563  -2.057  0.00  0.00    +0.136 A 
ATOM     17  C   UNL     1       4.667  -5.480  -1.529  0.00  0.00    +0.031 A 
ATOM     18  C   UNL     1       5.556  -5.662  -0.486  0.00  0.00    +0.002 A 
ATOM     19  C   UNL     1       5.776  -6.929   0.021  0.00  0.00    +0.002 A 
ATOM     20  C   UNL     1       5.103  -8.013  -0.510  0.00  0.00    +0.035 A 
ATOM     21  C   UNL     1       4.210  -7.830  -1.550  0.00  0.00    +0.152 A 
BRANCH  21  22
ATOM     22  N   UNL     1       3.490  -8.991  -2.119  0.00  0.00    +0.058 N 
ATOM     23  O   UNL     1       3.583 -10.084  -1.591  0.00  0.00    -0.126 OA
ATOM     24  O   UNL     1       2.803  -8.852  -3.116  0.00  0.00    -0.126 OA
ENDBRANCH  21  22
ENDBRANCH  13  16
ENDBRANCH  10  13
ENDBRANCH   3   7
BRANCH   6  25
ATOM     25  N   UNL     1       4.723   2.863  -0.792  0.00  0.00    +0.058 N 
ATOM     26  O   UNL     1       5.856   3.240  -1.028  0.00  0.00    -0.126 OA
ATOM     27  O   UNL     1       3.996   3.528  -0.075  0.00  0.00    -0.126 OA
ENDBRANCH   6  25
BRANCH   1  28
ATOM     28  N   UNL     1       2.027   2.056  -0.496  0.00  0.00    -0.335 N 
ATOM     29  H   UNL     1       2.367   2.847  -0.050  0.00  0.00    +0.147 HD
BRANCH  28  31
ATOM     30  C   UNL     1      -0.117   2.284  -1.650  0.00  0.00    +0.033 C 
ATOM     31  C   UNL     1       0.602   1.727  -0.420  0.00  0.00    +0.098 C 
BRANCH  31  32
ATOM     32  C   UNL     1       0.012   2.338   0.826  0.00  0.00    -0.028 A 
ATOM     33  C   UNL     1       0.397   3.604   1.224  0.00  0.00    +0.005 A 
ATOM     34  C   UNL     1      -0.148   4.166   2.363  0.00  0.00    +0.000 A 
ATOM     35  C   UNL     1      -1.070   3.457   3.110  0.00  0.00    +0.000 A 
ATOM     36  C   UNL     1      -1.451   2.188   2.715  0.00  0.00    +0.000 A 
ATOM     37  C   UNL     1      -0.910   1.629   1.573  0.00  0.00    +0.005 A 
ENDBRANCH  31  32
ENDBRANCH  28  31
ENDBRANCH   1  28
TORSDOF 8
