REMARK  Name = ZINC22238260
REMARK  10 active torsions:
REMARK  status: ('A' for Active; 'I' for Inactive)
REMARK    1  A    between atoms: C_1  and  C_2
REMARK    2  A    between atoms: C_3  and  C_33
REMARK    3  A    between atoms: C_11  and  C_13
REMARK    4  A    between atoms: C_13  and  S_14
REMARK    5  A    between atoms: S_14  and  C_15
REMARK    6  A    between atoms: C_15  and  C_17
REMARK    7  A    between atoms: C_15  and  C_18
REMARK    8  A    between atoms: C_18  and  N_20
REMARK    9  A    between atoms: C_23  and  C_26
REMARK   10  A    between atoms: C_26  and  N_27
REMARK                            x       y       z     vdW  Elec       q    Type
REMARK                         _______ _______ _______ _____ _____    ______ ____
ROOT
ATOM      1  C   UNL     1       0.135  -6.147   5.443  0.00  0.00    +0.132 C 
ATOM      2  C   UNL     1      -1.169  -5.941   6.217  0.00  0.00    +0.029 C 
ENDROOT
BRANCH   1   3
ATOM      3  C   UNL     1       0.275  -7.601   5.074  0.00  0.00    +0.251 C 
ATOM      4  O   UNL     1      -0.010  -7.974   3.951  0.00  0.00    -0.272 OA
BRANCH   3   5
ATOM      5  N   UNL     1       0.710  -8.475   5.973  0.00  0.00    -0.156 NA
ATOM      6  C   UNL     1       0.834  -9.763   5.645  0.00  0.00    +0.163 A 
ATOM      7  N   UNL     1       1.253 -10.796   6.424  0.00  0.00    -0.341 N 
ATOM      8  C   UNL     1       1.305 -12.044   5.887  0.00  0.00    +0.008 A 
ATOM      9  C   UNL     1       0.935 -12.177   4.608  0.00  0.00    +0.067 A 
ATOM     10  S   UNL     1       0.503 -10.503   4.172  0.00  0.00    -0.061 S 
ATOM     11  H   UNL     1       1.510 -10.645   7.347  0.00  0.00    +0.167 HD
BRANCH   8  12
ATOM     12  C   UNL     1       1.761 -13.229   6.699  0.00  0.00    -0.024 C 
BRANCH  12  13
ATOM     13  N   UNL     1       3.174 -13.059   7.061  0.00  0.00    +0.383 N 
ATOM     14  C   UNL     1       3.995 -13.072   5.844  0.00  0.00    -0.078 C 
ATOM     15  C   UNL     1       5.459 -12.815   6.209  0.00  0.00    -0.019 C 
ATOM     16  C   UNL     1       5.941 -13.910   7.164  0.00  0.00    -0.004 C 
ATOM     17  C   UNL     1       5.032 -13.937   8.396  0.00  0.00    -0.019 C 
ATOM     18  C   UNL     1       3.584 -14.152   7.950  0.00  0.00    -0.078 C 
ATOM     19  H   UNL     1       3.295 -12.177   7.536  0.00  0.00    -0.081 HD
ENDBRANCH  12  13
ENDBRANCH   8  12
ENDBRANCH   3   5
ENDBRANCH   1   3
BRANCH   1  20
ATOM     20  S   UNL     1       0.108  -5.139   3.935  0.00  0.00    -0.140 S 
BRANCH  20  21
ATOM     21  C   UNL     1       0.090  -3.432   4.547  0.00  0.00    +0.144 C 
BRANCH  21  32
ATOM     22  C   UNL     1      -0.018   1.503   0.010  0.00  0.00    +0.045 C 
ATOM     23  C   UNL     1       0.002  -0.004   0.002  0.00  0.00    -0.026 A 
ATOM     24  C   UNL     1       0.006  -0.677  -1.160  0.00  0.00    -0.008 A 
ATOM     25  S   UNL     1       0.032  -2.385  -0.648  0.00  0.00    -0.073 S 
ATOM     26  C   UNL     1       0.037  -2.144   1.110  0.00  0.00    +0.116 A 
ATOM     27  C   UNL     1       0.024  -0.745   1.250  0.00  0.00    +0.075 A 
ATOM     28  C   UNL     1       0.029  -0.257   2.597  0.00  0.00    +0.260 A 
ATOM     29  O   UNL     1       0.014   0.942   2.821  0.00  0.00    -0.267 OA
ATOM     30  N   UNL     1       0.051  -1.142   3.611  0.00  0.00    -0.310 N 
ATOM     31  H   UNL     1       0.054  -0.817   4.525  0.00  0.00    +0.170 HD
ATOM     32  C   UNL     1       0.067  -2.480   3.380  0.00  0.00    +0.121 A 
ATOM     33  N   UNL     1       0.053  -2.956   2.163  0.00  0.00    -0.226 NA
ATOM     34  C   UNL     1      -0.009  -0.122  -2.561  0.00  0.00    +0.052 C 
ENDBRANCH  21  32
ENDBRANCH  20  21
ENDBRANCH   1  20
TORSDOF 7
