REMARK  Name = ZINC39361081
REMARK  5 active torsions:
REMARK  status: ('A' for Active; 'I' for Inactive)
REMARK    1  A    between atoms: C_1  and  C_2
REMARK    2  A    between atoms: C_7  and  C_14
REMARK    3  A    between atoms: C_14  and  C_15
REMARK    4  A    between atoms: C_15  and  N_16
REMARK    5  A    between atoms: C_17  and  C_19
REMARK                            x       y       z     vdW  Elec       q    Type
REMARK                         _______ _______ _______ _____ _____    ______ ____
ROOT
ATOM      1  C   UNL     1       1.379  -6.503   2.636  0.00  0.00    +0.105 C 
ENDROOT
BRANCH   1   2
ATOM      2  N   UNL     1       2.632  -7.256   2.726  0.00  0.00    -0.315 N 
ATOM      3  C   UNL     1       2.899  -7.992   3.823  0.00  0.00    +0.219 C 
ATOM      4  O   UNL     1       2.102  -8.030   4.736  0.00  0.00    -0.275 OA
ATOM      5  H   UNL     1       3.270  -7.225   1.996  0.00  0.00    +0.149 HD
BRANCH   3   6
ATOM      6  C   UNL     1       4.189  -8.766   3.915  0.00  0.00    +0.048 C 
ATOM      7  C   UNL     1       4.261  -9.775   2.767  0.00  0.00    +0.019 C 
ATOM      8  C   UNL     1       5.570 -10.561   2.861  0.00  0.00    -0.009 C 
ATOM      9  C   UNL     1       5.624 -11.305   4.197  0.00  0.00    +0.007 C 
ATOM     10  C   UNL     1       5.551 -10.296   5.345  0.00  0.00    -0.009 C 
ATOM     11  C   UNL     1       4.242  -9.509   5.251  0.00  0.00    +0.019 C 
ATOM     12  C   UNL     1       6.734  -9.330   5.251  0.00  0.00    +0.007 C 
ATOM     13  C   UNL     1       6.681  -8.587   3.914  0.00  0.00    -0.009 C 
ATOM     14  C   UNL     1       6.753  -9.595   2.766  0.00  0.00    +0.007 C 
ATOM     15  C   UNL     1       5.372  -7.800   3.821  0.00  0.00    +0.019 C 
ENDBRANCH   3   6
ENDBRANCH   1   2
BRANCH   1  16
ATOM     16  C   UNL     1       1.325  -5.759   1.300  0.00  0.00    +0.035 C 
BRANCH  16  23
ATOM     17  C   UNL     1      -4.760  -5.317  -3.058  0.00  0.00    +0.044 C 
ATOM     18  C   UNL     1      -3.787  -5.429  -1.912  0.00  0.00    -0.049 A 
ATOM     19  C   UNL     1      -4.047  -6.354  -0.901  0.00  0.00    +0.004 A 
ATOM     20  C   UNL     1      -3.208  -6.501   0.157  0.00  0.00    +0.010 A 
ATOM     21  C   UNL     1      -2.009  -5.665   0.227  0.00  0.00    -0.007 A 
ATOM     22  C   UNL     1      -1.137  -5.777   1.269  0.00  0.00    -0.005 C 
ATOM     23  C   UNL     1       0.079  -4.872   1.260  0.00  0.00    +0.100 C 
ATOM     24  C   UNL     1       0.226  -3.919   0.096  0.00  0.00    +0.224 C 
ATOM     25  O   UNL     1       1.183  -3.170   0.037  0.00  0.00    -0.275 OA
ATOM     26  N   UNL     1      -0.689  -3.902  -0.859  0.00  0.00    -0.284 N 
ATOM     27  C   UNL     1      -1.759  -4.696  -0.855  0.00  0.00    +0.041 A 
ATOM     28  C   UNL     1      -2.690  -4.628  -1.908  0.00  0.00    +0.027 A 
ATOM     29  H   UNL     1      -0.575  -3.283  -1.597  0.00  0.00    +0.155 HD
ENDBRANCH  16  23
ENDBRANCH   1  16
TORSDOF 4
