REMARK  Name = ZINC16569689
REMARK  5 active torsions:
REMARK  status: ('A' for Active; 'I' for Inactive)
REMARK    1  A    between atoms: C_12  and  C_33
REMARK    2  A    between atoms: C_15  and  C_17
REMARK    3  A    between atoms: C_17  and  N_18
REMARK    4  A    between atoms: N_18  and  C_19
REMARK    5  A    between atoms: N_24  and  C_25
REMARK                            x       y       z     vdW  Elec       q    Type
REMARK                         _______ _______ _______ _____ _____    ______ ____
ROOT
ATOM      1  C   UNL     1       3.711   3.807   2.406  0.00  0.00    +0.002 A 
ATOM      2  C   UNL     1       3.241   4.622   1.393  0.00  0.00    +0.002 A 
ATOM      3  C   UNL     1       2.205   4.202   0.580  0.00  0.00    +0.025 A 
ATOM      4  C   UNL     1       1.632   2.956   0.778  0.00  0.00    +0.061 A 
ATOM      5  C   UNL     1       2.117   2.131   1.798  0.00  0.00    +0.068 A 
ATOM      6  C   UNL     1       3.149   2.559   2.610  0.00  0.00    +0.028 A 
ATOM      7  N   UNL     1       1.531   0.865   1.950  0.00  0.00    -0.316 N 
ATOM      8  C   UNL     1       1.636  -0.029   2.961  0.00  0.00    +0.092 A 
ATOM      9  C   UNL     1       0.878  -1.105   2.652  0.00  0.00    +0.020 A 
ATOM     10  C   UNL     1       0.283  -0.860   1.395  0.00  0.00    +0.025 A 
ATOM     11  C   UNL     1       0.698   0.344   0.985  0.00  0.00    +0.052 A 
ATOM     12  C   UNL     1       0.373   1.090  -0.286  0.00  0.00    +0.194 C 
ATOM     13  N   UNL     1       0.566   2.526  -0.025  0.00  0.00    -0.252 N 
ATOM     14  C   UNL     1      -0.282   3.428  -0.557  0.00  0.00    +0.238 C 
ATOM     15  O   UNL     1      -0.182   4.601  -0.265  0.00  0.00    -0.273 OA
ENDROOT
BRANCH  12  16
ATOM     16  C   UNL     1       1.296   0.644  -1.391  0.00  0.00    +0.131 A 
ATOM     17  C   UNL     1       0.982  -0.213  -2.379  0.00  0.00    +0.047 A 
ATOM     18  C   UNL     1       2.136  -0.347  -3.186  0.00  0.00    +0.041 A 
ATOM     19  C   UNL     1       3.084   0.437  -2.643  0.00  0.00    +0.195 A 
ATOM     20  O   UNL     1       2.568   1.039  -1.559  0.00  0.00    -0.466 OA
ENDBRANCH  12  16
BRANCH  14  21
ATOM     21  C   UNL     1      -1.356   2.979  -1.514  0.00  0.00    +0.205 C 
BRANCH  21  22
ATOM     22  N   UNL     1      -2.049   4.151  -2.055  0.00  0.00    -0.274 N 
ATOM     23  C   UNL     1      -3.133   4.643  -1.424  0.00  0.00    +0.307 C 
ATOM     24  O   UNL     1      -3.593   4.060  -0.461  0.00  0.00    -0.252 OA
ATOM     25  N   UNL     1      -3.708   5.781  -1.861  0.00  0.00    -0.268 N 
ATOM     26  H   UNL     1      -3.390   6.205  -2.673  0.00  0.00    +0.156 HD
BRANCH  25  27
ATOM     27  C   UNL     1      -4.766   6.352  -1.141  0.00  0.00    +0.053 A 
ATOM     28  C   UNL     1      -4.968   6.008   0.189  0.00  0.00    +0.026 A 
ATOM     29  C   UNL     1      -6.009   6.576   0.897  0.00  0.00    +0.022 A 
ATOM     30  C   UNL     1      -6.856   7.480   0.280  0.00  0.00    +0.042 A 
ATOM     31  C   UNL     1      -6.661   7.821  -1.046  0.00  0.00    +0.041 A 
ATOM     32  C   UNL     1      -5.618   7.260  -1.759  0.00  0.00    +0.064 A 
ATOM     33 CL   UNL     1      -5.373   7.687  -3.423  0.00  0.00    -0.082 Cl
ATOM     34 CL   UNL     1      -8.166   8.187   1.173  0.00  0.00    -0.083 Cl
ENDBRANCH  25  27
BRANCH  22  35
ATOM     35  C   UNL     1      -1.563   4.788  -3.282  0.00  0.00    +0.078 C 
ATOM     36  C   UNL     1      -0.535   4.022  -4.116  0.00  0.00    +0.024 C 
ATOM     37  C   UNL     1      -0.105   5.249  -3.309  0.00  0.00    +0.024 C 
ENDBRANCH  22  35
ENDBRANCH  21  22
ENDBRANCH  14  21
TORSDOF 5
