REMARK  Name = ZINC44608040
REMARK  8 active torsions:
REMARK  status: ('A' for Active; 'I' for Inactive)
REMARK    1  A    between atoms: C_1  and  C_2
REMARK    2  A    between atoms: C_2  and  O_4
REMARK    3  A    between atoms: O_4  and  C_5
REMARK    4  A    between atoms: C_5  and  C_6
REMARK    5  A    between atoms: C_6  and  C_8
REMARK    6  A    between atoms: C_14  and  C_33
REMARK    7  A    between atoms: C_16  and  O_32
REMARK    8  A    between atoms: C_29  and  C_30
REMARK                            x       y       z     vdW  Elec       q    Type
REMARK                         _______ _______ _______ _____ _____    ______ ____
ROOT
ATOM      1  C   UNL     1      -2.634  -4.241  -0.290  0.00  0.00    +0.165 C 
ATOM      2  C   UNL     1      -2.872  -4.898  -1.704  0.00  0.00    +0.162 C 
ATOM      3  C   UNL     1      -4.353  -4.952  -1.873  0.00  0.00    +0.039 C 
ATOM      4  C   UNL     1      -4.699  -5.556  -0.484  0.00  0.00    +0.007 C 
ATOM      5  C   UNL     1      -3.822  -4.692   0.476  0.00  0.00    +0.012 C 
ATOM      6  C   UNL     1      -3.757  -5.404   1.797  0.00  0.00    +0.044 C 
ATOM      7  C   UNL     1      -5.189  -5.397   2.366  0.00  0.00    +0.154 C 
ATOM      8  C   UNL     1      -6.204  -5.994   1.397  0.00  0.00    +0.153 C 
ATOM      9  C   UNL     1      -6.131  -5.386  -0.013  0.00  0.00    +0.034 C 
ATOM     10  C   UNL     1      -7.095  -6.079  -0.970  0.00  0.00    +0.011 C 
ATOM     11  C   UNL     1      -8.538  -5.926  -0.475  0.00  0.00    +0.032 C 
ATOM     12  C   UNL     1      -8.583  -6.438   0.953  0.00  0.00    -0.053 C 
ATOM     13  C   UNL     1      -9.426  -7.403   1.276  0.00  0.00    +0.051 C 
ATOM     14  C   UNL     1      -9.443  -7.963   2.636  0.00  0.00    +0.179 C 
ATOM     15  O   UNL     1     -10.163  -8.903   2.918  0.00  0.00    -0.288 OA
ATOM     16  C   UNL     1      -8.562  -7.354   3.648  0.00  0.00    +0.047 C 
ATOM     17  C   UNL     1      -7.744  -6.374   3.309  0.00  0.00    -0.009 C 
ATOM     18  C   UNL     1      -7.622  -5.753   1.952  0.00  0.00    +0.044 C 
ATOM     19  C   UNL     1      -7.883  -4.247   2.033  0.00  0.00    +0.023 C 
ATOM     20  F   UNL     1      -5.981  -7.370   1.282  0.00  0.00    -0.238 F 
ATOM     21  C   UNL     1      -4.652  -3.434   0.740  0.00  0.00    +0.015 C 
ATOM     22  O   UNL     1      -1.755  -4.569  -2.412  0.00  0.00    -0.342 OA
ATOM     23  C   UNL     1      -0.710  -4.555  -1.400  0.00  0.00    +0.172 C 
ATOM     24  O   UNL     1      -1.316  -4.750  -0.080  0.00  0.00    -0.331 OA
ATOM     25  C   UNL     1       0.303  -5.671  -1.684  0.00  0.00    +0.065 C 
ATOM     26  C   UNL     1       1.440  -4.957  -2.461  0.00  0.00    +0.005 C 
ATOM     27  C   UNL     1       1.517  -3.575  -1.763  0.00  0.00    +0.005 C 
ATOM     28  C   UNL     1       0.046  -3.226  -1.446  0.00  0.00    +0.065 C 
ENDROOT
BRANCH   1  29
ATOM     29  C   UNL     1      -2.611  -2.738  -0.396  0.00  0.00    +0.205 C 
ATOM     30  O   UNL     1      -3.085  -2.194  -1.364  0.00  0.00    -0.291 OA
BRANCH  29  31
ATOM     31  C   UNL     1      -1.998  -1.914   0.707  0.00  0.00    +0.309 C 
BRANCH  31  32
ATOM     32  O   UNL     1      -1.986  -0.538   0.323  0.00  0.00    -0.457 OA
BRANCH  32  34
ATOM     33  C   UNL     1      -1.421   1.803   0.866  0.00  0.00    +0.136 C 
ATOM     34  C   UNL     1      -1.468   0.335   1.201  0.00  0.00    +0.304 C 
ATOM     35  O   UNL     1      -1.038  -0.057   2.261  0.00  0.00    -0.251 OA
ENDBRANCH  32  34
ENDBRANCH  31  32
ENDBRANCH  29  31
ENDBRANCH   1  29
BRANCH   7  36
ATOM     36  O   UNL     1      -5.209  -6.155   3.578  0.00  0.00    -0.389 OA
ATOM     37  H   UNL     1      -4.621  -5.813   4.265  0.00  0.00    +0.210 HD
ENDBRANCH   7  36
TORSDOF 5
