REMARK  Name = ZINC11073946
REMARK  9 active torsions:
REMARK  status: ('A' for Active; 'I' for Inactive)
REMARK    1  A    between atoms: C_1  and  C_2
REMARK    2  A    between atoms: C_5  and  N_9
REMARK    3  A    between atoms: C_10  and  C_12
REMARK    4  A    between atoms: C_12  and  C_14
REMARK    5  A    between atoms: C_12  and  N_58
REMARK    6  A    between atoms: C_15  and  N_58
REMARK    7  A    between atoms: C_16  and  C_17
REMARK    8  A    between atoms: C_16  and  N_58
REMARK    9  A    between atoms: C_30  and  C_32
REMARK                            x       y       z     vdW  Elec       q    Type
REMARK                         _______ _______ _______ _____ _____    ______ ____
ROOT
ATOM      1  C   UNL     1       0.201   3.848  -2.454  0.00  0.00    +0.020 C 
ENDROOT
BRANCH   1   2
ATOM      2  C   UNL     1       0.605   4.808  -1.365  0.00  0.00    +0.204 C 
ATOM      3  O   UNL     1       0.649   5.999  -1.593  0.00  0.00    -0.277 OA
ATOM      4  N   UNL     1       0.915   4.344  -0.139  0.00  0.00    -0.268 N 
ATOM      5  C   UNL     1       0.867   2.972   0.137  0.00  0.00    +0.058 A 
ATOM      6  C   UNL     1      -0.348   2.319   0.263  0.00  0.00    +0.025 A 
ATOM      7  C   UNL     1      -0.377   0.975   0.586  0.00  0.00    +0.002 A 
ATOM      8  C   UNL     1       0.803   0.279   0.781  0.00  0.00    +0.002 A 
ATOM      9  C   UNL     1       2.020   0.921   0.643  0.00  0.00    +0.025 A 
ATOM     10  C   UNL     1       2.058   2.266   0.315  0.00  0.00    +0.055 A 
ATOM     11  N   UNL     1       3.278   2.929   0.141  0.00  0.00    -0.284 N 
ATOM     12  C   UNL     1       3.506   4.113   0.748  0.00  0.00    +0.219 C 
ATOM     13  O   UNL     1       4.533   4.718   0.522  0.00  0.00    -0.275 OA
ATOM     14  C   UNL     1       2.494   4.688   1.703  0.00  0.00    +0.118 C 
ATOM     15  C   UNL     1       1.309   5.266   0.929  0.00  0.00    +0.087 C 
ATOM     16  C   UNL     1       0.130   5.471   1.882  0.00  0.00    +0.029 C 
ATOM     17  H   UNL     1       3.964   2.534  -0.419  0.00  0.00    +0.155 HD
ENDBRANCH   1   2
BRANCH   1  19
ATOM     18  C   UNL     1       1.132   5.229  -4.211  0.00  0.00    -0.094 C 
ATOM     19  N   UNL     1      -0.103   4.617  -3.679  0.00  0.00    +0.391 N 
ATOM     20  H   UNL     1      -0.772   5.361  -3.449  0.00  0.00    -0.080 HD
BRANCH  19  21
ATOM     21  C   UNL     1      -0.705   3.729  -4.696  0.00  0.00    +0.017 C 
ATOM     22  C   UNL     1       0.091   2.428  -4.810  0.00  0.00    -0.004 C 
BRANCH  21  24
ATOM     23  N   UNL     1      -2.965   2.839  -5.168  0.00  0.00    -0.286 N 
ATOM     24  C   UNL     1      -2.122   3.417  -4.289  0.00  0.00    +0.203 C 
ATOM     25  O   UNL     1      -2.504   3.686  -3.169  0.00  0.00    -0.277 OA
ATOM     26  H   UNL     1      -2.685   2.698  -6.086  0.00  0.00    +0.155 HD
BRANCH  23  31
ATOM     27  C   UNL     1      -8.144   1.234  -3.498  0.00  0.00    +0.044 C 
ATOM     28  C   UNL     1      -6.769   1.661  -3.942  0.00  0.00    -0.049 A 
ATOM     29  C   UNL     1      -5.771   1.857  -3.004  0.00  0.00    +0.005 A 
ATOM     30  C   UNL     1      -4.509   2.247  -3.408  0.00  0.00    +0.024 A 
ATOM     31  C   UNL     1      -4.242   2.444  -4.756  0.00  0.00    +0.047 A 
ATOM     32  C   UNL     1      -5.248   2.252  -5.695  0.00  0.00    +0.039 A 
ATOM     33  C   UNL     1      -6.507   1.856  -5.285  0.00  0.00    +0.020 A 
ATOM     34 BR   UNL     1      -4.893   2.526  -7.532  0.00  0.00    -0.048 Br
ENDBRANCH  23  31
ENDBRANCH  21  24
ENDBRANCH  19  21
ENDBRANCH   1  19
TORSDOF 5
