REMARK  Name = ZINC46642989
REMARK  10 active torsions:
REMARK  status: ('A' for Active; 'I' for Inactive)
REMARK    1  A    between atoms: C_1  and  C_2
REMARK    2  A    between atoms: C_9  and  C_11
REMARK    3  A    between atoms: N_13  and  N_14
REMARK    4  A    between atoms: C_15  and  C_17
REMARK    5  A    between atoms: C_21  and  S_23
REMARK    6  A    between atoms: S_23  and  N_26
REMARK    7  A    between atoms: N_26  and  C_27
REMARK    8  A    between atoms: C_27  and  C_28
REMARK    9  A    between atoms: C_27  and  C_29
REMARK   10  A    between atoms: C_27  and  C_30
REMARK                            x       y       z     vdW  Elec       q    Type
REMARK                         _______ _______ _______ _____ _____    ______ ____
ROOT
ATOM      1  N   UNL     1       0.421  -8.748   4.700  0.00  0.00    -0.230 N 
ATOM      2  C   UNL     1       0.791  -9.855   4.027  0.00  0.00    +0.260 C 
ATOM      3  O   UNL     1       0.555  -9.952   2.839  0.00  0.00    -0.269 OA
ATOM      4  H   UNL     1       0.609  -8.671   5.649  0.00  0.00    +0.173 HD
ENDROOT
BRANCH   2   5
ATOM      5  C   UNL     1       1.485 -10.952   4.734  0.00  0.00    +0.040 A 
ATOM      6  C   UNL     1       1.753 -10.846   6.101  0.00  0.00    +0.016 A 
ATOM      7  C   UNL     1       2.399 -11.871   6.756  0.00  0.00    +0.041 A 
ATOM      8  C   UNL     1       2.785 -13.007   6.060  0.00  0.00    +0.150 A 
ATOM      9  C   UNL     1       2.522 -13.118   4.703  0.00  0.00    +0.141 A 
ATOM     10  C   UNL     1       1.870 -12.100   4.040  0.00  0.00    +0.044 A 
ATOM     11  F   UNL     1       3.419 -14.010   6.706  0.00  0.00    -0.203 F 
BRANCH   9  12
ATOM     12  S   UNL     1       3.016 -14.564   3.826  0.00  0.00    +0.062 S 
ATOM     13  O   UNL     1       2.538 -15.675   4.574  0.00  0.00    -0.153 OA
ATOM     14  O   UNL     1       2.665 -14.354   2.466  0.00  0.00    -0.153 OA
BRANCH  12  15
ATOM     15  N   UNL     1       4.670 -14.631   3.884  0.00  0.00    -0.185 NA
ATOM     16  H   UNL     1       5.109 -15.343   4.375  0.00  0.00    +0.149 HD
BRANCH  15  17
ATOM     17  C   UNL     1       5.468 -13.615   3.194  0.00  0.00    +0.032 C 
ATOM     18  C   UNL     1       5.185 -12.242   3.805  0.00  0.00    +0.029 C 
ATOM     19  C   UNL     1       6.955 -13.945   3.346  0.00  0.00    +0.029 C 
ATOM     20  C   UNL     1       5.099 -13.599   1.709  0.00  0.00    +0.029 C 
ENDBRANCH  15  17
ENDBRANCH  12  15
ENDBRANCH   9  12
ENDBRANCH   2   5
BRANCH   1  23
ATOM     21  C   UNL     1      -0.608  -6.601   4.702  0.00  0.00    +0.267 C 
ATOM     22  O   UNL     1      -0.371  -6.504   5.892  0.00  0.00    -0.268 OA
ATOM     23  N   UNL     1      -0.237  -7.708   4.030  0.00  0.00    -0.230 N 
ATOM     24  H   UNL     1      -0.425  -7.786   3.081  0.00  0.00    +0.173 HD
BRANCH  21  32
ATOM     25  C   UNL     1      -4.357  -0.190   3.245  0.00  0.00    +0.008 C 
ATOM     26  C   UNL     1      -3.928  -1.627   2.944  0.00  0.00    -0.009 C 
ATOM     27  C   UNL     1      -3.273  -1.684   1.561  0.00  0.00    +0.009 C 
ATOM     28  C   UNL     1      -3.095  -3.155   1.159  0.00  0.00    +0.043 C 
ATOM     29  C   UNL     1      -2.473  -3.890   2.309  0.00  0.00    -0.006 A 
ATOM     30  C   UNL     1      -2.377  -3.455   3.599  0.00  0.00    -0.036 A 
ATOM     31  C   UNL     1      -1.755  -4.308   4.499  0.00  0.00    +0.024 A 
ATOM     32  C   UNL     1      -1.296  -5.513   4.001  0.00  0.00    +0.076 A 
ATOM     33  S   UNL     1      -1.758  -5.399   2.283  0.00  0.00    -0.088 S 
ATOM     34  C   UNL     1      -2.932  -2.093   4.007  0.00  0.00    +0.039 C 
ENDBRANCH  21  32
ENDBRANCH   1  23
TORSDOF 6
