REMARK  Name = ZINC39463998
REMARK  8 active torsions:
REMARK  status: ('A' for Active; 'I' for Inactive)
REMARK    1  A    between atoms: C_1  and  C_2
REMARK    2  A    between atoms: C_2  and  C_3
REMARK    3  A    between atoms: C_2  and  S_4
REMARK    4  A    between atoms: S_4  and  C_7
REMARK    5  A    between atoms: C_12  and  C_13
REMARK    6  A    between atoms: C_18  and  O_19
REMARK    7  A    between atoms: P_27  and  C_30
REMARK    8  A    between atoms: C_30  and  C_31
REMARK                            x       y       z     vdW  Elec       q    Type
REMARK                         _______ _______ _______ _____ _____    ______ ____
ROOT
ATOM      1  C   UNL     1       2.433   0.064  -1.589  0.00  0.00    +0.097 A 
ATOM      2  C   UNL     1       3.543  -0.752  -1.558  0.00  0.00    +0.033 A 
ATOM      3  C   UNL     1       4.736  -0.301  -1.008  0.00  0.00    -0.022 A 
ATOM      4  C   UNL     1       4.813   0.975  -0.489  0.00  0.00    -0.041 A 
ATOM      5  C   UNL     1       3.704   1.802  -0.515  0.00  0.00    +0.014 A 
ATOM      6  C   UNL     1       2.509   1.355  -1.071  0.00  0.00    +0.011 A 
ATOM      7  C   UNL     1       6.090   1.502   0.114  0.00  0.00    +0.052 C 
ATOM      8  C   UNL     1       7.013   0.336   0.465  0.00  0.00    +0.108 C 
ATOM      9  N   UNL     1       7.158  -0.525  -0.718  0.00  0.00    -0.226 NA
ATOM     10  C   UNL     1       5.914  -1.240  -1.000  0.00  0.00    +0.129 C 
ATOM     11  C   UNL     1       5.987  -1.960  -2.350  0.00  0.00    +0.194 C 
ATOM     12  O   UNL     1       7.043  -2.940  -2.295  0.00  0.00    -0.314 OA
ATOM     13  P   UNL     1       8.504  -2.469  -1.757  0.00  0.00    +0.289 P 
ATOM     14  O   UNL     1       9.257  -1.802  -2.843  0.00  0.00    -0.271 OA
ATOM     15  N   UNL     1       8.204  -1.402  -0.531  0.00  0.00    -0.179 NA
ATOM     16  H   UNL     1       8.738  -1.393   0.279  0.00  0.00    +0.151 HD
ENDROOT
BRANCH   6  17
ATOM     17  C   UNL     1       1.323   2.245  -1.105  0.00  0.00    +0.025 A 
ATOM     18  C   UNL     1       1.232   3.254  -2.062  0.00  0.00    +0.012 A 
ATOM     19  C   UNL     1       0.127   4.079  -2.090  0.00  0.00    +0.001 A 
ATOM     20  C   UNL     1      -0.894   3.909  -1.171  0.00  0.00    +0.004 A 
ATOM     21  C   UNL     1      -0.815   2.912  -0.218  0.00  0.00    +0.046 A 
ATOM     22  C   UNL     1       0.287   2.072  -0.182  0.00  0.00    +0.125 A 
BRANCH  22  23
ATOM     23  O   UNL     1       0.363   1.087   0.750  0.00  0.00    -0.506 OA
ATOM     24  H   UNL     1       0.716   1.379   1.602  0.00  0.00    +0.292 HD
ENDBRANCH  22  23
ENDBRANCH   6  17
BRANCH   1  25
ATOM     25  S   UNL     1       0.925  -0.520  -2.289  0.00  0.00    -0.000 S 
ATOM     26  O   UNL     1      -0.063  -0.239  -1.308  0.00  0.00    -0.169 OA
ATOM     27  O   UNL     1       1.200  -1.859  -2.677  0.00  0.00    -0.169 OA
BRANCH  25  29
ATOM     28  C   UNL     1       1.894   0.443  -4.659  0.00  0.00    +0.032 C 
ATOM     29  C   UNL     1       0.661   0.513  -3.756  0.00  0.00    +0.130 C 
ATOM     30  C   UNL     1      -0.562   0.006  -4.524  0.00  0.00    +0.032 C 
ENDBRANCH  25  29
ENDBRANCH   1  25
BRANCH  13  31
ATOM     31  C   UNL     1       9.438  -3.905  -1.134  0.00  0.00    +0.150 C 
BRANCH  31  32
ATOM     32  C   UNL     1       9.620  -4.907  -2.245  0.00  0.00    -0.037 A 
ATOM     33  C   UNL     1       8.675  -5.895  -2.446  0.00  0.00    +0.004 A 
ATOM     34  C   UNL     1       8.843  -6.814  -3.465  0.00  0.00    +0.000 A 
ATOM     35  C   UNL     1       9.955  -6.744  -4.283  0.00  0.00    +0.000 A 
ATOM     36  C   UNL     1      10.900  -5.755  -4.082  0.00  0.00    +0.000 A 
ATOM     37  C   UNL     1      10.730  -4.834  -3.066  0.00  0.00    +0.004 A 
ENDBRANCH  31  32
ENDBRANCH  13  31
TORSDOF 6
