REMARK  Name = ZINC63707994
REMARK  7 active torsions:
REMARK  status: ('A' for Active; 'I' for Inactive)
REMARK    1  A    between atoms: C_1  and  C_2
REMARK    2  A    between atoms: C_2  and  C_3
REMARK    3  A    between atoms: C_3  and  C_5
REMARK    4  A    between atoms: C_3  and  S_13
REMARK    5  A    between atoms: S_13  and  C_14
REMARK    6  A    between atoms: C_24  and  C_29
REMARK    7  A    between atoms: C_29  and  C_30
REMARK                            x       y       z     vdW  Elec       q    Type
REMARK                         _______ _______ _______ _____ _____    ______ ____
ROOT
ATOM      1  C   UNL     1       2.119   1.882  -1.111  0.00  0.00    +0.170 C 
ATOM      2  N   UNL     1       0.912   2.382  -1.109  0.00  0.00    -0.225 NA
ATOM      3  C   UNL     1       0.683   3.715  -1.005  0.00  0.00    +0.077 A 
ATOM      4  C   UNL     1      -0.616   4.230  -1.005  0.00  0.00    +0.028 A 
ATOM      5  C   UNL     1      -0.811   5.590  -0.897  0.00  0.00    +0.002 A 
ATOM      6  C   UNL     1       0.268   6.456  -0.789  0.00  0.00    +0.001 A 
ATOM      7  C   UNL     1       1.559   5.969  -0.787  0.00  0.00    +0.013 A 
ATOM      8  C   UNL     1       1.776   4.599  -0.895  0.00  0.00    +0.041 A 
ATOM      9  C   UNL     1       3.141   4.032  -0.897  0.00  0.00    +0.139 C 
ATOM     10  N   UNL     1       4.301   4.620  -0.808  0.00  0.00    -0.255 NA
ATOM     11  C   UNL     1       5.338   3.581  -0.861  0.00  0.00    +0.198 C 
ATOM     12  C   UNL     1       4.558   2.291  -0.995  0.00  0.00    +0.252 C 
ATOM     13  O   UNL     1       5.006   1.167  -1.075  0.00  0.00    -0.272 OA
ATOM     14  N   UNL     1       3.255   2.656  -1.002  0.00  0.00    -0.200 N 
ENDROOT
BRANCH   1  15
ATOM     15  S   UNL     1       2.303   0.135  -1.250  0.00  0.00    -0.077 S 
BRANCH  15  16
ATOM     16  C   UNL     1       0.600  -0.489  -1.219  0.00  0.00    +0.140 C 
BRANCH  16  17
ATOM     17  C   UNL     1      -0.112  -0.071  -2.480  0.00  0.00    +0.229 C 
ATOM     18  O   UNL     1       0.523   0.166  -3.485  0.00  0.00    -0.274 OA
ATOM     19  N   UNL     1      -1.455   0.041  -2.489  0.00  0.00    -0.296 N 
ATOM     20  C   UNL     1      -2.247  -0.234  -1.280  0.00  0.00    +0.136 C 
ATOM     21  C   UNL     1      -3.195   0.947  -1.044  0.00  0.00    +0.179 C 
ATOM     22  O   UNL     1      -3.933   1.206  -2.241  0.00  0.00    -0.377 OA
ATOM     23  C   UNL     1      -3.124   1.591  -3.355  0.00  0.00    +0.179 C 
ATOM     24  C   UNL     1      -2.172   0.449  -3.708  0.00  0.00    +0.136 C 
ENDBRANCH  16  17
BRANCH  16  26
ATOM     25  C   UNL     1       1.215  -2.440   0.216  0.00  0.00    +0.005 C 
ATOM     26  C   UNL     1       0.619  -2.017  -1.127  0.00  0.00    +0.020 C 
ENDBRANCH  16  26
ENDBRANCH  15  16
ENDBRANCH   1  15
BRANCH  11  27
ATOM     27  C   UNL     1       6.163   3.581   0.428  0.00  0.00    +0.069 C 
BRANCH  27  28
ATOM     28  C   UNL     1       6.949   4.863   0.522  0.00  0.00    -0.039 C 
ATOM     29  C   UNL     1       6.593   5.989   1.183  0.00  0.00    -0.001 A 
ATOM     30  C   UNL     1       5.413   6.342   1.981  0.00  0.00    +0.010 A 
ATOM     31  C   UNL     1       5.338   7.575   2.531  0.00  0.00    +0.001 A 
ATOM     32  C   UNL     1       6.356   8.523   2.357  0.00  0.00    +0.002 A 
ATOM     33  C   UNL     1       7.471   8.272   1.638  0.00  0.00    +0.026 A 
ATOM     34  C   UNL     1       7.655   7.006   1.016  0.00  0.00    +0.043 A 
ATOM     35  N   UNL     1       8.629   6.529   0.280  0.00  0.00    -0.380 N 
ATOM     36  C   UNL     1       8.298   5.151  -0.098  0.00  0.00    +0.144 C 
ATOM     37  H   UNL     1       9.436   7.006   0.030  0.00  0.00    +0.160 HD
ENDBRANCH  27  28
ENDBRANCH  11  27
TORSDOF 6
