REMARK  Name = ZINC12394323
REMARK  4 active torsions:
REMARK  status: ('A' for Active; 'I' for Inactive)
REMARK    1  A    between atoms: C_1  and  C_2
REMARK    2  A    between atoms: C_2  and  N_3
REMARK    3  A    between atoms: C_5  and  C_8
REMARK    4  A    between atoms: C_14  and  C_20
REMARK                            x       y       z     vdW  Elec       q    Type
REMARK                         _______ _______ _______ _____ _____    ______ ____
ROOT
ATOM      1  C   UNL     1      -0.541   3.022  -1.362  0.00  0.00    +0.010 C 
ATOM      2  C   UNL     1      -0.888   3.713  -0.065  0.00  0.00    +0.010 A 
ATOM      3  C   UNL     1      -0.975   3.061   1.117  0.00  0.00    -0.022 A 
ATOM      4  C   UNL     1      -1.326   4.041   2.121  0.00  0.00    +0.003 A 
ATOM      5  C   UNL     1      -1.550   3.953   3.499  0.00  0.00    +0.013 A 
ATOM      6  C   UNL     1      -1.872   5.117   4.151  0.00  0.00    -0.050 A 
ATOM      7  C   UNL     1      -1.973   6.329   3.488  0.00  0.00    +0.005 A 
ATOM      8  C   UNL     1      -1.757   6.446   2.126  0.00  0.00    +0.026 A 
ATOM      9  C   UNL     1      -1.429   5.280   1.437  0.00  0.00    +0.047 A 
ATOM     10  N   UNL     1      -1.158   5.042   0.119  0.00  0.00    -0.359 N 
ATOM     11  H   UNL     1      -1.157   5.714  -0.580  0.00  0.00    +0.166 HD
ATOM     12  C   UNL     1      -2.123   5.075   5.637  0.00  0.00    +0.044 C 
ATOM     13  C   UNL     1      -0.732   1.581   1.271  0.00  0.00    +0.018 C 
ATOM     14  C   UNL     1      -0.013   1.086   0.008  0.00  0.00    -0.076 C 
ATOM     15  N   UNL     1      -0.731   1.565  -1.191  0.00  0.00    +0.388 N 
ATOM     16  H   UNL     1      -0.369   1.077  -2.019  0.00  0.00    -0.084 HD
ATOM     17  H   UNL     1      -1.733   1.365  -1.087  0.00  0.00    -0.084 HD
ENDROOT
BRANCH   1  20
ATOM     18  N   UNL     1      -2.209   4.595  -4.198  0.00  0.00    -0.271 N 
ATOM     19  C   UNL     1      -1.130   4.431  -3.404  0.00  0.00    +0.110 A 
ATOM     20  C   UNL     1      -1.448   3.514  -2.461  0.00  0.00    -0.018 A 
ATOM     21  C   UNL     1      -2.764   3.100  -2.689  0.00  0.00    +0.136 A 
ATOM     22  N   UNL     1      -3.223   3.752  -3.727  0.00  0.00    -0.179 NA
BRANCH  18  24
ATOM     23  C   UNL     1      -2.726   4.701  -6.586  0.00  0.00    +0.029 C 
ATOM     24  C   UNL     1      -2.302   5.496  -5.350  0.00  0.00    +0.140 C 
ENDBRANCH  18  24
ENDBRANCH   1  20
TORSDOF 2
