REMARK  Name = ZINC35566298
REMARK  10 active torsions:
REMARK  status: ('A' for Active; 'I' for Inactive)
REMARK    1  A    between atoms: C_1  and  C_2
REMARK    2  A    between atoms: C_2  and  O_3
REMARK    3  A    between atoms: O_3  and  C_4
REMARK    4  A    between atoms: C_9  and  C_10
REMARK    5  A    between atoms: C_12  and  C_29
REMARK    6  A    between atoms: C_22  and  O_26
REMARK    7  A    between atoms: O_26  and  C_27
REMARK    8  A    between atoms: C_29  and  C_31
REMARK    9  A    between atoms: C_32  and  C_37
REMARK   10  A    between atoms: C_34  and  C_36
REMARK                            x       y       z     vdW  Elec       q    Type
REMARK                         _______ _______ _______ _____ _____    ______ ____
ROOT
ATOM      1  C   UNL     1      -3.786  -2.180  -0.174  0.00  0.00    +0.155 C 
ATOM      2  C   UNL     1      -4.206  -1.426  -1.414  0.00  0.00    +0.077 C 
ATOM      3  C   UNL     1      -5.509  -1.721  -1.627  0.00  0.00    +0.250 C 
ATOM      4  C   UNL     1      -5.977  -2.645  -0.576  0.00  0.00    +0.293 C 
ATOM      5  O   UNL     1      -7.103  -3.095  -0.493  0.00  0.00    -0.266 OA
ATOM      6  N   UNL     1      -4.972  -2.917   0.279  0.00  0.00    -0.232 N 
ATOM      7  C   UNL     1      -5.044  -3.744   1.386  0.00  0.00    +0.169 A 
ATOM      8  N   UNL     1      -4.105  -4.041   2.254  0.00  0.00    -0.224 NA
ATOM      9  C   UNL     1      -4.318  -4.872   3.299  0.00  0.00    +0.081 A 
ATOM     10  C   UNL     1      -3.400  -5.271   4.297  0.00  0.00    +0.032 A 
ATOM     11  C   UNL     1      -3.773  -6.122   5.290  0.00  0.00    +0.048 A 
ATOM     12  C   UNL     1      -5.066  -6.631   5.366  0.00  0.00    +0.121 A 
ATOM     13  C   UNL     1      -5.996  -6.262   4.405  0.00  0.00    +0.063 A 
ATOM     14  C   UNL     1      -5.623  -5.404   3.400  0.00  0.00    +0.044 A 
ATOM     15  S   UNL     1      -6.441  -4.673   2.003  0.00  0.00    -0.052 S 
ATOM     16  O   UNL     1      -6.265  -1.244  -2.644  0.00  0.00    -0.282 OA
ENDROOT
BRANCH   1  22
ATOM     17  C   UNL     1      -1.770  -3.521   0.478  0.00  0.00    +0.126 A 
ATOM     18  C   UNL     1      -0.750  -4.411   0.173  0.00  0.00    +0.046 A 
ATOM     19  C   UNL     1      -0.632  -4.911  -1.109  0.00  0.00    +0.004 A 
ATOM     20  C   UNL     1      -1.531  -4.526  -2.088  0.00  0.00    +0.001 A 
ATOM     21  C   UNL     1      -2.548  -3.640  -1.786  0.00  0.00    +0.009 A 
ATOM     22  C   UNL     1      -2.673  -3.141  -0.504  0.00  0.00    +0.020 A 
BRANCH  17  23
ATOM     23  O   UNL     1      -1.888  -3.028   1.739  0.00  0.00    -0.492 OA
BRANCH  23  25
ATOM     24  C   UNL     1      -1.094  -2.634   3.987  0.00  0.00    +0.048 C 
ATOM     25  C   UNL     1      -0.866  -3.382   2.673  0.00  0.00    +0.225 C 
ENDBRANCH  23  25
ENDBRANCH  17  23
ENDBRANCH   1  22
BRANCH  12  26
ATOM     26  O   UNL     1      -5.414  -7.481   6.369  0.00  0.00    -0.495 OA
ATOM     27  C   UNL     1      -4.399  -7.812   7.319  0.00  0.00    +0.277 C 
ENDBRANCH  12  26
BRANCH   2  28
ATOM     28  C   UNL     1      -3.363  -0.543  -2.229  0.00  0.00    +0.203 C 
ATOM     29  O   UNL     1      -3.804  -0.059  -3.256  0.00  0.00    -0.286 OA
BRANCH  28  30
ATOM     30  C   UNL     1      -1.991  -0.245  -1.807  0.00  0.00    +0.082 A 
ATOM     31  C   UNL     1      -0.992   0.463  -2.466  0.00  0.00    +0.057 A 
ATOM     32  N   UNL     1       0.151   0.571  -1.838  0.00  0.00    -0.249 NA
ATOM     33  C   UNL     1       0.341   0.040  -0.651  0.00  0.00    +0.076 A 
ATOM     34  S   UNL     1      -1.139  -0.682  -0.300  0.00  0.00    -0.069 S 
ATOM     35  C   UNL     1       1.585   0.074   0.197  0.00  0.00    +0.073 C 
ATOM     36  C   UNL     1      -1.213   1.070  -3.828  0.00  0.00    +0.067 C 
ENDBRANCH  28  30
ENDBRANCH   2  28
TORSDOF 6
