REMARK  Name = ZINC09722230
REMARK  13 active torsions:
REMARK  status: ('A' for Active; 'I' for Inactive)
REMARK    1  A    between atoms: C_1  and  C_2
REMARK    2  A    between atoms: C_2  and  O_3
REMARK    3  A    between atoms: O_3  and  C_4
REMARK    4  A    between atoms: C_9  and  N_10
REMARK    5  A    between atoms: C_11  and  C_13
REMARK    6  A    between atoms: C_13  and  C_15
REMARK    7  A    between atoms: C_13  and  N_63
REMARK    8  A    between atoms: C_21  and  C_22
REMARK    9  A    between atoms: C_21  and  N_63
REMARK   10  A    between atoms: N_24  and  C_25
REMARK   11  A    between atoms: C_26  and  C_33
REMARK   12  A    between atoms: C_28  and  C_32
REMARK   13  A    between atoms: C_30  and  C_31
REMARK                            x       y       z     vdW  Elec       q    Type
REMARK                         _______ _______ _______ _____ _____    ______ ____
ROOT
ATOM      1  C   UNL     1      -7.294   1.212  -0.719  0.00  0.00    +0.048 C 
ENDROOT
BRANCH   1   2
ATOM      2  C   UNL     1      -7.566   1.084  -2.195  0.00  0.00    -0.053 A 
ATOM      3  C   UNL     1      -7.337   2.157  -3.036  0.00  0.00    +0.002 A 
ATOM      4  C   UNL     1      -7.582   2.038  -4.391  0.00  0.00    +0.000 A 
ATOM      5  C   UNL     1      -8.066   0.849  -4.904  0.00  0.00    +0.000 A 
ATOM      6  C   UNL     1      -8.301  -0.222  -4.062  0.00  0.00    +0.000 A 
ATOM      7  C   UNL     1      -8.051  -0.104  -2.708  0.00  0.00    +0.002 A 
ENDBRANCH   1   2
BRANCH   1   9
ATOM      8  N   UNL     1      -9.684   1.421  -0.115  0.00  0.00    -0.284 N 
ATOM      9  C   UNL     1      -8.439   1.935  -0.057  0.00  0.00    +0.208 C 
ATOM     10  O   UNL     1      -8.241   2.979   0.527  0.00  0.00    -0.277 OA
ATOM     11  H   UNL     1      -9.832   0.556  -0.528  0.00  0.00    +0.155 HD
BRANCH   8  17
ATOM     12  C   UNL     1     -12.048   1.939  -0.079  0.00  0.00    +0.142 A 
ATOM     13  C   UNL     1     -13.112   2.649   0.455  0.00  0.00    +0.047 A 
ATOM     14  C   UNL     1     -12.896   3.551   1.480  0.00  0.00    +0.004 A 
ATOM     15  C   UNL     1     -11.620   3.747   1.976  0.00  0.00    +0.002 A 
ATOM     16  C   UNL     1     -10.555   3.039   1.453  0.00  0.00    +0.027 A 
ATOM     17  C   UNL     1     -10.763   2.136   0.420  0.00  0.00    +0.076 A 
BRANCH  12  18
ATOM     18  O   UNL     1     -12.259   1.051  -1.087  0.00  0.00    -0.490 OA
BRANCH  18  20
ATOM     19  C   UNL     1     -13.642  -0.132  -2.676  0.00  0.00    +0.048 C 
ATOM     20  C   UNL     1     -13.603   0.901  -1.549  0.00  0.00    +0.226 C 
ENDBRANCH  18  20
ENDBRANCH  12  18
ENDBRANCH   8  17
ENDBRANCH   1   9
BRANCH   1  21
ATOM     21  N   UNL     1      -6.052   1.982  -0.512  0.00  0.00    +0.395 N 
ATOM     22  H   UNL     1      -6.079   2.426   0.413  0.00  0.00    -0.084 HD
ATOM     23  H   UNL     1      -5.977   2.705  -1.237  0.00  0.00    -0.084 HD
BRANCH  21  24
ATOM     24  C   UNL     1      -4.879   1.091  -0.590  0.00  0.00    +0.017 C 
BRANCH  24  25
ATOM     25  C   UNL     1      -3.628   1.903  -0.375  0.00  0.00    +0.200 C 
ATOM     26  O   UNL     1      -3.706   3.097  -0.178  0.00  0.00    -0.278 OA
ATOM     27  N   UNL     1      -2.422   1.301  -0.402  0.00  0.00    -0.287 N 
ATOM     28  H   UNL     1      -2.362   0.336  -0.478  0.00  0.00    +0.155 HD
BRANCH  27  29
ATOM     29  C   UNL     1      -1.255   2.070  -0.320  0.00  0.00    +0.039 A 
ATOM     30  C   UNL     1      -1.055   2.919   0.760  0.00  0.00    -0.029 A 
ATOM     31  C   UNL     1       0.100   3.671   0.841  0.00  0.00    +0.008 A 
ATOM     32  C   UNL     1       1.055   3.584  -0.155  0.00  0.00    -0.050 A 
ATOM     33  C   UNL     1       0.856   2.744  -1.236  0.00  0.00    +0.008 A 
ATOM     34  C   UNL     1      -0.297   1.989  -1.323  0.00  0.00    -0.029 A 
ATOM     35  C   UNL     1      -0.512   1.073  -2.500  0.00  0.00    +0.045 C 
ATOM     36  C   UNL     1       2.314   4.406  -0.064  0.00  0.00    +0.044 C 
ATOM     37  C   UNL     1      -2.095   3.014   1.847  0.00  0.00    +0.045 C 
ENDBRANCH  27  29
ENDBRANCH  24  25
ENDBRANCH  21  24
ENDBRANCH   1  21
TORSDOF 9
