REMARK  Name = ZINC20532575
REMARK  9 active torsions:
REMARK  status: ('A' for Active; 'I' for Inactive)
REMARK    1  A    between atoms: C_1  and  C_2
REMARK    2  A    between atoms: C_5  and  S_8
REMARK    3  A    between atoms: S_8  and  N_11
REMARK    4  A    between atoms: N_15  and  C_28
REMARK    5  A    between atoms: C_16  and  C_18
REMARK    6  A    between atoms: C_16  and  C_19
REMARK    7  A    between atoms: N_21  and  C_22
REMARK    8  A    between atoms: C_32  and  C_35
REMARK    9  A    between atoms: C_33  and  C_34
REMARK                            x       y       z     vdW  Elec       q    Type
REMARK                         _______ _______ _______ _____ _____    ______ ____
ROOT
ATOM      1  N   UNL     1      -6.964   2.912   1.661  0.00  0.00    -0.165 NA
ATOM      2  C   UNL     1      -6.581   4.325   1.528  0.00  0.00    +0.205 C 
ATOM      3  C   UNL     1      -5.090   4.443   1.690  0.00  0.00    +0.236 C 
ATOM      4  O   UNL     1      -4.555   5.488   1.384  0.00  0.00    -0.274 OA
ATOM      5  N   UNL     1      -4.328   3.451   2.155  0.00  0.00    -0.254 N 
ATOM      6  C   UNL     1      -4.814   2.115   2.472  0.00  0.00    +0.129 C 
ATOM      7  C   UNL     1      -6.322   2.136   2.736  0.00  0.00    +0.145 C 
ATOM      8  C   UNL     1      -4.516   1.180   1.297  0.00  0.00    +0.043 C 
ENDROOT
BRANCH   5   9
ATOM      9  C   UNL     1      -2.967   3.712   2.347  0.00  0.00    +0.041 A 
ATOM     10  C   UNL     1      -2.515   4.186   3.572  0.00  0.00    +0.024 A 
ATOM     11  C   UNL     1      -1.171   4.442   3.758  0.00  0.00    +0.002 A 
ATOM     12  C   UNL     1      -0.275   4.226   2.727  0.00  0.00    +0.004 A 
ATOM     13  C   UNL     1      -0.722   3.754   1.506  0.00  0.00    -0.046 A 
ATOM     14  C   UNL     1      -2.066   3.502   1.312  0.00  0.00    -0.026 A 
ATOM     15  C   UNL     1      -2.553   2.993  -0.021  0.00  0.00    +0.046 C 
ATOM     16  C   UNL     1       0.258   3.521   0.385  0.00  0.00    +0.044 C 
ENDBRANCH   5   9
BRANCH   6  17
ATOM     17  C   UNL     1      -4.103   1.608   3.700  0.00  0.00    +0.238 C 
ATOM     18  O   UNL     1      -3.647   0.484   3.716  0.00  0.00    -0.273 OA
ATOM     19  N   UNL     1      -3.975   2.402   4.781  0.00  0.00    -0.311 N 
ATOM     20  H   UNL     1      -4.448   3.396   4.793  0.00  0.00    +0.149 HD
BRANCH  19  21
ATOM     21  C   UNL     1      -3.206   1.944   5.941  0.00  0.00    +0.073 C 
ATOM     22  C   UNL     1      -4.106   1.102   6.848  0.00  0.00    +0.022 C 
ATOM     23  C   UNL     1      -3.303   0.623   8.059  0.00  0.00    +0.002 C 
ATOM     24  C   UNL     1      -2.782   1.833   8.837  0.00  0.00    +0.000 C 
ATOM     25  C   UNL     1      -1.883   2.675   7.930  0.00  0.00    +0.002 C 
ATOM     26  C   UNL     1      -2.686   3.154   6.719  0.00  0.00    +0.022 C 
ENDBRANCH  19  21
ENDBRANCH   6  17
BRANCH   1  27
ATOM     27  S   UNL     1      -8.072   2.220   0.643  0.00  0.00    +0.061 S 
ATOM     28  O   UNL     1      -8.621   1.107   1.337  0.00  0.00    -0.153 OA
ATOM     29  O   UNL     1      -8.877   3.277   0.140  0.00  0.00    -0.153 OA
BRANCH  27  34
ATOM     30  C   UNL     1      -5.025  -0.015  -4.061  0.00  0.00    +0.044 C 
ATOM     31  C   UNL     1      -5.785   0.543  -2.886  0.00  0.00    -0.050 A 
ATOM     32  C   UNL     1      -6.011  -0.243  -1.772  0.00  0.00    +0.005 A 
ATOM     33  C   UNL     1      -6.709   0.269  -0.694  0.00  0.00    +0.029 A 
ATOM     34  C   UNL     1      -7.182   1.567  -0.730  0.00  0.00    +0.106 A 
ATOM     35  C   UNL     1      -6.960   2.352  -1.846  0.00  0.00    +0.029 A 
ATOM     36  C   UNL     1      -6.258   1.842  -2.922  0.00  0.00    +0.005 A 
ENDBRANCH  27  34
ENDBRANCH   1  27
TORSDOF 5
