REMARK  Name = ZINC11029386
REMARK  9 active torsions:
REMARK  status: ('A' for Active; 'I' for Inactive)
REMARK    1  A    between atoms: C_4  and  C_19
REMARK    2  A    between atoms: C_5  and  C_7
REMARK    3  A    between atoms: C_7  and  C_9
REMARK    4  A    between atoms: C_13  and  N_15
REMARK    5  A    between atoms: C_19  and  O_21
REMARK    6  A    between atoms: O_21  and  C_22
REMARK    7  A    between atoms: C_22  and  C_23
REMARK    8  A    between atoms: N_25  and  C_26
REMARK    9  A    between atoms: C_26  and  C_31
REMARK                            x       y       z     vdW  Elec       q    Type
REMARK                         _______ _______ _______ _____ _____    ______ ____
ROOT
ATOM      1  C   UNL     1       4.698   4.107   0.092  0.00  0.00    +0.001 A 
ATOM      2  C   UNL     1       5.955   3.533   0.022  0.00  0.00    +0.001 A 
ATOM      3  C   UNL     1       6.095   2.160  -0.050  0.00  0.00    +0.016 A 
ATOM      4  C   UNL     1       4.966   1.344  -0.052  0.00  0.00    +0.070 A 
ATOM      5  C   UNL     1       3.687   1.928   0.019  0.00  0.00    +0.036 A 
ATOM      6  C   UNL     1       3.566   3.314   0.086  0.00  0.00    +0.012 A 
ENDROOT
BRANCH   5   7
ATOM      7  C   UNL     1       2.479   1.075   0.018  0.00  0.00    +0.194 C 
ATOM      8  O   UNL     1       1.809   0.972  -0.991  0.00  0.00    -0.287 OA
BRANCH   7   9
ATOM      9  C   UNL     1       2.087   0.348   1.241  0.00  0.00    +0.025 A 
ATOM     10  C   UNL     1       2.906   0.385   2.373  0.00  0.00    +0.013 A 
ATOM     11  C   UNL     1       2.534  -0.295   3.512  0.00  0.00    +0.023 A 
ATOM     12  C   UNL     1       1.350  -1.015   3.538  0.00  0.00    +0.071 A 
ATOM     13  C   UNL     1       0.531  -1.052   2.421  0.00  0.00    +0.145 A 
ATOM     14  C   UNL     1       0.894  -0.380   1.274  0.00  0.00    +0.046 A 
ATOM     15 CL   UNL     1       0.889  -1.870   4.976  0.00  0.00    -0.081 Cl
BRANCH  13  16
ATOM     16  N   UNL     1      -0.735  -1.818   2.459  0.00  0.00    +0.058 N 
ATOM     17  O   UNL     1      -1.454  -1.855   1.477  0.00  0.00    -0.126 OA
ATOM     18  O   UNL     1      -1.057  -2.412   3.472  0.00  0.00    -0.126 OA
ENDBRANCH  13  16
ENDBRANCH   7   9
ENDBRANCH   5   7
BRANCH   4  19
ATOM     19  C   UNL     1       5.111  -0.125  -0.128  0.00  0.00    +0.340 C 
ATOM     20  O   UNL     1       4.125  -0.827  -0.235  0.00  0.00    -0.245 OA
BRANCH  19  21
ATOM     21  O   UNL     1       6.335  -0.685  -0.079  0.00  0.00    -0.452 OA
BRANCH  21  22
ATOM     22  C   UNL     1       6.401  -2.133  -0.160  0.00  0.00    +0.328 C 
BRANCH  22  23
ATOM     23  C   UNL     1       7.840  -2.575  -0.089  0.00  0.00    +0.252 C 
ATOM     24  O   UNL     1       8.723  -1.751   0.018  0.00  0.00    -0.272 OA
ATOM     25  N   UNL     1       8.145  -3.887  -0.145  0.00  0.00    -0.295 N 
ATOM     26  H   UNL     1       7.439  -4.546  -0.231  0.00  0.00    +0.150 HD
BRANCH  25  27
ATOM     27  C   UNL     1       9.544  -4.316  -0.077  0.00  0.00    +0.121 C 
ATOM     28  C   UNL     1      10.330  -3.749  -1.277  0.00  0.00    +0.041 C 
ATOM     29  C   UNL     1      11.315  -4.885  -1.656  0.00  0.00    +0.003 C 
ATOM     30  C   UNL     1      10.466  -6.162  -1.437  0.00  0.00    +0.003 C 
ATOM     31  C   UNL     1       9.630  -5.849  -0.178  0.00  0.00    +0.041 C 
BRANCH  27  32
ATOM     32  C   UNL     1      10.151  -3.860   1.184  0.00  0.00    +0.088 C 
ATOM     33  N   UNL     1      10.618  -3.507   2.157  0.00  0.00    -0.194 NA
ENDBRANCH  27  32
ENDBRANCH  25  27
ENDBRANCH  22  23
ENDBRANCH  21  22
ENDBRANCH  19  21
ENDBRANCH   4  19
TORSDOF 9
