REMARK  Name = ZINC36146365
REMARK  14 active torsions:
REMARK  status: ('A' for Active; 'I' for Inactive)
REMARK    1  A    between atoms: C_1  and  C_2
REMARK    2  A    between atoms: C_2  and  C_3
REMARK    3  A    between atoms: C_2  and  C_4
REMARK    4  A    between atoms: C_2  and  O_5
REMARK    5  A    between atoms: O_5  and  C_6
REMARK    6  A    between atoms: C_6  and  C_7
REMARK    7  A    between atoms: C_7  and  C_9
REMARK    8  A    between atoms: C_7  and  O_33
REMARK    9  A    between atoms: C_9  and  N_10
REMARK   10  A    between atoms: N_10  and  C_11
REMARK   11  A    between atoms: N_10  and  C_19
REMARK   12  A    between atoms: C_11  and  C_12
REMARK   13  A    between atoms: C_19  and  C_20
REMARK   14  A    between atoms: C_23  and  C_26
REMARK                            x       y       z     vdW  Elec       q    Type
REMARK                         _______ _______ _______ _____ _____    ______ ____
ROOT
ATOM      1  N   UNL     1       4.404  -0.711  -4.081  0.00  0.00    +0.387 N 
ATOM      2  H   UNL     1       4.166  -1.517  -4.639  0.00  0.00    -0.081 HD
ENDROOT
BRANCH   1   3
ATOM      3  C   UNL     1       3.195  -0.191  -3.429  0.00  0.00    -0.044 C 
BRANCH   3   4
ATOM      4  C   UNL     1       1.968  -0.555  -4.266  0.00  0.00    +0.124 C 
BRANCH   4   5
ATOM      5  O   UNL     1       2.050   0.091  -5.538  0.00  0.00    -0.391 OA
ATOM      6  H   UNL     1       2.012   1.056  -5.493  0.00  0.00    +0.210 HD
ENDBRANCH   4   5
BRANCH   4   7
ATOM      7  C   UNL     1       0.701  -0.095  -3.542  0.00  0.00    +0.189 C 
BRANCH   7   8
ATOM      8  O   UNL     1      -0.449  -0.537  -4.266  0.00  0.00    -0.372 OA
BRANCH   8  10
ATOM      9  C   UNL     1      -1.771   1.368  -3.585  0.00  0.00    +0.041 C 
ATOM     10  C   UNL     1      -1.692  -0.158  -3.671  0.00  0.00    +0.061 C 
ATOM     11  C   UNL     1      -1.787  -0.753  -2.265  0.00  0.00    +0.041 C 
ATOM     12  C   UNL     1      -2.847  -0.681  -4.526  0.00  0.00    +0.041 C 
ENDBRANCH   8  10
ENDBRANCH   7   8
ENDBRANCH   4   7
ENDBRANCH   3   4
ENDBRANCH   1   3
BRANCH   1  13
ATOM     13  C   UNL     1       4.981   0.329  -4.943  0.00  0.00    -0.041 C 
BRANCH  13  14
ATOM     14  C   UNL     1       5.478   1.469  -4.092  0.00  0.00    -0.046 A 
ATOM     15  C   UNL     1       4.578   2.344  -3.515  0.00  0.00    +0.003 A 
ATOM     16  C   UNL     1       5.033   3.390  -2.734  0.00  0.00    +0.000 A 
ATOM     17  C   UNL     1       6.390   3.561  -2.530  0.00  0.00    +0.001 A 
ATOM     18  C   UNL     1       7.291   2.687  -3.107  0.00  0.00    +0.020 A 
ATOM     19  C   UNL     1       6.836   1.636  -3.884  0.00  0.00    +0.042 A 
ATOM     20 CL   UNL     1       7.967   0.533  -4.603  0.00  0.00    -0.083 Cl
ENDBRANCH  13  14
ENDBRANCH   1  13
BRANCH   1  21
ATOM     21  C   UNL     1       5.385  -1.097  -3.057  0.00  0.00    -0.030 C 
BRANCH  21  22
ATOM     22  C   UNL     1       6.373  -2.104  -3.651  0.00  0.00    +0.194 C 
ATOM     23  C   UNL     1       7.632  -2.235  -2.762  0.00  0.00    +0.104 C 
ATOM     24  C   UNL     1       8.743  -2.384  -3.783  0.00  0.00    +0.092 C 
ATOM     25  N   UNL     1       8.285  -2.024  -4.935  0.00  0.00    -0.089 NA
ATOM     26  O   UNL     1       6.934  -1.609  -4.885  0.00  0.00    -0.392 OA
BRANCH  24  27
ATOM     27  C   UNL     1      10.113  -2.860  -3.507  0.00  0.00    +0.018 A 
ATOM     28  C   UNL     1      10.452  -3.321  -2.234  0.00  0.00    +0.011 A 
ATOM     29  C   UNL     1      11.734  -3.764  -1.983  0.00  0.00    +0.001 A 
ATOM     30  C   UNL     1      12.684  -3.751  -2.989  0.00  0.00    +0.001 A 
ATOM     31  C   UNL     1      12.357  -3.295  -4.253  0.00  0.00    +0.020 A 
ATOM     32  C   UNL     1      11.075  -2.855  -4.521  0.00  0.00    +0.050 A 
ATOM     33 CL   UNL     1      10.663  -2.290  -6.109  0.00  0.00    -0.083 Cl
ENDBRANCH  24  27
ENDBRANCH  21  22
ENDBRANCH   1  21
TORSDOF 11
