REMARK  Name = ZINC09892422
REMARK  9 active torsions:
REMARK  status: ('A' for Active; 'I' for Inactive)
REMARK    1  A    between atoms: C_1  and  C_2
REMARK    2  A    between atoms: C_5  and  N_9
REMARK    3  A    between atoms: C_6  and  C_8
REMARK    4  A    between atoms: C_10  and  C_12
REMARK    5  A    between atoms: C_13  and  C_37
REMARK    6  A    between atoms: C_20  and  C_22
REMARK    7  A    between atoms: C_26  and  O_28
REMARK    8  A    between atoms: O_28  and  C_29
REMARK    9  A    between atoms: C_29  and  C_30
REMARK                            x       y       z     vdW  Elec       q    Type
REMARK                         _______ _______ _______ _____ _____    ______ ____
ROOT
ATOM      1  C   UNL     1      -4.844   3.552   5.721  0.00  0.00    +0.060 C 
ATOM      2  C   UNL     1      -6.172   3.672   5.585  0.00  0.00    +0.018 C 
ATOM      3  N   UNL     1      -6.981   4.080   6.617  0.00  0.00    -0.287 N 
ATOM      4  C   UNL     1      -6.421   4.130   7.887  0.00  0.00    +0.218 A 
ATOM      5  N   UNL     1      -6.989   4.264   9.053  0.00  0.00    -0.201 NA
ATOM      6  C   UNL     1      -6.056   4.249  10.011  0.00  0.00    +0.247 A 
ATOM      7  N   UNL     1      -4.876   4.106   9.459  0.00  0.00    -0.156 NA
ATOM      8  N   UNL     1      -5.082   4.029   8.083  0.00  0.00    -0.221 N 
ATOM      9  C   UNL     1      -4.116   3.875   6.999  0.00  0.00    +0.177 C 
ATOM     10  C   UNL     1      -6.801   3.340   4.255  0.00  0.00    +0.061 C 
ATOM     11  H   UNL     1      -7.906   4.328   6.465  0.00  0.00    +0.155 HD
ENDROOT
BRANCH   9  12
ATOM     12  C   UNL     1      -3.344   5.158   6.827  0.00  0.00    -0.015 A 
ATOM     13  C   UNL     1      -4.011   6.329   6.517  0.00  0.00    +0.006 A 
ATOM     14  C   UNL     1      -3.306   7.508   6.360  0.00  0.00    +0.004 A 
ATOM     15  C   UNL     1      -1.933   7.518   6.513  0.00  0.00    +0.045 A 
ATOM     16  C   UNL     1      -1.262   6.345   6.823  0.00  0.00    +0.121 A 
ATOM     17  C   UNL     1      -1.972   5.164   6.986  0.00  0.00    +0.051 A 
BRANCH  16  18
ATOM     18  O   UNL     1       0.089   6.353   6.974  0.00  0.00    -0.487 OA
BRANCH  18  19
ATOM     19  C   UNL     1       0.754   7.605   6.799  0.00  0.00    +0.264 C 
BRANCH  19  20
ATOM     20  C   UNL     1       2.236   7.420   7.003  0.00  0.00    -0.010 A 
ATOM     21  C   UNL     1       2.783   7.575   8.263  0.00  0.00    +0.010 A 
ATOM     22  C   UNL     1       4.141   7.400   8.453  0.00  0.00    +0.039 A 
ATOM     23  C   UNL     1       4.954   7.081   7.378  0.00  0.00    +0.123 A 
ATOM     24  C   UNL     1       4.405   6.933   6.116  0.00  0.00    +0.039 A 
ATOM     25  C   UNL     1       3.046   7.102   5.930  0.00  0.00    +0.010 A 
ATOM     26  F   UNL     1       6.283   6.917   7.561  0.00  0.00    -0.205 F 
ENDBRANCH  19  20
ENDBRANCH  18  19
ENDBRANCH  16  18
ENDBRANCH   9  12
BRANCH   1  28
ATOM     27  N   UNL     1      -3.686   3.989   3.673  0.00  0.00    -0.281 N 
ATOM     28  C   UNL     1      -4.089   3.108   4.610  0.00  0.00    +0.248 C 
ATOM     29  O   UNL     1      -3.804   1.929   4.500  0.00  0.00    -0.270 OA
ATOM     30  H   UNL     1      -3.842   4.937   3.800  0.00  0.00    +0.155 HD
BRANCH  27  35
ATOM     31  C   UNL     1      -1.078   2.147  -1.015  0.00  0.00    +0.044 C 
ATOM     32  C   UNL     1      -1.770   2.636   0.230  0.00  0.00    -0.050 A 
ATOM     33  C   UNL     1      -2.624   1.795   0.920  0.00  0.00    +0.005 A 
ATOM     34  C   UNL     1      -3.257   2.239   2.065  0.00  0.00    +0.024 A 
ATOM     35  C   UNL     1      -3.043   3.535   2.517  0.00  0.00    +0.037 A 
ATOM     36  C   UNL     1      -2.190   4.378   1.819  0.00  0.00    -0.029 A 
ATOM     37  C   UNL     1      -1.556   3.927   0.677  0.00  0.00    +0.008 A 
ATOM     38  C   UNL     1      -1.955   5.785   2.305  0.00  0.00    +0.045 C 
ENDBRANCH  27  35
ENDBRANCH   1  28
TORSDOF 6
