REMARK  Name = ZINC64986031
REMARK  7 active torsions:
REMARK  status: ('A' for Active; 'I' for Inactive)
REMARK    1  A    between atoms: C_1  and  C_2
REMARK    2  A    between atoms: C_5  and  S_8
REMARK    3  A    between atoms: S_8  and  N_11
REMARK    4  A    between atoms: C_13  and  C_23
REMARK    5  A    between atoms: C_20  and  C_22
REMARK    6  A    between atoms: N_25  and  C_26
REMARK    7  A    between atoms: C_31  and  C_32
REMARK                            x       y       z     vdW  Elec       q    Type
REMARK                         _______ _______ _______ _____ _____    ______ ____
ROOT
ATOM      1  N   UNL     1       1.656  -4.970  -0.048  0.00  0.00    -0.195 N 
ATOM      2  C   UNL     1       2.382  -5.184  -1.312  0.00  0.00    +0.186 C 
ATOM      3  C   UNL     1       3.221  -6.461  -1.154  0.00  0.00    +0.278 C 
ATOM      4  O   UNL     1       4.105  -6.296  -0.043  0.00  0.00    -0.476 OA
ATOM      5  C   UNL     1       3.576  -5.853   1.128  0.00  0.00    +0.144 A 
ATOM      6  C   UNL     1       2.356  -5.179   1.150  0.00  0.00    +0.093 A 
ATOM      7  C   UNL     1       1.833  -4.723   2.349  0.00  0.00    +0.029 A 
ATOM      8  C   UNL     1       2.525  -4.933   3.528  0.00  0.00    +0.005 A 
ATOM      9  C   UNL     1       3.736  -5.598   3.510  0.00  0.00    -0.047 A 
ATOM     10  C   UNL     1       4.260  -6.066   2.314  0.00  0.00    +0.051 A 
ATOM     11  C   UNL     1       4.486  -5.826   4.797  0.00  0.00    +0.044 C 
ENDROOT
BRANCH   3  12
ATOM     12  C   UNL     1       4.020  -6.699  -2.409  0.00  0.00    +0.260 C 
ATOM     13  O   UNL     1       5.231  -6.647  -2.376  0.00  0.00    -0.271 OA
ATOM     14  N   UNL     1       3.389  -6.970  -3.569  0.00  0.00    -0.282 N 
ATOM     15  H   UNL     1       2.426  -7.090  -3.580  0.00  0.00    +0.155 HD
BRANCH  14  16
ATOM     16  C   UNL     1       4.122  -7.076  -4.756  0.00  0.00    +0.038 A 
ATOM     17  C   UNL     1       5.345  -6.430  -4.879  0.00  0.00    +0.043 A 
ATOM     18  C   UNL     1       6.066  -6.538  -6.052  0.00  0.00    +0.043 A 
ATOM     19  C   UNL     1       5.571  -7.289  -7.104  0.00  0.00    +0.020 A 
ATOM     20  C   UNL     1       4.353  -7.932  -6.984  0.00  0.00    +0.006 A 
ATOM     21  C   UNL     1       3.630  -7.833  -5.811  0.00  0.00    -0.029 A 
ATOM     22  C   UNL     1       2.306  -8.540  -5.679  0.00  0.00    +0.045 C 
ATOM     23 CL   UNL     1       7.596  -5.731  -6.208  0.00  0.00    -0.083 Cl
ENDBRANCH  14  16
ENDBRANCH   3  12
BRANCH   1  24
ATOM     24  S   UNL     1       0.071  -4.492  -0.042  0.00  0.00    +0.075 S 
ATOM     25  O   UNL     1      -0.472  -4.902   1.205  0.00  0.00    -0.150 OA
ATOM     26  O   UNL     1      -0.482  -4.902  -1.285  0.00  0.00    -0.150 OA
BRANCH  24  31
ATOM     27  C   UNL     1       0.023   1.542  -0.044  0.00  0.00    +0.044 C 
ATOM     28  C   UNL     1       0.035   0.035  -0.043  0.00  0.00    -0.050 A 
ATOM     29  C   UNL     1       0.037  -0.657  -1.240  0.00  0.00    +0.005 A 
ATOM     30  C   UNL     1       0.048  -2.039  -1.240  0.00  0.00    +0.029 A 
ATOM     31  C   UNL     1       0.058  -2.730  -0.043  0.00  0.00    +0.109 A 
ATOM     32  C   UNL     1       0.057  -2.038   1.154  0.00  0.00    +0.029 A 
ATOM     33  C   UNL     1       0.050  -0.656   1.154  0.00  0.00    +0.005 A 
ENDBRANCH  24  31
ENDBRANCH   1  24
TORSDOF 4
