REMARK  Name = ZINC35745148
REMARK  17 active torsions:
REMARK  status: ('A' for Active; 'I' for Inactive)
REMARK    1  A    between atoms: C_1  and  O_2
REMARK    2  A    between atoms: O_2  and  C_3
REMARK    3  A    between atoms: C_3  and  C_4
REMARK    4  A    between atoms: C_4  and  C_5
REMARK    5  A    between atoms: C_5  and  N_6
REMARK    6  A    between atoms: N_6  and  C_7
REMARK    7  A    between atoms: N_6  and  C_15
REMARK    8  A    between atoms: C_7  and  C_8
REMARK    9  A    between atoms: C_15  and  C_16
REMARK   10  A    between atoms: C_19  and  C_21
REMARK   11  A    between atoms: C_21  and  C_22
REMARK   12  A    between atoms: C_21  and  C_30
REMARK   13  A    between atoms: C_21  and  O_38
REMARK   14  A    between atoms: C_25  and  O_28
REMARK   15  A    between atoms: O_28  and  C_29
REMARK   16  A    between atoms: C_33  and  O_36
REMARK   17  A    between atoms: O_36  and  C_37
REMARK                            x       y       z     vdW  Elec       q    Type
REMARK                         _______ _______ _______ _____ _____    ______ ____
ROOT
ATOM      1  C   UNL     1      -2.162  -6.071   0.930  0.00  0.00    +0.089 A 
ATOM      2  C   UNL     1      -2.024  -7.123   1.757  0.00  0.00    +0.043 A 
ATOM      3  C   UNL     1      -1.867  -8.268   0.941  0.00  0.00    +0.048 A 
ATOM      4  C   UNL     1      -1.919  -7.846  -0.336  0.00  0.00    +0.146 A 
ATOM      5  O   UNL     1      -2.104  -6.516  -0.336  0.00  0.00    -0.463 OA
ENDROOT
BRANCH   1   6
ATOM      6  C   UNL     1      -2.356  -4.638   1.353  0.00  0.00    -0.003 C 
BRANCH   6   7
ATOM      7  N   UNL     1      -1.048  -4.027   1.628  0.00  0.00    +0.387 N 
ATOM      8  H   UNL     1      -0.547  -4.593   2.296  0.00  0.00    -0.081 HD
BRANCH   7   9
ATOM      9  C   UNL     1      -0.276  -3.942   0.381  0.00  0.00    -0.076 C 
BRANCH   9  10
ATOM     10  C   UNL     1       1.130  -3.422   0.687  0.00  0.00    +0.009 C 
BRANCH  10  11
ATOM     11  C   UNL     1       1.934  -3.333  -0.612  0.00  0.00    +0.157 C 
BRANCH  11  13
ATOM     12  C   UNL     1       4.086  -2.727  -1.477  0.00  0.00    +0.193 C 
ATOM     13  O   UNL     1       3.248  -2.848  -0.326  0.00  0.00    -0.383 OA
ENDBRANCH  11  13
ENDBRANCH  10  11
ENDBRANCH   9  10
ENDBRANCH   7   9
BRANCH   7  14
ATOM     14  C   UNL     1      -1.244  -2.679   2.176  0.00  0.00    -0.040 C 
BRANCH  14  15
ATOM     15  C   UNL     1      -1.929  -2.775   3.515  0.00  0.00    -0.029 A 
ATOM     16  C   UNL     1      -3.266  -2.446   3.633  0.00  0.00    +0.004 A 
ATOM     17  C   UNL     1      -3.894  -2.535   4.861  0.00  0.00    +0.000 A 
ATOM     18  C   UNL     1      -3.186  -2.951   5.973  0.00  0.00    +0.003 A 
ATOM     19  C   UNL     1      -1.849  -3.281   5.857  0.00  0.00    +0.038 A 
ATOM     20  C   UNL     1      -1.220  -3.198   4.627  0.00  0.00    +0.125 A 
ATOM     21  F   UNL     1       0.086  -3.524   4.512  0.00  0.00    -0.205 F 
ENDBRANCH  14  15
ENDBRANCH   7  14
ENDBRANCH   6   7
ENDBRANCH   1   6
BRANCH   4  22
ATOM     22  C   UNL     1      -1.797  -8.719  -1.558  0.00  0.00    +0.174 C 
BRANCH  22  23
ATOM     23  C   UNL     1      -2.591  -8.116  -2.688  0.00  0.00    -0.004 A 
ATOM     24  C   UNL     1      -3.678  -8.794  -3.207  0.00  0.00    +0.011 A 
ATOM     25  C   UNL     1      -4.407  -8.243  -4.243  0.00  0.00    +0.046 A 
ATOM     26  C   UNL     1      -4.048  -7.008  -4.762  0.00  0.00    +0.120 A 
ATOM     27  C   UNL     1      -2.957  -6.329  -4.239  0.00  0.00    +0.046 A 
ATOM     28  C   UNL     1      -2.234  -6.882  -3.200  0.00  0.00    +0.011 A 
BRANCH  26  29
ATOM     29  O   UNL     1      -4.764  -6.464  -5.782  0.00  0.00    -0.495 OA
ATOM     30  C   UNL     1      -4.336  -5.190  -6.266  0.00  0.00    +0.277 C 
ENDBRANCH  26  29
ENDBRANCH  22  23
BRANCH  22  31
ATOM     31  C   UNL     1      -0.348  -8.820  -1.960  0.00  0.00    -0.004 A 
ATOM     32  C   UNL     1       0.462  -7.701  -1.910  0.00  0.00    +0.011 A 
ATOM     33  C   UNL     1       1.790  -7.791  -2.278  0.00  0.00    +0.046 A 
ATOM     34  C   UNL     1       2.311  -9.006  -2.699  0.00  0.00    +0.120 A 
ATOM     35  C   UNL     1       1.497 -10.128  -2.747  0.00  0.00    +0.046 A 
ATOM     36  C   UNL     1       0.170 -10.034  -2.373  0.00  0.00    +0.011 A 
BRANCH  34  37
ATOM     37  O   UNL     1       3.618  -9.097  -3.062  0.00  0.00    -0.495 OA
ATOM     38  C   UNL     1       4.086 -10.379  -3.484  0.00  0.00    +0.277 C 
ENDBRANCH  34  37
ENDBRANCH  22  31
BRANCH  22  39
ATOM     39  O   UNL     1      -2.302 -10.023  -1.264  0.00  0.00    -0.372 OA
ATOM     40  H   UNL     1      -3.231 -10.034  -0.997  0.00  0.00    +0.212 HD
ENDBRANCH  22  39
ENDBRANCH   4  22
TORSDOF 14
