REMARK  Name = ZINC12496850
REMARK  10 active torsions:
REMARK  status: ('A' for Active; 'I' for Inactive)
REMARK    1  A    between atoms: C_1  and  O_2
REMARK    2  A    between atoms: O_2  and  C_3
REMARK    3  A    between atoms: C_3  and  C_5
REMARK    4  A    between atoms: C_5  and  C_31
REMARK    5  A    between atoms: C_10  and  C_12
REMARK    6  A    between atoms: C_15  and  O_18
REMARK    7  A    between atoms: N_21  and  C_24
REMARK    8  A    between atoms: C_31  and  C_32
REMARK    9  A    between atoms: C_32  and  S_33
REMARK   10  A    between atoms: S_33  and  C_34
REMARK                            x       y       z     vdW  Elec       q    Type
REMARK                         _______ _______ _______ _____ _____    ______ ____
ROOT
ATOM      1  C   UNL     1       0.578   1.916  -2.189  0.00  0.00    +0.044 C 
ATOM      2  C   UNL     1       1.802   1.327  -1.490  0.00  0.00    +0.086 C 
ATOM      3  C   UNL     1       1.359   1.632  -0.002  0.00  0.00    +0.077 C 
ATOM      4  C   UNL     1      -0.013   1.086   0.008  0.00  0.00    -0.027 C 
ATOM      5  C   UNL     1       2.610   1.462   0.700  0.00  0.00    +0.229 C 
ATOM      6  O   UNL     1       2.782   1.000   1.807  0.00  0.00    -0.275 OA
ATOM      7  N   UNL     1       3.562   1.941  -0.166  0.00  0.00    -0.210 N 
ATOM      8  C   UNL     1       3.082   2.114  -1.434  0.00  0.00    +0.229 C 
ATOM      9  O   UNL     1       3.583   2.764  -2.326  0.00  0.00    -0.275 OA
ATOM     10  N   UNL     1      -0.560   1.621  -1.278  0.00  0.00    +0.395 N 
ATOM     11  H   UNL     1      -1.176   0.922  -1.710  0.00  0.00    -0.083 HD
ATOM     12  H   UNL     1      -1.091   2.481  -1.097  0.00  0.00    -0.083 HD
ENDROOT
BRANCH   7  13
ATOM     13  C   UNL     1       4.884   2.222   0.210  0.00  0.00    +0.044 A 
ATOM     14  C   UNL     1       5.787   2.700  -0.730  0.00  0.00    +0.027 A 
ATOM     15  C   UNL     1       7.087   2.982  -0.357  0.00  0.00    +0.040 A 
ATOM     16  C   UNL     1       7.492   2.778   0.952  0.00  0.00    +0.124 A 
ATOM     17  C   UNL     1       6.594   2.296   1.889  0.00  0.00    +0.040 A 
ATOM     18  C   UNL     1       5.292   2.019   1.521  0.00  0.00    +0.027 A 
ATOM     19  F   UNL     1       8.765   3.050   1.314  0.00  0.00    -0.205 F 
ENDBRANCH   7  13
BRANCH   4  20
ATOM     20  C   UNL     1      -0.790   1.605   1.190  0.00  0.00    -0.060 A 
ATOM     21  C   UNL     1      -1.292   2.893   1.175  0.00  0.00    +0.005 A 
ATOM     22  C   UNL     1      -2.010   3.369   2.255  0.00  0.00    +0.045 A 
ATOM     23  C   UNL     1      -2.217   2.557   3.361  0.00  0.00    +0.117 A 
ATOM     24  C   UNL     1      -1.707   1.267   3.376  0.00  0.00    +0.045 A 
ATOM     25  C   UNL     1      -0.995   0.793   2.291  0.00  0.00    +0.005 A 
BRANCH  23  26
ATOM     26  O   UNL     1      -2.918   3.025   4.426  0.00  0.00    -0.507 OA
ATOM     27  H   UNL     1      -2.373   3.460   5.096  0.00  0.00    +0.292 HD
ENDBRANCH  23  26
ENDBRANCH   4  20
BRANCH   1  28
ATOM     28  C   UNL     1       0.371   1.256  -3.527  0.00  0.00    +0.297 C 
ATOM     29  O   UNL     1       1.307   0.753  -4.104  0.00  0.00    -0.252 OA
BRANCH  28  31
ATOM     30  C   UNL     1      -0.977   0.573  -5.370  0.00  0.00    +0.280 C 
ATOM     31  O   UNL     1      -0.852   1.226  -4.080  0.00  0.00    -0.469 OA
ENDBRANCH  28  31
ENDBRANCH   1  28
BRANCH   1  32
ATOM     32  C   UNL     1       0.744   3.427  -2.364  0.00  0.00    +0.010 C 
BRANCH  32  33
ATOM     33  C   UNL     1      -0.541   4.016  -2.950  0.00  0.00    +0.068 C 
BRANCH  33  34
ATOM     34  S   UNL     1      -0.344   5.808  -3.158  0.00  0.00    -0.164 S 
ATOM     35  C   UNL     1      -1.931   6.346  -3.852  0.00  0.00    +0.084 C 
ENDBRANCH  33  34
ENDBRANCH  32  33
ENDBRANCH   1  32
TORSDOF 8
