REMARK  Name = ZINC33291937
REMARK  10 active torsions:
REMARK  status: ('A' for Active; 'I' for Inactive)
REMARK    1  A    between atoms: C_1  and  C_2
REMARK    2  A    between atoms: C_7  and  C_8
REMARK    3  A    between atoms: C_8  and  N_9
REMARK    4  A    between atoms: N_21  and  C_24
REMARK    5  A    between atoms: C_24  and  C_25
REMARK    6  A    between atoms: C_25  and  C_26
REMARK    7  A    between atoms: N_28  and  C_29
REMARK    8  A    between atoms: C_29  and  C_30
REMARK    9  A    between atoms: C_30  and  C_31
REMARK   10  A    between atoms: C_30  and  C_32
REMARK                            x       y       z     vdW  Elec       q    Type
REMARK                         _______ _______ _______ _____ _____    ______ ____
ROOT
ATOM      1  N   UNL     1       4.463   0.762  -0.038  0.00  0.00    -0.206 N 
ATOM      2  C   UNL     1       3.681   1.860  -0.025  0.00  0.00    +0.353 A 
ATOM      3  O   UNL     1       4.064   3.016  -0.022  0.00  0.00    -0.244 OA
ATOM      4  N   UNL     1       2.397   1.445  -0.013  0.00  0.00    -0.229 N 
ATOM      5  C   UNL     1       1.202   2.164   0.002  0.00  0.00    +0.067 A 
ATOM      6  C   UNL     1       1.203   3.550   0.010  0.00  0.00    +0.027 A 
ATOM      7  C   UNL     1       0.006   4.239   0.026  0.00  0.00    +0.002 A 
ATOM      8  C   UNL     1      -1.200   3.555   0.034  0.00  0.00    +0.001 A 
ATOM      9  C   UNL     1      -1.220   2.176   0.031  0.00  0.00    +0.015 A 
ATOM     10  C   UNL     1      -0.018   1.470   0.010  0.00  0.00    +0.064 A 
ATOM     11  C   UNL     1       0.002  -0.004   0.002  0.00  0.00    +0.263 A 
ATOM     12  O   UNL     1      -1.037  -0.636   0.008  0.00  0.00    -0.267 OA
ATOM     13  N   UNL     1       1.190  -0.641  -0.013  0.00  0.00    -0.276 N 
ATOM     14  C   UNL     1       2.383   0.068  -0.021  0.00  0.00    +0.240 A 
ATOM     15  N   UNL     1       3.618  -0.355  -0.036  0.00  0.00    -0.129 NA
ENDROOT
BRANCH   1  16
ATOM     16  C   UNL     1       5.928   0.741  -0.053  0.00  0.00    +0.184 C 
BRANCH  16  23
ATOM     17  C   UNL     1       5.968  -1.730   1.444  0.00  0.00    +0.044 C 
ATOM     18  C   UNL     1       6.463  -0.457   2.079  0.00  0.00    -0.046 A 
ATOM     19  C   UNL     1       6.940  -0.472   3.376  0.00  0.00    +0.004 A 
ATOM     20  C   UNL     1       7.390   0.698   3.961  0.00  0.00    +0.000 A 
ATOM     21  C   UNL     1       7.366   1.881   3.246  0.00  0.00    +0.000 A 
ATOM     22  C   UNL     1       6.893   1.895   1.948  0.00  0.00    +0.006 A 
ATOM     23  C   UNL     1       6.444   0.725   1.363  0.00  0.00    -0.023 A 
ENDBRANCH  16  23
ENDBRANCH   1  16
BRANCH  13  24
ATOM     24  C   UNL     1       1.222  -2.106  -0.021  0.00  0.00    +0.137 C 
BRANCH  24  25
ATOM     25  C   UNL     1       1.220  -2.608  -1.466  0.00  0.00    +0.117 C 
BRANCH  25  26
ATOM     26  C   UNL     1       1.253  -4.114  -1.475  0.00  0.00    +0.215 C 
ATOM     27  O   UNL     1       1.276  -4.726  -0.428  0.00  0.00    -0.276 OA
ATOM     28  N   UNL     1       1.256  -4.782  -2.646  0.00  0.00    -0.315 N 
ATOM     29  H   UNL     1       1.235  -4.227  -3.595  0.00  0.00    +0.149 HD
BRANCH  28  30
ATOM     30  C   UNL     1       1.288  -6.246  -2.654  0.00  0.00    +0.107 C 
BRANCH  30  31
ATOM     31  C   UNL     1       1.286  -6.748  -4.099  0.00  0.00    -0.000 C 
ATOM     32  C   UNL     1       2.578  -6.311  -4.793  0.00  0.00    +0.009 C 
ATOM     33  C   UNL     1       1.194  -8.276  -4.108  0.00  0.00    +0.009 C 
ENDBRANCH  30  31
ENDBRANCH  28  30
ENDBRANCH  25  26
ENDBRANCH  24  25
ENDBRANCH  13  24
TORSDOF 7
