REMARK  Name = ZINC38556396
REMARK  9 active torsions:
REMARK  status: ('A' for Active; 'I' for Inactive)
REMARK    1  A    between atoms: C_1  and  C_2
REMARK    2  A    between atoms: C_2  and  N_3
REMARK    3  A    between atoms: N_3  and  C_4
REMARK    4  A    between atoms: N_3  and  C_6
REMARK    5  A    between atoms: C_4  and  C_5
REMARK    6  A    between atoms: C_9  and  C_13
REMARK    7  A    between atoms: C_10  and  O_12
REMARK    8  A    between atoms: N_14  and  N_15
REMARK    9  A    between atoms: C_16  and  C_22
REMARK                            x       y       z     vdW  Elec       q    Type
REMARK                         _______ _______ _______ _____ _____    ______ ____
ROOT
ATOM      1  C   UNL     1       6.283  -1.358   0.978  0.00  0.00    +0.142 C 
ATOM      2  N   UNL     1       6.915  -1.786   2.029  0.00  0.00    -0.184 NA
ENDROOT
BRANCH   2   3
ATOM      3  N   UNL     1       8.278  -2.099   1.947  0.00  0.00    -0.175 N 
ATOM      4  C   UNL     1       9.161  -1.890   0.787  0.00  0.00    +0.230 C 
ATOM      5  N   UNL     1      10.470  -2.389   1.243  0.00  0.00    -0.242 N 
ATOM      6  N   UNL     1      10.281  -2.831   2.559  0.00  0.00    -0.160 NA
ATOM      7  C   UNL     1       9.060  -2.660   2.943  0.00  0.00    +0.206 C 
ATOM      8  S   UNL     1       8.459  -3.095   4.542  0.00  0.00    -0.011 SA
ATOM      9  H   UNL     1      11.296  -2.409   0.735  0.00  0.00    +0.170 HD
BRANCH   4  10
ATOM     10  C   UNL     1       9.243  -0.403   0.435  0.00  0.00    +0.197 C 
ATOM     11  C   UNL     1      10.101  -0.189  -0.794  0.00  0.00    -0.017 C 
ATOM     12  C   UNL     1      11.114   0.567  -0.374  0.00  0.00    +0.065 C 
ATOM     13  C   UNL     1      12.055   0.856  -1.530  0.00  0.00    +0.057 C 
ATOM     14  C   UNL     1      11.697  -0.187  -2.611  0.00  0.00    +0.011 C 
ATOM     15  C   UNL     1      10.225  -0.506  -2.262  0.00  0.00    +0.035 C 
ATOM     16  N   UNL     1      10.973   0.833   0.953  0.00  0.00    -0.158 NA
ATOM     17  N   UNL     1       9.970   0.340   1.479  0.00  0.00    -0.176 NA
ENDBRANCH   4  10
ENDBRANCH   2   3
BRANCH   1  21
ATOM     18  C   UNL     1       2.246  -0.074   1.304  0.00  0.00    +0.033 A 
ATOM     19  C   UNL     1       2.892  -0.036   0.072  0.00  0.00    +0.024 A 
ATOM     20  C   UNL     1       4.200  -0.452  -0.037  0.00  0.00    +0.015 A 
ATOM     21  C   UNL     1       4.883  -0.912   1.091  0.00  0.00    +0.036 A 
ATOM     22  C   UNL     1       4.231  -0.950   2.333  0.00  0.00    +0.127 A 
ATOM     23  C   UNL     1       2.919  -0.525   2.433  0.00  0.00    +0.069 A 
BRANCH  22  24
ATOM     24  O   UNL     1       4.888  -1.397   3.434  0.00  0.00    -0.506 OA
ATOM     25  H   UNL     1       5.354  -0.704   3.922  0.00  0.00    +0.292 HD
ENDBRANCH  22  24
BRANCH  18  26
ATOM     26  N   UNL     1       0.920   0.348   1.407  0.00  0.00    -0.330 N 
BRANCH  26  28
ATOM     27  C   UNL     1       0.409   2.334   0.074  0.00  0.00    +0.024 C 
ATOM     28  C   UNL     1       0.208   0.825   0.218  0.00  0.00    +0.102 C 
ENDBRANCH  26  28
BRANCH  26  29
ATOM     29  C   UNL     1       0.240   0.315   2.704  0.00  0.00    +0.102 C 
ATOM     30  C   UNL     1      -0.446  -1.040   2.886  0.00  0.00    +0.024 C 
ENDBRANCH  26  29
ENDBRANCH  18  26
ENDBRANCH   1  21
TORSDOF 7
