REMARK  Name = ZINC09075536
REMARK  14 active torsions:
REMARK  status: ('A' for Active; 'I' for Inactive)
REMARK    1  A    between atoms: C_1  and  C_2
REMARK    2  A    between atoms: C_7  and  C_8
REMARK    3  A    between atoms: C_10  and  C_27
REMARK    4  A    between atoms: C_10  and  C_28
REMARK    5  A    between atoms: C_16  and  C_23
REMARK    6  A    between atoms: C_17  and  C_19
REMARK    7  A    between atoms: C_19  and  O_21
REMARK    8  A    between atoms: O_21  and  C_22
REMARK    9  A    between atoms: C_23  and  O_25
REMARK   10  A    between atoms: O_25  and  C_26
REMARK   11  A    between atoms: C_29  and  C_31
REMARK   12  A    between atoms: C_31  and  C_32
REMARK   13  A    between atoms: C_32  and  C_33
REMARK   14  A    between atoms: C_32  and  C_34
REMARK                            x       y       z     vdW  Elec       q    Type
REMARK                         _______ _______ _______ _____ _____    ______ ____
ROOT
ATOM      1  C   UNL     1       2.198  -4.185  -1.102  0.00  0.00    +0.044 C 
ATOM      2  C   UNL     1       0.771  -3.701  -1.075  0.00  0.00    -0.047 A 
ATOM      3  C   UNL     1       0.498  -2.385  -0.751  0.00  0.00    +0.014 A 
ATOM      4  C   UNL     1      -0.820  -1.943  -0.727  0.00  0.00    +0.006 A 
ATOM      5  C   UNL     1      -1.861  -2.833  -1.030  0.00  0.00    +0.045 A 
ATOM      6  C   UNL     1      -1.574  -4.145  -1.353  0.00  0.00    +0.027 A 
ATOM      7  C   UNL     1      -0.258  -4.575  -1.375  0.00  0.00    -0.046 A 
ATOM      8  C   UNL     1       0.056  -6.006  -1.729  0.00  0.00    +0.044 C 
ATOM      9  N   UNL     1      -3.180  -2.363  -0.991  0.00  0.00    -0.261 N 
ATOM     10  C   UNL     1      -3.532  -1.304  -0.038  0.00  0.00    +0.069 C 
ATOM     11  C   UNL     1      -2.480  -0.226  -0.056  0.00  0.00    +0.029 C 
ATOM     12  S   UNL     1      -2.904   1.389   0.324  0.00  0.00    -0.054 S 
ATOM     13  C   UNL     1      -1.157  -0.541  -0.388  0.00  0.00    +0.017 C 
ATOM     14  C   UNL     1      -0.168   0.451  -0.395  0.00  0.00    +0.059 C 
ATOM     15  S   UNL     1       1.571   0.295  -0.729  0.00  0.00    -0.073 S 
ATOM     16  C   UNL     1       2.228   1.921  -0.569  0.00  0.00    +0.118 C 
ATOM     17  C   UNL     1       1.295   2.853  -0.246  0.00  0.00    +0.118 C 
ATOM     18  S   UNL     1      -0.328   2.191  -0.071  0.00  0.00    -0.073 S 
ATOM     19  C   UNL     1      -4.886  -0.705  -0.421  0.00  0.00    +0.037 C 
ATOM     20  C   UNL     1      -3.618  -1.897   1.371  0.00  0.00    +0.037 C 
ATOM     21  C   UNL     1      -4.113  -2.876  -1.817  0.00  0.00    +0.221 C 
ATOM     22  O   UNL     1      -5.271  -2.532  -1.712  0.00  0.00    -0.275 OA
ENDROOT
BRANCH  17  23
ATOM     23  C   UNL     1       1.610   4.280  -0.060  0.00  0.00    +0.347 C 
ATOM     24  O   UNL     1       2.731   4.690  -0.288  0.00  0.00    -0.244 OA
BRANCH  23  25
ATOM     25  O   UNL     1       0.654   5.132   0.363  0.00  0.00    -0.464 OA
ATOM     26  C   UNL     1       1.035   6.523   0.524  0.00  0.00    +0.280 C 
ENDBRANCH  23  25
ENDBRANCH  17  23
BRANCH  16  27
ATOM     27  C   UNL     1       3.653   2.239  -0.766  0.00  0.00    +0.347 C 
ATOM     28  O   UNL     1       4.436   2.113   0.154  0.00  0.00    -0.244 OA
BRANCH  27  29
ATOM     29  O   UNL     1       4.087   2.670  -1.967  0.00  0.00    -0.464 OA
ATOM     30  C   UNL     1       5.504   2.965  -2.089  0.00  0.00    +0.280 C 
ENDBRANCH  27  29
ENDBRANCH  16  27
BRANCH  21  31
ATOM     31  C   UNL     1      -3.717  -3.877  -2.872  0.00  0.00    +0.099 C 
BRANCH  31  32
ATOM     32  C   UNL     1      -4.846  -4.014  -3.895  0.00  0.00    -0.008 C 
ATOM     33  C   UNL     1      -4.396  -4.934  -5.032  0.00  0.00    +0.008 C 
ATOM     34  C   UNL     1      -6.081  -4.608  -3.216  0.00  0.00    +0.008 C 
ENDBRANCH  31  32
ENDBRANCH  21  31
TORSDOF 6
