REMARK  Name = ZINC13213247
REMARK  8 active torsions:
REMARK  status: ('A' for Active; 'I' for Inactive)
REMARK    1  A    between atoms: C_1  and  C_2
REMARK    2  A    between atoms: C_2  and  C_3
REMARK    3  A    between atoms: C_6  and  C_12
REMARK    4  A    between atoms: C_8  and  N_9
REMARK    5  A    between atoms: C_14  and  C_29
REMARK    6  A    between atoms: N_18  and  C_19
REMARK    7  A    between atoms: C_23  and  C_25
REMARK    8  A    between atoms: C_29  and  C_31
REMARK                            x       y       z     vdW  Elec       q    Type
REMARK                         _______ _______ _______ _____ _____    ______ ____
ROOT
ATOM      1  C   UNL     1      -5.353  -1.992   0.046  0.00  0.00    +0.150 C 
ATOM      2  C   UNL     1      -5.406  -3.493   0.215  0.00  0.00    +0.077 C 
ATOM      3  C   UNL     1      -6.112  -3.734   1.345  0.00  0.00    +0.250 C 
ATOM      4  C   UNL     1      -6.532  -2.448   1.938  0.00  0.00    +0.292 C 
ATOM      5  O   UNL     1      -7.181  -2.329   2.959  0.00  0.00    -0.266 OA
ATOM      6  N   UNL     1      -6.090  -1.425   1.181  0.00  0.00    -0.253 N 
ATOM      7  O   UNL     1      -6.388  -4.958   1.851  0.00  0.00    -0.282 OA
ENDROOT
BRANCH   1  11
ATOM      8  C   UNL     1      -1.297  -0.653   0.112  0.00  0.00    -0.017 A 
ATOM      9  C   UNL     1      -1.904  -1.076   1.280  0.00  0.00    +0.006 A 
ATOM     10  C   UNL     1      -3.217  -1.509   1.258  0.00  0.00    +0.006 A 
ATOM     11  C   UNL     1      -3.922  -1.519   0.070  0.00  0.00    -0.020 A 
ATOM     12  C   UNL     1      -3.315  -1.096  -1.098  0.00  0.00    +0.038 A 
ATOM     13  C   UNL     1      -2.004  -0.658  -1.076  0.00  0.00    +0.130 A 
BRANCH  13  14
ATOM     14  N   UNL     1      -1.355  -0.200  -2.325  0.00  0.00    +0.057 N 
ATOM     15  O   UNL     1      -1.998  -0.122  -3.346  0.00  0.00    -0.126 OA
ATOM     16  O   UNL     1      -0.183   0.097  -2.324  0.00  0.00    -0.126 OA
ENDBRANCH  13  14
BRANCH   8  18
ATOM     17  C   UNL     1       0.167   1.349   0.101  0.00  0.00    +0.009 C 
ATOM     18  C   UNL     1       0.134  -0.181   0.135  0.00  0.00    +0.034 C 
ENDBRANCH   8  18
ENDBRANCH   1  11
BRANCH   6  19
ATOM     19  C   UNL     1      -6.297  -0.066   1.431  0.00  0.00    +0.038 A 
ATOM     20  C   UNL     1      -5.785   0.887   0.557  0.00  0.00    +0.023 A 
ATOM     21  C   UNL     1      -5.986   2.233   0.799  0.00  0.00    +0.003 A 
ATOM     22  C   UNL     1      -6.696   2.641   1.910  0.00  0.00    +0.015 A 
ATOM     23  C   UNL     1      -7.215   1.692   2.795  0.00  0.00    +0.065 A 
ATOM     24  C   UNL     1      -7.016   0.333   2.547  0.00  0.00    +0.038 A 
BRANCH  23  25
ATOM     25  C   UNL     1      -7.975   2.125   3.983  0.00  0.00    +0.387 C 
ATOM     26  O   UNL     1      -8.151   3.316   4.196  0.00  0.00    -0.241 OA
ATOM     27  O   UNL     1      -8.428   1.293   4.756  0.00  0.00    -0.241 OA
ENDBRANCH  23  25
ENDBRANCH   6  19
BRANCH   2  28
ATOM     28  C   UNL     1      -4.810  -4.495  -0.674  0.00  0.00    +0.195 C 
ATOM     29  O   UNL     1      -3.889  -5.186  -0.280  0.00  0.00    -0.287 OA
BRANCH  28  30
ATOM     30  C   UNL     1      -5.327  -4.665  -2.047  0.00  0.00    +0.022 A 
ATOM     31  C   UNL     1      -6.323  -3.814  -2.532  0.00  0.00    +0.014 A 
ATOM     32  C   UNL     1      -6.802  -3.977  -3.814  0.00  0.00    +0.039 A 
ATOM     33  C   UNL     1      -6.297  -4.985  -4.622  0.00  0.00    +0.123 A 
ATOM     34  C   UNL     1      -5.309  -5.833  -4.146  0.00  0.00    +0.039 A 
ATOM     35  C   UNL     1      -4.819  -5.675  -2.868  0.00  0.00    +0.014 A 
ATOM     36  F   UNL     1      -6.770  -5.141  -5.878  0.00  0.00    -0.205 F 
ENDBRANCH  28  30
ENDBRANCH   2  28
TORSDOF 7
