REMARK  Name = ZINC13811587
REMARK  2 active torsions:
REMARK  status: ('A' for Active; 'I' for Inactive)
REMARK    1  A    between atoms: C_1  and  C_2
REMARK    2  A    between atoms: C_5  and  N_9
REMARK                            x       y       z     vdW  Elec       q    Type
REMARK                         _______ _______ _______ _____ _____    ______ ____
ROOT
ATOM      1  N   UNL     1       0.058  -4.173  -0.023  0.00  0.00    -0.209 N 
ATOM      2  C   UNL     1      -1.053  -4.912   0.071  0.00  0.00    +0.232 C 
ATOM      3  O   UNL     1      -2.179  -4.474   0.172  0.00  0.00    -0.274 OA
ATOM      4  C   UNL     1      -0.686  -6.378   0.031  0.00  0.00    +0.107 C 
ATOM      5  C   UNL     1      -0.979  -7.017   1.401  0.00  0.00    +0.071 C 
ATOM      6  C   UNL     1      -2.073  -6.204   2.119  0.00  0.00    +0.021 C 
ATOM      7  C   UNL     1      -1.321  -5.151   2.956  0.00  0.00    +0.017 C 
ATOM      8  C   UNL     1       0.173  -5.390   2.658  0.00  0.00    +0.086 C 
ATOM      9  N   UNL     1       0.269  -6.822   2.200  0.00  0.00    -0.281 NA
ATOM     10  C   UNL     1       1.359  -6.984   1.222  0.00  0.00    +0.138 C 
ATOM     11  C   UNL     1       0.861  -6.357  -0.102  0.00  0.00    +0.123 C 
ATOM     12  C   UNL     1       1.188  -4.881  -0.131  0.00  0.00    +0.233 C 
ATOM     13  O   UNL     1       2.302  -4.412  -0.232  0.00  0.00    -0.274 OA
ATOM     14  C   UNL     1       2.625  -6.326   1.698  0.00  0.00    +0.006 A 
ATOM     15  C   UNL     1       2.947  -5.032   2.042  0.00  0.00    +0.046 A 
ATOM     16  C   UNL     1       4.234  -4.725   2.454  0.00  0.00    +0.124 A 
ATOM     17  C   UNL     1       5.192  -5.723   2.518  0.00  0.00    +0.040 A 
ATOM     18  C   UNL     1       4.871  -7.020   2.174  0.00  0.00    +0.026 A 
ATOM     19  C   UNL     1       3.579  -7.336   1.759  0.00  0.00    +0.039 A 
ATOM     20  N   UNL     1       3.019  -8.555   1.365  0.00  0.00    -0.283 N 
ATOM     21  C   UNL     1       1.719  -8.432   1.035  0.00  0.00    +0.243 C 
ATOM     22  O   UNL     1       0.982  -9.319   0.659  0.00  0.00    -0.273 OA
ATOM     23  F   UNL     1       4.553  -3.457   2.792  0.00  0.00    -0.205 F 
ATOM     24  H   UNL     1       3.510  -9.391   1.334  0.00  0.00    +0.155 HD
ENDROOT
BRANCH   1  29
ATOM     25  C   UNL     1      -0.015   1.503   0.012  0.00  0.00    +0.044 C 
ATOM     26  C   UNL     1       0.004  -0.004   0.002  0.00  0.00    -0.049 A 
ATOM     27  C   UNL     1       0.130  -0.700   1.190  0.00  0.00    +0.005 A 
ATOM     28  C   UNL     1       0.148  -2.081   1.185  0.00  0.00    +0.025 A 
ATOM     29  C   UNL     1       0.040  -2.771  -0.014  0.00  0.00    +0.058 A 
ATOM     30  C   UNL     1      -0.087  -2.070  -1.206  0.00  0.00    +0.040 A 
ATOM     31  C   UNL     1      -0.110  -0.688  -1.194  0.00  0.00    +0.020 A 
ATOM     32 BR   UNL     1      -0.235  -3.004  -2.844  0.00  0.00    -0.048 Br
ENDBRANCH   1  29
TORSDOF 1
