REMARK  Name = ZINC34759204
REMARK  11 active torsions:
REMARK  status: ('A' for Active; 'I' for Inactive)
REMARK    1  A    between atoms: C_1  and  C_2
REMARK    2  A    between atoms: C_5  and  C_9
REMARK    3  A    between atoms: C_6  and  C_8
REMARK    4  A    between atoms: C_9  and  N_10
REMARK    5  A    between atoms: C_18  and  C_36
REMARK    6  A    between atoms: C_19  and  C_35
REMARK    7  A    between atoms: C_23  and  S_25
REMARK    8  A    between atoms: S_25  and  C_26
REMARK    9  A    between atoms: C_26  and  C_27
REMARK   10  A    between atoms: C_30  and  C_34
REMARK   11  A    between atoms: C_32  and  C_33
REMARK                            x       y       z     vdW  Elec       q    Type
REMARK                         _______ _______ _______ _____ _____    ______ ____
ROOT
ATOM      1  N   UNL     1      -2.116  -4.092   0.574  0.00  0.00    +0.384 N 
ATOM      2  C   UNL     1      -3.569  -4.127   0.783  0.00  0.00    -0.059 C 
ATOM      3  C   UNL     1      -4.062  -5.575   0.697  0.00  0.00    +0.088 C 
ATOM      4  N   UNL     1      -3.292  -6.387   1.652  0.00  0.00    -0.318 N 
ATOM      5  C   UNL     1      -1.824  -6.287   1.620  0.00  0.00    +0.088 C 
ATOM      6  C   UNL     1      -1.437  -4.806   1.662  0.00  0.00    -0.059 C 
ATOM      7  C   UNL     1      -3.929  -7.220   2.553  0.00  0.00    +0.134 A 
ATOM      8  C   UNL     1      -4.101  -8.601   2.258  0.00  0.00    +0.051 A 
ATOM      9  C   UNL     1      -3.694  -9.357   1.085  0.00  0.00    -0.028 A 
ATOM     10  C   UNL     1      -3.965 -10.668   1.024  0.00  0.00    -0.008 A 
ATOM     11  S   UNL     1      -4.801 -10.992   2.565  0.00  0.00    -0.073 S 
ATOM     12  C   UNL     1      -4.764  -9.357   3.249  0.00  0.00    +0.115 A 
ATOM     13  N   UNL     1      -5.190  -8.803   4.368  0.00  0.00    -0.215 NA
ATOM     14  C   UNL     1      -5.002  -7.509   4.589  0.00  0.00    +0.191 A 
ATOM     15  N   UNL     1      -4.380  -6.742   3.701  0.00  0.00    -0.206 NA
ATOM     16  C   UNL     1      -3.640 -11.637  -0.083  0.00  0.00    +0.052 C 
ATOM     17  C   UNL     1      -2.976  -8.673  -0.050  0.00  0.00    +0.045 C 
ATOM     18  H   UNL     1      -1.895  -4.534  -0.306  0.00  0.00    -0.081 HD
ENDROOT
BRANCH   1  19
ATOM     19  C   UNL     1      -1.661  -2.696   0.546  0.00  0.00    -0.043 C 
BRANCH  19  24
ATOM     20  C   UNL     1      -3.917  -0.019  -4.051  0.00  0.00    +0.044 C 
ATOM     21  C   UNL     1      -3.329  -0.717  -2.852  0.00  0.00    -0.050 A 
ATOM     22  C   UNL     1      -3.868  -0.508  -1.597  0.00  0.00    +0.003 A 
ATOM     23  C   UNL     1      -3.329  -1.148  -0.497  0.00  0.00    +0.002 A 
ATOM     24  C   UNL     1      -2.249  -1.998  -0.653  0.00  0.00    -0.061 A 
ATOM     25  C   UNL     1      -1.711  -2.208  -1.908  0.00  0.00    -0.049 A 
ATOM     26  C   UNL     1      -2.253  -1.571  -3.009  0.00  0.00    +0.007 A 
ATOM     27  C   UNL     1      -0.534  -3.135  -2.078  0.00  0.00    +0.044 C 
ENDBRANCH  19  24
ENDBRANCH   1  19
BRANCH  14  28
ATOM     28  S   UNL     1      -5.582  -6.795   6.092  0.00  0.00    -0.081 S 
BRANCH  28  29
ATOM     29  C   UNL     1      -6.338  -8.187   6.975  0.00  0.00    +0.112 C 
BRANCH  29  30
ATOM     30  C   UNL     1      -6.881  -7.708   8.297  0.00  0.00    -0.034 A 
ATOM     31  C   UNL     1      -6.077  -7.724   9.421  0.00  0.00    +0.005 A 
ATOM     32  C   UNL     1      -6.576  -7.284  10.633  0.00  0.00    +0.003 A 
ATOM     33  C   UNL     1      -7.878  -6.828  10.721  0.00  0.00    -0.050 A 
ATOM     34  C   UNL     1      -8.681  -6.811   9.596  0.00  0.00    +0.007 A 
ATOM     35  C   UNL     1      -8.181  -7.247   8.383  0.00  0.00    -0.046 A 
ATOM     36  C   UNL     1      -9.056  -7.223   7.156  0.00  0.00    +0.044 C 
ATOM     37  C   UNL     1      -8.421  -6.349  12.042  0.00  0.00    +0.044 C 
ENDBRANCH  29  30
ENDBRANCH  28  29
ENDBRANCH  14  28
TORSDOF 5
