REMARK  Name = ZINC39937758
REMARK  7 active torsions:
REMARK  status: ('A' for Active; 'I' for Inactive)
REMARK    1  A    between atoms: C_1  and  C_2
REMARK    2  A    between atoms: C_12  and  C_14
REMARK    3  A    between atoms: C_14  and  C_16
REMARK    4  A    between atoms: C_14  and  S_17
REMARK    5  A    between atoms: S_17  and  C_18
REMARK    6  A    between atoms: C_22  and  C_27
REMARK    7  A    between atoms: N_23  and  C_24
REMARK                            x       y       z     vdW  Elec       q    Type
REMARK                         _______ _______ _______ _____ _____    ______ ____
ROOT
ATOM      1  C   UNL     1       1.634  -0.884   6.593  0.00  0.00    +0.238 C 
ATOM      2  N   UNL     1       3.105  -0.946   6.596  0.00  0.00    -0.237 N 
ATOM      3  N   UNL     1       3.446  -2.292   6.771  0.00  0.00    -0.169 NA
ATOM      4  C   UNL     1       2.381  -3.042   6.873  0.00  0.00    +0.147 C 
ATOM      5  N   UNL     1       1.209  -2.281   6.779  0.00  0.00    -0.282 N 
ATOM      6  H   UNL     1       3.717  -0.201   6.495  0.00  0.00    +0.171 HD
ENDROOT
BRANCH   4   7
ATOM      7  C   UNL     1       2.407  -4.434   7.056  0.00  0.00    +0.022 C 
ATOM      8  C   UNL     1       3.530  -5.236   7.262  0.00  0.00    +0.006 A 
ATOM      9  C   UNL     1       4.907  -4.943   7.351  0.00  0.00    +0.010 A 
ATOM     10  C   UNL     1       5.797  -5.947   7.562  0.00  0.00    +0.001 A 
ATOM     11  C   UNL     1       5.384  -7.274   7.696  0.00  0.00    +0.002 A 
ATOM     12  C   UNL     1       4.077  -7.628   7.621  0.00  0.00    +0.026 A 
ATOM     13  C   UNL     1       3.089  -6.633   7.402  0.00  0.00    +0.043 A 
ATOM     14  N   UNL     1       1.777  -6.716   7.292  0.00  0.00    -0.380 N 
ATOM     15  C   UNL     1       1.224  -5.376   7.076  0.00  0.00    +0.152 C 
ATOM     16  H   UNL     1       1.260  -7.535   7.351  0.00  0.00    +0.160 HD
ENDBRANCH   4   7
BRANCH   5  17
ATOM     17  C   UNL     1      -0.168  -2.776   6.851  0.00  0.00    +0.078 C 
ATOM     18  C   UNL     1      -1.295  -1.757   6.668  0.00  0.00    +0.024 C 
ATOM     19  C   UNL     1      -1.012  -2.345   8.052  0.00  0.00    +0.024 C 
ENDBRANCH   5  17
BRANCH   1  20
ATOM     20  S   UNL     1       1.029  -0.244   5.007  0.00  0.00    -0.106 S 
BRANCH  20  21
ATOM     21  C   UNL     1       1.808  -1.321   3.772  0.00  0.00    +0.133 C 
ATOM     22  C   UNL     1       1.212  -2.727   3.874  0.00  0.00    +0.029 C 
BRANCH  21  33
ATOM     23  C   UNL     1       2.296   0.685  -0.205  0.00  0.00    +0.029 C 
ATOM     24  C   UNL     1       2.067  -0.819  -0.049  0.00  0.00    +0.083 C 
ATOM     25  C   UNL     1       3.115  -1.604  -0.856  0.00  0.00    +0.059 C 
ATOM     26  C   UNL     1       3.858  -2.419   0.178  0.00  0.00    -0.024 A 
ATOM     27  C   UNL     1       4.905  -3.312   0.046  0.00  0.00    +0.005 A 
ATOM     28  C   UNL     1       5.424  -3.943   1.161  0.00  0.00    +0.000 A 
ATOM     29  C   UNL     1       4.892  -3.680   2.410  0.00  0.00    +0.002 A 
ATOM     30  C   UNL     1       3.848  -2.791   2.547  0.00  0.00    +0.024 A 
ATOM     31  C   UNL     1       3.319  -2.149   1.425  0.00  0.00    +0.040 A 
ATOM     32  N   UNL     1       2.271  -1.223   1.345  0.00  0.00    -0.267 N 
ATOM     33  C   UNL     1       1.557  -0.768   2.393  0.00  0.00    +0.233 C 
ATOM     34  O   UNL     1       0.712   0.086   2.227  0.00  0.00    -0.274 OA
ENDBRANCH  21  33
ENDBRANCH  20  21
ENDBRANCH   1  20
TORSDOF 5
