REMARK  Name = ZINC41550405
REMARK  6 active torsions:
REMARK  status: ('A' for Active; 'I' for Inactive)
REMARK    1  A    between atoms: C_1  and  C_2
REMARK    2  A    between atoms: C_2  and  C_3
REMARK    3  A    between atoms: C_3  and  C_5
REMARK    4  A    between atoms: C_3  and  N_6
REMARK    5  A    between atoms: C_7  and  C_9
REMARK    6  A    between atoms: C_9  and  C_21
REMARK                            x       y       z     vdW  Elec       q    Type
REMARK                         _______ _______ _______ _____ _____    ______ ____
ROOT
ATOM      1  C   UNL     1      -0.234   0.422  -4.849  0.00  0.00    +0.257 C 
ATOM      2  C   UNL     1       0.676   1.091  -5.848  0.00  0.00    +0.270 C 
ATOM      3  O   UNL     1       1.859   0.824  -5.867  0.00  0.00    -0.271 OA
ATOM      4  N   UNL     1       0.169   1.987  -6.721  0.00  0.00    -0.279 N 
ATOM      5  C   UNL     1      -1.172   2.375  -6.601  0.00  0.00    +0.077 A 
ATOM      6  C   UNL     1      -1.785   3.109  -7.603  0.00  0.00    +0.047 A 
ATOM      7  C   UNL     1      -3.114   3.473  -7.476  0.00  0.00    +0.043 A 
ATOM      8  C   UNL     1      -3.831   3.105  -6.350  0.00  0.00    +0.024 A 
ATOM      9  C   UNL     1      -3.222   2.377  -5.345  0.00  0.00    +0.049 A 
ATOM     10  C   UNL     1      -1.891   2.015  -5.463  0.00  0.00    +0.144 A 
ATOM     11  O   UNL     1      -1.274   1.326  -4.466  0.00  0.00    -0.466 OA
ATOM     12 CL   UNL     1      -3.884   4.394  -8.730  0.00  0.00    -0.083 Cl
ATOM     13  C   UNL     1      -0.852  -0.827  -5.480  0.00  0.00    +0.076 C 
ATOM     14  H   UNL     1       0.727   2.357  -7.423  0.00  0.00    +0.155 HD
ENDROOT
BRANCH   1  16
ATOM     15  N   UNL     1      -0.055  -0.114  -2.441  0.00  0.00    -0.309 N 
ATOM     16  C   UNL     1       0.561   0.028  -3.631  0.00  0.00    +0.266 C 
ATOM     17  O   UNL     1       1.755  -0.162  -3.722  0.00  0.00    -0.271 OA
ATOM     18  H   UNL     1      -1.010   0.038  -2.368  0.00  0.00    +0.149 HD
BRANCH  15  19
ATOM     19  C   UNL     1       0.718  -0.497  -1.257  0.00  0.00    +0.070 C 
ATOM     20  C   UNL     1       0.849  -2.021  -1.205  0.00  0.00    +0.028 C 
BRANCH  19  22
ATOM     21  C   UNL     1      -0.019   1.526   0.010  0.00  0.00    +0.005 C 
ATOM     22  C   UNL     1       0.002  -0.004   0.002  0.00  0.00    +0.018 C 
ENDBRANCH  19  22
ENDBRANCH  15  19
ENDBRANCH   1  16
TORSDOF 3
