REMARK  Name = ZINC14741694
REMARK  8 active torsions:
REMARK  status: ('A' for Active; 'I' for Inactive)
REMARK    1  A    between atoms: C_1  and  C_2
REMARK    2  A    between atoms: C_2  and  C_3
REMARK    3  A    between atoms: C_2  and  N_4
REMARK    4  A    between atoms: C_12  and  C_13
REMARK    5  A    between atoms: C_12  and  N_65
REMARK    6  A    between atoms: N_23  and  C_26
REMARK    7  A    between atoms: C_26  and  C_27
REMARK    8  A    between atoms: C_27  and  C_28
REMARK                            x       y       z     vdW  Elec       q    Type
REMARK                         _______ _______ _______ _____ _____    ______ ____
ROOT
ATOM      1  N   UNL     1      -2.096   1.056   1.265  0.00  0.00    -0.222 N 
ATOM      2  C   UNL     1      -2.614   0.290   2.248  0.00  0.00    +0.247 C 
ATOM      3  O   UNL     1      -2.046  -0.112   3.241  0.00  0.00    -0.273 OA
ATOM      4  C   UNL     1      -4.050   0.042   1.851  0.00  0.00    +0.112 C 
ATOM      5  C   UNL     1      -4.298  -1.452   1.667  0.00  0.00    +0.017 C 
ATOM      6  C   UNL     1      -5.764  -1.680   1.290  0.00  0.00    -0.076 C 
ATOM      7  C   UNL     1      -6.447   0.321   2.477  0.00  0.00    -0.076 C 
ATOM      8  C   UNL     1      -5.004   0.616   2.894  0.00  0.00    +0.017 C 
ATOM      9  N   UNL     1      -4.196   0.749   0.573  0.00  0.00    -0.271 N 
ATOM     10  C   UNL     1      -3.001   1.312   0.312  0.00  0.00    +0.312 C 
ATOM     11  O   UNL     1      -2.769   1.978  -0.679  0.00  0.00    -0.252 OA
ATOM     12  N   UNL     1      -6.624  -1.143   2.367  0.00  0.00    +0.383 N 
ATOM     13  H   UNL     1      -6.354  -1.578   3.257  0.00  0.00    -0.081 HD
ENDROOT
BRANCH   1  15
ATOM     14  C   UNL     1      -0.009   1.010  -0.009  0.00  0.00    +0.028 C 
ATOM     15  C   UNL     1      -0.714   1.542   1.240  0.00  0.00    +0.080 C 
ATOM     16  C   UNL     1      -0.712   3.072   1.214  0.00  0.00    +0.028 C 
ENDBRANCH   1  15
BRANCH  12  17
ATOM     17  C   UNL     1      -8.039  -1.461   2.088  0.00  0.00    -0.025 C 
BRANCH  17  18
ATOM     18  C   UNL     1      -8.232  -2.951   2.198  0.00  0.00    +0.000 A 
ATOM     19  C   UNL     1      -8.213  -3.809   1.166  0.00  0.00    +0.029 A 
ATOM     20  C   UNL     1      -8.437  -5.148   1.717  0.00  0.00    -0.000 A 
ATOM     21  C   UNL     1      -8.521  -6.425   1.159  0.00  0.00    +0.010 A 
ATOM     22  C   UNL     1      -8.750  -7.504   1.966  0.00  0.00    +0.001 A 
ATOM     23  C   UNL     1      -8.899  -7.340   3.337  0.00  0.00    +0.002 A 
ATOM     24  C   UNL     1      -8.821  -6.089   3.908  0.00  0.00    +0.026 A 
ATOM     25  C   UNL     1      -8.588  -4.976   3.105  0.00  0.00    +0.047 A 
ATOM     26  N   UNL     1      -8.458  -3.631   3.365  0.00  0.00    -0.360 N 
ATOM     27  H   UNL     1      -8.518  -3.224   4.243  0.00  0.00    +0.166 HD
ENDBRANCH  17  18
ENDBRANCH  12  17
BRANCH   9  28
ATOM     28  C   UNL     1      -5.403   0.827  -0.254  0.00  0.00    +0.115 C 
BRANCH  28  29
ATOM     29  C   UNL     1      -5.913   2.269  -0.277  0.00  0.00    +0.054 C 
BRANCH  29  30
ATOM     30  C   UNL     1      -7.220   2.327  -1.026  0.00  0.00    -0.046 A 
ATOM     31  C   UNL     1      -7.225   2.554  -2.390  0.00  0.00    +0.004 A 
ATOM     32  C   UNL     1      -8.423   2.602  -3.078  0.00  0.00    +0.000 A 
ATOM     33  C   UNL     1      -9.616   2.435  -2.401  0.00  0.00    +0.000 A 
ATOM     34  C   UNL     1      -9.611   2.214  -1.036  0.00  0.00    +0.000 A 
ATOM     35  C   UNL     1      -8.413   2.160  -0.349  0.00  0.00    +0.004 A 
ENDBRANCH  29  30
ENDBRANCH  28  29
ENDBRANCH   9  28
TORSDOF 6
