REMARK  Name = ZINC13074592
REMARK  10 active torsions:
REMARK  status: ('A' for Active; 'I' for Inactive)
REMARK    1  A    between atoms: C_1  and  C_2
REMARK    2  A    between atoms: C_5  and  C_35
REMARK    3  A    between atoms: C_6  and  S_8
REMARK    4  A    between atoms: S_8  and  O_11
REMARK    5  A    between atoms: O_11  and  C_12
REMARK    6  A    between atoms: C_17  and  C_18
REMARK    7  A    between atoms: C_18  and  O_20
REMARK    8  A    between atoms: O_20  and  C_21
REMARK    9  A    between atoms: C_21  and  C_22
REMARK   10  A    between atoms: C_22  and  C_24
REMARK                            x       y       z     vdW  Elec       q    Type
REMARK                         _______ _______ _______ _____ _____    ______ ____
ROOT
ATOM      1  C   UNL     1      -1.295   5.013   0.125  0.00  0.00    +0.171 A 
ATOM      2  C   UNL     1       0.046   5.364   0.096  0.00  0.00    +0.049 A 
ATOM      3  C   UNL     1       0.461   6.457  -0.639  0.00  0.00    +0.004 A 
ATOM      4  C   UNL     1      -0.459   7.217  -1.344  0.00  0.00    +0.001 A 
ATOM      5  C   UNL     1      -1.796   6.887  -1.322  0.00  0.00    +0.019 A 
ATOM      6  C   UNL     1      -2.229   5.780  -0.587  0.00  0.00    +0.103 A 
ENDROOT
BRANCH   6   7
ATOM      7  C   UNL     1      -3.658   5.422  -0.558  0.00  0.00    +0.343 C 
ATOM      8  O   UNL     1      -4.031   4.459   0.082  0.00  0.00    -0.245 OA
BRANCH   7   9
ATOM      9  O   UNL     1      -4.552   6.162  -1.244  0.00  0.00    -0.453 OA
BRANCH   9  10
ATOM     10  C   UNL     1      -5.943   5.750  -1.171  0.00  0.00    +0.311 C 
BRANCH  10  11
ATOM     11  C   UNL     1      -6.788   6.689  -1.992  0.00  0.00    +0.200 C 
ATOM     12  O   UNL     1      -6.270   7.614  -2.582  0.00  0.00    -0.288 OA
BRANCH  11  13
ATOM     13  C   UNL     1      -8.240   6.484  -2.080  0.00  0.00    +0.023 A 
ATOM     14  C   UNL     1      -8.839   5.413  -1.405  0.00  0.00    +0.015 A 
ATOM     15  C   UNL     1     -10.201   5.224  -1.482  0.00  0.00    +0.048 A 
ATOM     16  C   UNL     1     -10.982   6.087  -2.238  0.00  0.00    +0.142 A 
ATOM     17  C   UNL     1     -10.390   7.154  -2.919  0.00  0.00    +0.076 A 
ATOM     18  C   UNL     1      -9.027   7.355  -2.843  0.00  0.00    +0.038 A 
ATOM     19  N   UNL     1     -11.198   8.014  -3.679  0.00  0.00    -0.280 N 
ATOM     20  C   UNL     1     -12.535   7.995  -3.488  0.00  0.00    +0.255 C 
ATOM     21  O   UNL     1     -13.256   8.708  -4.153  0.00  0.00    -0.272 OA
ATOM     22  C   UNL     1     -13.127   7.083  -2.444  0.00  0.00    +0.325 C 
ATOM     23  O   UNL     1     -12.325   5.906  -2.322  0.00  0.00    -0.481 OA
ATOM     24  H   UNL     1     -10.802   8.613  -4.332  0.00  0.00    +0.155 HD
ENDBRANCH  11  13
ENDBRANCH  10  11
ENDBRANCH   9  10
ENDBRANCH   7   9
ENDBRANCH   6   7
BRANCH   1  25
ATOM     25  O   UNL     1      -1.703   3.937   0.842  0.00  0.00    -0.341 OA
BRANCH  25  26
ATOM     26  S   UNL     1      -1.594   2.616   0.093  0.00  0.00    +0.151 S 
ATOM     27  O   UNL     1      -0.252   2.175   0.241  0.00  0.00    -0.131 OA
ATOM     28  O   UNL     1      -2.192   2.821  -1.180  0.00  0.00    -0.131 OA
BRANCH  26  34
ATOM     29  C   UNL     1      -4.665  -1.613   0.151  0.00  0.00    +0.044 C 
ATOM     30  C   UNL     1      -4.006  -0.491   0.911  0.00  0.00    -0.049 A 
ATOM     31  C   UNL     1      -4.200  -0.373   2.275  0.00  0.00    +0.004 A 
ATOM     32  C   UNL     1      -3.596   0.656   2.973  0.00  0.00    +0.005 A 
ATOM     33  C   UNL     1      -2.798   1.568   2.307  0.00  0.00    -0.022 A 
ATOM     34  C   UNL     1      -2.604   1.450   0.943  0.00  0.00    +0.131 A 
ATOM     35  C   UNL     1      -3.208   0.420   0.246  0.00  0.00    +0.034 A 
ATOM     36  C   UNL     1      -2.140   2.690   3.067  0.00  0.00    +0.046 C 
ENDBRANCH  26  34
ENDBRANCH  25  26
ENDBRANCH   1  25
TORSDOF 8
