REMARK  Name = ZINC27598050
REMARK  11 active torsions:
REMARK  status: ('A' for Active; 'I' for Inactive)
REMARK    1  A    between atoms: C_1  and  C_2
REMARK    2  A    between atoms: C_2  and  C_3
REMARK    3  A    between atoms: C_6  and  C_9
REMARK    4  A    between atoms: C_9  and  C_11
REMARK    5  A    between atoms: C_9  and  N_29
REMARK    6  A    between atoms: C_11  and  N_12
REMARK    7  A    between atoms: C_13  and  C_15
REMARK    8  A    between atoms: C_15  and  C_16
REMARK    9  A    between atoms: C_16  and  N_17
REMARK   10  A    between atoms: N_29  and  C_30
REMARK   11  A    between atoms: N_29  and  C_31
REMARK                            x       y       z     vdW  Elec       q    Type
REMARK                         _______ _______ _______ _____ _____    ______ ____
ROOT
ATOM      1  N   UNL     1       0.029   1.537   2.580  0.00  0.00    -0.316 N 
ATOM      2  C   UNL     1      -0.352   1.917   1.344  0.00  0.00    +0.215 C 
ATOM      3  O   UNL     1      -1.447   2.409   1.171  0.00  0.00    -0.276 OA
ATOM      4  H   UNL     1       1.022   1.090   2.737  0.00  0.00    +0.149 HD
ENDROOT
BRANCH   1   5
ATOM      5  C   UNL     1      -0.880   1.720   3.715  0.00  0.00    +0.093 C 
BRANCH   5   6
ATOM      6  C   UNL     1      -0.281   1.060   4.959  0.00  0.00    -0.021 C 
BRANCH   6  10
ATOM      7  C   UNL     1      -2.833   1.766   8.311  0.00  0.00    -0.048 A 
ATOM      8  C   UNL     1      -1.653   2.475   8.179  0.00  0.00    +0.004 A 
ATOM      9  C   UNL     1      -0.828   2.247   7.094  0.00  0.00    +0.002 A 
ATOM     10  C   UNL     1      -1.181   1.309   6.141  0.00  0.00    -0.059 A 
ATOM     11  C   UNL     1      -2.363   0.604   6.271  0.00  0.00    +0.002 A 
ATOM     12  C   UNL     1      -3.186   0.829   7.359  0.00  0.00    +0.004 A 
BRANCH   7  14
ATOM     13  C   UNL     1      -4.734   3.120   9.148  0.00  0.00    +0.009 C 
ATOM     14  C   UNL     1      -3.733   2.016   9.493  0.00  0.00    +0.032 C 
ENDBRANCH   7  14
ENDBRANCH   6  10
BRANCH   6  15
ATOM     15  N   UNL     1      -0.156  -0.386   4.734  0.00  0.00    +0.382 N 
ATOM     16  C   UNL     1      -1.158  -0.857   3.768  0.00  0.00    -0.096 C 
ATOM     17  C   UNL     1       1.202  -0.735   4.296  0.00  0.00    -0.096 C 
ATOM     18  H   UNL     1      -0.344  -0.894   5.691  0.00  0.00    -0.082 HD
ENDBRANCH   6  15
ENDBRANCH   5   6
ENDBRANCH   1   5
BRANCH   2  19
ATOM     19  C   UNL     1       0.583   1.728   0.177  0.00  0.00    +0.117 C 
BRANCH  19  20
ATOM     20  C   UNL     1      -0.088   2.237  -1.101  0.00  0.00    +0.135 C 
BRANCH  20  21
ATOM     21  N   UNL     1       0.820   2.055  -2.236  0.00  0.00    -0.298 N 
ATOM     22  C   UNL     1       1.687   3.046  -2.571  0.00  0.00    +0.202 A 
ATOM     23  N   UNL     1       2.525   2.958  -3.558  0.00  0.00    -0.237 NA
ATOM     24  C   UNL     1       2.586   1.853  -4.343  0.00  0.00    +0.078 A 
ATOM     25  C   UNL     1       3.484   1.760  -5.409  0.00  0.00    +0.029 A 
ATOM     26  C   UNL     1       3.511   0.621  -6.180  0.00  0.00    +0.017 A 
ATOM     27  C   UNL     1       2.656  -0.441  -5.912  0.00  0.00    +0.019 A 
ATOM     28  C   UNL     1       1.761  -0.373  -4.865  0.00  0.00    +0.030 A 
ATOM     29  C   UNL     1       1.718   0.772  -4.073  0.00  0.00    +0.066 A 
ATOM     30  C   UNL     1       0.785   0.902  -2.944  0.00  0.00    +0.262 A 
ATOM     31  O   UNL     1       0.010   0.007  -2.658  0.00  0.00    -0.267 OA
ATOM     32 BR   UNL     1       2.721  -1.993  -6.990  0.00  0.00    -0.050 Br
ENDBRANCH  20  21
ENDBRANCH  19  20
ENDBRANCH   2  19
TORSDOF 8
