REMARK  Name = ZINC19407926
REMARK  1 active torsions:
REMARK  status: ('A' for Active; 'I' for Inactive)
REMARK    1  A    between atoms: C_5  and  C_6
REMARK                            x       y       z     vdW  Elec       q    Type
REMARK                         _______ _______ _______ _____ _____    ______ ____
ROOT
ATOM      1  C   UNL     1       1.217   1.735  -0.000  0.00  0.00    +0.257 A 
ATOM      2  N   UNL     1      -0.015   1.282   0.009  0.00  0.00    -0.105 NA
ATOM      3  N   UNL     1       0.002  -0.004   0.002  0.00  0.00    -0.093 NA
ATOM      4  C   UNL     1       1.244  -0.425  -0.012  0.00  0.00    +0.305 A 
ATOM      5  O   UNL     1       2.040   0.662  -0.014  0.00  0.00    -0.404 OA
ATOM      6  N   UNL     1       1.660  -1.743  -0.023  0.00  0.00    -0.312 N 
ATOM      7  H   UNL     1       2.734  -1.981  -0.034  0.00  0.00    +0.147 HD
ATOM      8  H   UNL     1       0.917  -2.554  -0.020  0.00  0.00    +0.147 HD
ENDROOT
BRANCH   1  13
ATOM      9  C   UNL     1       0.840   4.283   0.016  0.00  0.00    +0.022 A 
ATOM     10  C   UNL     1       1.461   5.511   0.017  0.00  0.00    +0.024 A 
ATOM     11  C   UNL     1       2.819   5.568   0.004  0.00  0.00    +0.056 A 
ATOM     12  S   UNL     1       3.272   3.841  -0.002  0.00  0.00    -0.077 S 
ATOM     13  C   UNL     1       1.627   3.147   0.003  0.00  0.00    +0.077 A 
ATOM     14 BR   UNL     1       3.942   7.089   0.002  0.00  0.00    -0.043 Br
ENDBRANCH   1  13
TORSDOF 1
