REMARK  Name = ZINC35392007
REMARK  7 active torsions:
REMARK  status: ('A' for Active; 'I' for Inactive)
REMARK    1  A    between atoms: C_1  and  C_2
REMARK    2  A    between atoms: C_5  and  O_33
REMARK    3  A    between atoms: C_15  and  C_18
REMARK    4  A    between atoms: C_21  and  O_24
REMARK    5  A    between atoms: O_24  and  C_25
REMARK    6  A    between atoms: C_25  and  C_26
REMARK    7  A    between atoms: O_33  and  C_34
REMARK                            x       y       z     vdW  Elec       q    Type
REMARK                         _______ _______ _______ _____ _____    ______ ____
ROOT
ATOM      1  C   UNL     1      -0.018   1.503   0.010  0.00  0.00    +0.044 C 
ATOM      2  C   UNL     1       0.002  -0.004   0.002  0.00  0.00    -0.045 A 
ATOM      3  C   UNL     1       0.006  -0.681  -1.201  0.00  0.00    +0.007 A 
ATOM      4  C   UNL     1       0.023  -2.063  -1.221  0.00  0.00    +0.048 A 
ATOM      5  C   UNL     1       0.030  -2.767  -0.030  0.00  0.00    +0.141 A 
ATOM      6  C   UNL     1       0.022  -2.083   1.186  0.00  0.00    +0.074 A 
ATOM      7  C   UNL     1       0.023  -0.698   1.205  0.00  0.00    -0.013 A 
ATOM      8  C   UNL     1       0.060   0.069   2.483  0.00  0.00    +0.049 C 
ATOM      9  C   UNL     1      -1.286   0.647   2.838  0.00  0.00    -0.023 C 
ATOM     10  C   UNL     1      -1.464   0.617   4.135  0.00  0.00    -0.030 C 
ATOM     11  C   UNL     1      -0.266   0.009   4.831  0.00  0.00    +0.033 C 
ATOM     12  C   UNL     1       0.469  -0.753   3.704  0.00  0.00    +0.029 C 
ATOM     13  C   UNL     1      -0.047  -2.177   3.682  0.00  0.00    +0.105 C 
ATOM     14  N   UNL     1       0.010  -2.803   2.378  0.00  0.00    -0.334 N 
ATOM     15  H   UNL     1       0.030  -3.772   2.331  0.00  0.00    +0.147 HD
ENDROOT
BRANCH  13  16
ATOM     16  C   UNL     1       0.785  -3.002   4.629  0.00  0.00    -0.027 A 
ATOM     17  C   UNL     1       2.027  -3.464   4.233  0.00  0.00    +0.009 A 
ATOM     18  C   UNL     1       2.791  -4.221   5.099  0.00  0.00    +0.046 A 
ATOM     19  C   UNL     1       2.313  -4.518   6.367  0.00  0.00    +0.121 A 
ATOM     20  C   UNL     1       1.067  -4.053   6.762  0.00  0.00    +0.046 A 
ATOM     21  C   UNL     1       0.308  -3.292   5.894  0.00  0.00    +0.009 A 
BRANCH  19  22
ATOM     22  O   UNL     1       3.063  -5.263   7.221  0.00  0.00    -0.487 OA
BRANCH  22  23
ATOM     23  C   UNL     1       2.507  -5.530   8.510  0.00  0.00    +0.264 C 
BRANCH  23  24
ATOM     24  C   UNL     1       3.474  -6.363   9.312  0.00  0.00    -0.010 A 
ATOM     25  C   UNL     1       3.413  -7.743   9.250  0.00  0.00    +0.008 A 
ATOM     26  C   UNL     1       4.299  -8.507   9.985  0.00  0.00    +0.020 A 
ATOM     27  C   UNL     1       5.247  -7.892  10.782  0.00  0.00    +0.041 A 
ATOM     28  C   UNL     1       5.307  -6.511  10.844  0.00  0.00    +0.020 A 
ATOM     29  C   UNL     1       4.424  -5.747  10.104  0.00  0.00    +0.008 A 
ATOM     30 CL   UNL     1       6.360  -8.851  11.706  0.00  0.00    -0.084 Cl
ENDBRANCH  23  24
ENDBRANCH  22  23
ENDBRANCH  19  22
ENDBRANCH  13  16
BRANCH   5  31
ATOM     31  O   UNL     1       0.043  -4.127  -0.044  0.00  0.00    -0.493 OA
ATOM     32  C   UNL     1       0.051  -4.763  -1.323  0.00  0.00    +0.277 C 
ENDBRANCH   5  31
TORSDOF 5
