REMARK  Name = ZINC64590585
REMARK  9 active torsions:
REMARK  status: ('A' for Active; 'I' for Inactive)
REMARK    1  A    between atoms: C_1  and  C_2
REMARK    2  A    between atoms: C_2  and  C_3
REMARK    3  A    between atoms: C_2  and  C_4
REMARK    4  A    between atoms: C_7  and  N_10
REMARK    5  A    between atoms: C_11  and  C_13
REMARK    6  A    between atoms: C_13  and  S_14
REMARK    7  A    between atoms: S_14  and  C_15
REMARK    8  A    between atoms: N_27  and  C_28
REMARK    9  A    between atoms: C_28  and  C_29
REMARK                            x       y       z     vdW  Elec       q    Type
REMARK                         _______ _______ _______ _____ _____    ______ ____
ROOT
ATOM      1  C   UNL     1      -9.265  -4.419  -2.483  0.00  0.00    +0.198 A 
ATOM      2  N   UNL     1     -10.077  -4.114  -1.500  0.00  0.00    -0.120 NA
ATOM      3  N   UNL     1     -11.341  -4.632  -1.805  0.00  0.00    -0.109 NA
ATOM      4  C   UNL     1     -11.263  -5.240  -2.968  0.00  0.00    +0.240 A 
ATOM      5  N   UNL     1      -9.979  -5.117  -3.417  0.00  0.00    -0.255 N 
ATOM      6  C   UNL     1      -9.593  -5.669  -4.651  0.00  0.00    +0.071 A 
ATOM      7  C   UNL     1      -8.349  -5.658  -5.277  0.00  0.00    +0.035 A 
ATOM      8  C   UNL     1      -8.199  -6.259  -6.478  0.00  0.00    +0.048 A 
ATOM      9  S   UNL     1      -9.723  -6.873  -6.831  0.00  0.00    -0.090 S 
ATOM     10  C   UNL     1     -10.581  -6.334  -5.377  0.00  0.00    +0.101 A 
ATOM     11  C   UNL     1     -11.896  -6.448  -4.906  0.00  0.00    +0.270 A 
ATOM     12  O   UNL     1     -12.735  -7.035  -5.565  0.00  0.00    -0.266 OA
ATOM     13  N   UNL     1     -12.223  -5.910  -3.711  0.00  0.00    -0.271 N 
ENDROOT
BRANCH   1  14
ATOM     14  S   UNL     1      -7.557  -3.997  -2.587  0.00  0.00    -0.076 S 
BRANCH  14  15
ATOM     15  C   UNL     1      -7.236  -3.087  -1.052  0.00  0.00    +0.173 C 
BRANCH  15  17
ATOM     16  N   UNL     1      -5.320  -1.968   0.042  0.00  0.00    -0.285 N 
ATOM     17  C   UNL     1      -5.790  -2.663  -1.013  0.00  0.00    +0.227 C 
ATOM     18  O   UNL     1      -5.050  -2.946  -1.931  0.00  0.00    -0.275 OA
ATOM     19  H   UNL     1      -5.891  -1.807   0.810  0.00  0.00    +0.155 HD
BRANCH  16  23
ATOM     20  C   UNL     1      -1.418  -0.509   0.005  0.00  0.00    -0.045 A 
ATOM     21  C   UNL     1      -2.137  -0.586  -1.174  0.00  0.00    +0.006 A 
ATOM     22  C   UNL     1      -3.431  -1.069  -1.165  0.00  0.00    +0.023 A 
ATOM     23  C   UNL     1      -4.010  -1.478   0.030  0.00  0.00    +0.033 A 
ATOM     24  C   UNL     1      -3.284  -1.400   1.212  0.00  0.00    +0.023 A 
ATOM     25  C   UNL     1      -1.989  -0.920   1.195  0.00  0.00    +0.006 A 
BRANCH  20  27
ATOM     26  C   UNL     1       0.857  -0.856  -0.919  0.00  0.00    +0.012 C 
ATOM     27  C   UNL     1      -0.007   0.019  -0.009  0.00  0.00    +0.013 C 
ATOM     28  C   UNL     1      -0.005   1.457  -0.532  0.00  0.00    +0.012 C 
ENDBRANCH  20  27
ENDBRANCH  16  23
ENDBRANCH  15  17
ENDBRANCH  14  15
ENDBRANCH   1  14
BRANCH  13  29
ATOM     29  C   UNL     1     -13.595  -6.021  -3.207  0.00  0.00    +0.170 C 
BRANCH  29  30
ATOM     30  C   UNL     1     -14.404  -4.845  -3.691  0.00  0.00    +0.010 A 
ATOM     31  C   UNL     1     -15.139  -4.723  -4.823  0.00  0.00    +0.013 A 
ATOM     32  C   UNL     1     -15.808  -3.537  -5.064  0.00  0.00    +0.008 A 
ATOM     33  C   UNL     1     -15.708  -2.532  -4.160  0.00  0.00    +0.045 A 
ATOM     34  S   UNL     1     -14.650  -3.255  -2.918  0.00  0.00    -0.100 S 
ENDBRANCH  29  30
ENDBRANCH  13  29
TORSDOF 7
