REMARK  Name = ZINC20682264
REMARK  7 active torsions:
REMARK  status: ('A' for Active; 'I' for Inactive)
REMARK    1  A    between atoms: C_1  and  C_2
REMARK    2  A    between atoms: C_2  and  C_3
REMARK    3  A    between atoms: C_2  and  O_4
REMARK    4  A    between atoms: O_4  and  C_5
REMARK    5  A    between atoms: C_12  and  C_21
REMARK    6  A    between atoms: C_24  and  O_28
REMARK    7  A    between atoms: C_26  and  O_27
REMARK                            x       y       z     vdW  Elec       q    Type
REMARK                         _______ _______ _______ _____ _____    ______ ____
ROOT
ATOM      1  C   UNL     1       1.728  -0.380   1.065  0.00  0.00    +0.142 A 
ATOM      2  C   UNL     1       2.994  -0.042   1.504  0.00  0.00    +0.047 A 
ATOM      3  C   UNL     1       3.546   1.178   1.161  0.00  0.00    +0.004 A 
ATOM      4  C   UNL     1       2.829   2.055   0.369  0.00  0.00    +0.006 A 
ATOM      5  C   UNL     1       1.568   1.723  -0.083  0.00  0.00    -0.016 A 
ATOM      6  C   UNL     1       0.989   0.502   0.268  0.00  0.00    +0.074 A 
ATOM      7  N   UNL     1      -0.290   0.102  -0.123  0.00  0.00    -0.334 N 
ATOM      8  C   UNL     1      -1.008   0.994  -1.048  0.00  0.00    +0.109 C 
ATOM      9  C   UNL     1      -0.710   2.416  -0.619  0.00  0.00    +0.029 C 
ATOM     10  C   UNL     1       0.797   2.623  -0.968  0.00  0.00    +0.049 C 
ATOM     11  C   UNL     1       0.949   4.099  -0.938  0.00  0.00    -0.023 C 
ATOM     12  C   UNL     1      -0.220   4.650  -1.249  0.00  0.00    -0.030 C 
ATOM     13  C   UNL     1      -1.267   3.557  -1.477  0.00  0.00    +0.033 C 
ATOM     14  H   UNL     1      -0.765  -0.827   0.225  0.00  0.00    +0.147 HD
ENDROOT
BRANCH   8  15
ATOM     15  C   UNL     1      -0.524   0.770  -2.457  0.00  0.00    +0.015 A 
ATOM     16  C   UNL     1       0.743   0.264  -2.679  0.00  0.00    +0.012 A 
ATOM     17  C   UNL     1       1.190   0.057  -3.970  0.00  0.00    +0.046 A 
ATOM     18  C   UNL     1       0.367   0.358  -5.047  0.00  0.00    +0.120 A 
ATOM     19  C   UNL     1      -0.903   0.866  -4.827  0.00  0.00    +0.091 A 
ATOM     20  C   UNL     1      -1.352   1.067  -3.530  0.00  0.00    +0.125 A 
BRANCH  20  21
ATOM     21  O   UNL     1      -2.599   1.560  -3.311  0.00  0.00    -0.506 OA
ATOM     22  H   UNL     1      -3.255   1.796  -4.162  0.00  0.00    +0.292 HD
ENDBRANCH  20  21
BRANCH  18  23
ATOM     23  O   UNL     1       0.808   0.155  -6.317  0.00  0.00    -0.507 OA
ATOM     24  H   UNL     1       0.155   0.393  -7.170  0.00  0.00    +0.292 HD
ENDBRANCH  18  23
ENDBRANCH   8  15
BRANCH   1  25
ATOM     25  O   UNL     1       1.195  -1.582   1.410  0.00  0.00    -0.488 OA
BRANCH  25  27
ATOM     26  C   UNL     1       1.983  -2.172   3.617  0.00  0.00    +0.051 C 
ATOM     27  C   UNL     1       2.042  -2.487   2.121  0.00  0.00    +0.167 C 
ATOM     28  C   UNL     1       1.569  -3.923   1.884  0.00  0.00    +0.051 C 
ENDBRANCH  25  27
ENDBRANCH   1  25
TORSDOF 5
