REMARK  Name = ZINC40395274
REMARK  4 active torsions:
REMARK  status: ('A' for Active; 'I' for Inactive)
REMARK    1  A    between atoms: C_1  and  C_2
REMARK    2  A    between atoms: C_6  and  C_8
REMARK    3  A    between atoms: C_26  and  C_28
REMARK    4  A    between atoms: C_26  and  C_29
REMARK                            x       y       z     vdW  Elec       q    Type
REMARK                         _______ _______ _______ _____ _____    ______ ____
ROOT
ATOM      1  C   UNL     1       0.118  -3.239   1.557  0.00  0.00    +0.002 A 
ATOM      2  C   UNL     1       0.114  -3.061   2.939  0.00  0.00    +0.014 A 
ATOM      3  C   UNL     1       0.110  -4.155   3.780  0.00  0.00    +0.048 A 
ATOM      4  C   UNL     1       0.110  -5.439   3.254  0.00  0.00    +0.142 A 
ATOM      5  C   UNL     1       0.112  -5.621   1.873  0.00  0.00    +0.078 A 
ATOM      6  C   UNL     1       0.111  -4.527   1.025  0.00  0.00    +0.037 A 
ATOM      7  N   UNL     1       0.104  -6.921   1.341  0.00  0.00    -0.273 N 
ATOM      8  C   UNL     1       0.407  -8.036   2.254  0.00  0.00    +0.154 C 
ATOM      9  C   UNL     1      -0.325  -7.766   3.576  0.00  0.00    +0.248 C 
ATOM     10  O   UNL     1       0.112  -6.508   4.096  0.00  0.00    -0.489 OA
ATOM     11  C   UNL     1      -0.178  -7.146   0.010  0.00  0.00    +0.166 A 
ATOM     12  N   UNL     1      -0.574  -6.270  -0.902  0.00  0.00    -0.229 NA
ATOM     13  C   UNL     1      -0.809  -6.618  -2.144  0.00  0.00    +0.065 A 
ATOM     14  C   UNL     1      -0.608  -7.975  -2.410  0.00  0.00    +0.098 A 
ATOM     15  S   UNL     1      -0.094  -8.599  -0.844  0.00  0.00    -0.047 S 
ATOM     16  C   UNL     1      -0.808  -8.583  -3.704  0.00  0.00    +0.253 C 
ATOM     17  O   UNL     1      -0.848  -9.791  -3.849  0.00  0.00    -0.270 OA
ATOM     18  N   UNL     1      -0.948  -7.726  -4.751  0.00  0.00    -0.305 N 
ATOM     19  C   UNL     1      -0.724  -6.295  -4.600  0.00  0.00    +0.035 C 
ATOM     20  C   UNL     1      -1.263  -5.728  -3.289  0.00  0.00    +0.082 C 
ATOM     21  C   UNL     1      -1.401  -5.568  -5.764  0.00  0.00    +0.031 C 
ATOM     22  C   UNL     1       0.781  -6.025  -4.669  0.00  0.00    +0.031 C 
ATOM     23  H   UNL     1      -1.204  -8.077  -5.618  0.00  0.00    +0.150 HD
ENDROOT
BRANCH   1  29
ATOM     24  C   UNL     1       0.138   1.498  -0.022  0.00  0.00    +0.084 C 
ATOM     25  C   UNL     1       0.132  -0.009  -0.025  0.00  0.00    +0.082 A 
ATOM     26  N   UNL     1       0.127  -0.791  -1.126  0.00  0.00    -0.349 N 
ATOM     27  H   UNL     1       0.128  -0.487  -2.047  0.00  0.00    +0.166 HD
ATOM     28  C   UNL     1       0.121  -2.092  -0.703  0.00  0.00    +0.110 A 
ATOM     29  C   UNL     1       0.123  -2.061   0.655  0.00  0.00    +0.064 A 
ATOM     30  N   UNL     1       0.135  -0.767   1.035  0.00  0.00    -0.344 N 
ATOM     31  H   UNL     1       0.142  -0.452   1.952  0.00  0.00    +0.167 HD
ENDBRANCH   1  29
TORSDOF 1
