REMARK  Name = ZINC42398387
REMARK  9 active torsions:
REMARK  status: ('A' for Active; 'I' for Inactive)
REMARK    1  A    between atoms: C_1  and  C_2
REMARK    2  A    between atoms: C_5  and  C_9
REMARK    3  A    between atoms: C_7  and  C_8
REMARK    4  A    between atoms: C_9  and  C_11
REMARK    5  A    between atoms: C_9  and  N_13
REMARK    6  A    between atoms: C_11  and  N_12
REMARK    7  A    between atoms: N_13  and  C_14
REMARK    8  A    between atoms: N_13  and  C_15
REMARK    9  A    between atoms: C_15  and  C_16
REMARK                            x       y       z     vdW  Elec       q    Type
REMARK                         _______ _______ _______ _____ _____    ______ ____
ROOT
ATOM      1  C   UNL     1      -0.140  -3.939   0.519  0.00  0.00    +0.069 C 
ENDROOT
BRANCH   1   6
ATOM      2  C   UNL     1      -2.099   1.497   0.461  0.00  0.00    +0.044 C 
ATOM      3  C   UNL     1      -1.588   0.079   0.476  0.00  0.00    -0.048 A 
ATOM      4  C   UNL     1      -1.522  -0.644  -0.700  0.00  0.00    +0.004 A 
ATOM      5  C   UNL     1      -1.053  -1.944  -0.686  0.00  0.00    +0.005 A 
ATOM      6  C   UNL     1      -0.650  -2.522   0.504  0.00  0.00    -0.032 A 
ATOM      7  C   UNL     1      -0.716  -1.798   1.680  0.00  0.00    +0.008 A 
ATOM      8  C   UNL     1      -1.181  -0.496   1.665  0.00  0.00    -0.047 A 
ATOM      9  C   UNL     1      -1.248   0.294   2.947  0.00  0.00    +0.044 C 
ENDBRANCH   1   6
BRANCH   1  10
ATOM     10  N   UNL     1      -0.846  -4.725  -0.502  0.00  0.00    -0.296 NA
ATOM     11  C   UNL     1      -0.153  -4.652  -1.795  0.00  0.00    +0.105 C 
BRANCH  10  12
ATOM     12  C   UNL     1      -1.012  -6.120  -0.072  0.00  0.00    +0.127 C 
BRANCH  12  13
ATOM     13  C   UNL     1      -2.060  -6.787  -0.924  0.00  0.00    +0.005 A 
ATOM     14  C   UNL     1      -1.908  -7.469  -2.086  0.00  0.00    +0.027 A 
ATOM     15  C   UNL     1      -3.025  -8.003  -2.701  0.00  0.00    +0.025 A 
ATOM     16  C   UNL     1      -4.239  -7.829  -2.124  0.00  0.00    +0.060 A 
ATOM     17  S   UNL     1      -3.823  -6.893  -0.662  0.00  0.00    -0.099 S 
ATOM     18 BR   UNL     1      -2.862  -8.960  -4.324  0.00  0.00    -0.050 Br
ENDBRANCH  12  13
ENDBRANCH  10  12
ENDBRANCH   1  10
BRANCH   1  19
ATOM     19  C   UNL     1       1.360  -3.945   0.220  0.00  0.00    -0.063 C 
BRANCH  19  20
ATOM     20  N   UNL     1       1.863  -5.324   0.264  0.00  0.00    +0.379 N 
ATOM     21  H   UNL     1       2.871  -5.316   0.219  0.00  0.00    -0.090 HD
ATOM     22  H   UNL     1       1.569  -5.762   1.125  0.00  0.00    -0.090 HD
ATOM     23  H   UNL     1       1.495  -5.842  -0.520  0.00  0.00    -0.090 HD
ENDBRANCH  19  20
ENDBRANCH   1  19
TORSDOF 6
