REMARK  Name = ZINC32894179
REMARK  8 active torsions:
REMARK  status: ('A' for Active; 'I' for Inactive)
REMARK    1  A    between atoms: C_1  and  C_2
REMARK    2  A    between atoms: N_6  and  C_14
REMARK    3  A    between atoms: C_14  and  C_15
REMARK    4  A    between atoms: N_17  and  C_18
REMARK    5  A    between atoms: C_23  and  C_24
REMARK    6  A    between atoms: C_24  and  N_25
REMARK    7  A    between atoms: N_25  and  C_26
REMARK    8  A    between atoms: N_25  and  C_27
REMARK                            x       y       z     vdW  Elec       q    Type
REMARK                         _______ _______ _______ _____ _____    ______ ____
ROOT
ATOM      1  C   UNL     1      -4.807   3.400   1.915  0.00  0.00    +0.235 C 
ATOM      2  O   UNL     1      -5.419   4.216   1.260  0.00  0.00    -0.274 OA
ATOM      3  N   UNL     1      -3.655   2.884   1.443  0.00  0.00    -0.284 N 
ATOM      4  H   UNL     1      -3.138   2.090   2.002  0.00  0.00    +0.155 HD
ENDROOT
BRANCH   3   5
ATOM      5  C   UNL     1      -3.118   3.357   0.240  0.00  0.00    +0.035 A 
ATOM      6  C   UNL     1      -3.960   3.749  -0.792  0.00  0.00    +0.023 A 
ATOM      7  C   UNL     1      -3.426   4.211  -1.979  0.00  0.00    +0.002 A 
ATOM      8  C   UNL     1      -2.054   4.287  -2.139  0.00  0.00    +0.000 A 
ATOM      9  C   UNL     1      -1.213   3.901  -1.111  0.00  0.00    +0.003 A 
ATOM     10  C   UNL     1      -1.741   3.439   0.079  0.00  0.00    -0.043 A 
BRANCH  10  11
ATOM     11  C   UNL     1      -0.823   3.018   1.198  0.00  0.00    -0.041 C 
BRANCH  11  12
ATOM     12  N   UNL     1      -0.703   1.554   1.209  0.00  0.00    +0.382 N 
ATOM     13  C   UNL     1      -0.023   1.073  -0.001  0.00  0.00    -0.095 C 
ATOM     14  H   UNL     1      -1.719   1.132   1.216  0.00  0.00    -0.081 HD
BRANCH  12  15
ATOM     15  C   UNL     1      -0.014   1.091   2.420  0.00  0.00    -0.069 C 
ATOM     16  C   UNL     1       1.430   1.597   2.410  0.00  0.00    -0.015 C 
ATOM     17  C   UNL     1       2.149   1.116   3.672  0.00  0.00    -0.002 C 
ATOM     18  C   UNL     1       2.144  -0.414   3.708  0.00  0.00    -0.000 C 
ATOM     19  C   UNL     1       0.701  -0.920   3.719  0.00  0.00    -0.002 C 
ATOM     20  C   UNL     1      -0.018  -0.438   2.457  0.00  0.00    -0.015 C 
ENDBRANCH  12  15
ENDBRANCH  11  12
ENDBRANCH  10  11
ENDBRANCH   3   5
BRANCH   1  21
ATOM     21  C   UNL     1      -5.333   2.964   3.258  0.00  0.00    +0.209 C 
BRANCH  21  26
ATOM     22  C   UNL     1      -9.346   4.820   2.254  0.00  0.00    +0.062 C 
ATOM     23  C   UNL     1      -9.048   3.888   3.430  0.00  0.00    +0.256 C 
ATOM     24  C   UNL     1      -7.771   3.134   3.163  0.00  0.00    +0.261 C 
ATOM     25  O   UNL     1      -7.804   2.056   2.608  0.00  0.00    -0.271 OA
ATOM     26  N   UNL     1      -6.588   3.665   3.542  0.00  0.00    -0.256 N 
ATOM     27  C   UNL     1      -6.580   4.894   4.217  0.00  0.00    +0.079 A 
ATOM     28  C   UNL     1      -5.409   5.622   4.348  0.00  0.00    +0.027 A 
ATOM     29  C   UNL     1      -5.422   6.831   5.019  0.00  0.00    +0.002 A 
ATOM     30  C   UNL     1      -6.600   7.314   5.558  0.00  0.00    +0.004 A 
ATOM     31  C   UNL     1      -7.771   6.598   5.421  0.00  0.00    +0.047 A 
ATOM     32  C   UNL     1      -7.766   5.385   4.756  0.00  0.00    +0.143 A 
ATOM     33  O   UNL     1      -8.909   4.660   4.626  0.00  0.00    -0.478 OA
ENDBRANCH  21  26
ENDBRANCH   1  21
TORSDOF 6
