REMARK  Name = ZINC09102762
REMARK  8 active torsions:
REMARK  status: ('A' for Active; 'I' for Inactive)
REMARK    1  A    between atoms: C_1  and  C_2
REMARK    2  A    between atoms: C_5  and  C_9
REMARK    3  A    between atoms: C_7  and  C_8
REMARK    4  A    between atoms: N_11  and  C_12
REMARK    5  A    between atoms: C_12  and  C_13
REMARK    6  A    between atoms: C_13  and  C_15
REMARK    7  A    between atoms: C_13  and  S_20
REMARK    8  A    between atoms: S_20  and  C_23
REMARK                            x       y       z     vdW  Elec       q    Type
REMARK                         _______ _______ _______ _____ _____    ______ ____
ROOT
ATOM      1  C   UNL     1      -6.111   2.899   0.078  0.00  0.00    +0.189 C 
ENDROOT
BRANCH   1   2
ATOM      2  C   UNL     1      -7.423   3.640   0.095  0.00  0.00    +0.016 A 
ATOM      3  C   UNL     1      -8.435   3.606  -0.807  0.00  0.00    +0.013 A 
ATOM      4  C   UNL     1      -9.559   4.378  -0.583  0.00  0.00    +0.008 A 
ATOM      5  C   UNL     1      -9.617   5.146   0.532  0.00  0.00    +0.045 A 
ATOM      6  S   UNL     1      -8.053   4.784   1.313  0.00  0.00    -0.100 S 
ENDBRANCH   1   2
BRANCH   1   7
ATOM      7  S   UNL     1      -5.990   1.849   1.553  0.00  0.00    +0.006 S 
ATOM      8  O   UNL     1      -4.845   1.013   1.465  0.00  0.00    -0.169 OA
ATOM      9  O   UNL     1      -6.238   2.618   2.722  0.00  0.00    -0.169 OA
BRANCH   7  10
ATOM     10  C   UNL     1      -7.361   0.749   1.438  0.00  0.00    +0.093 A 
ATOM     11  C   UNL     1      -7.222  -0.461   0.784  0.00  0.00    +0.031 A 
ATOM     12  C   UNL     1      -8.295  -1.328   0.692  0.00  0.00    +0.051 A 
ATOM     13  C   UNL     1      -9.513  -0.986   1.256  0.00  0.00    +0.166 A 
ATOM     14  C   UNL     1      -9.653   0.233   1.916  0.00  0.00    +0.168 A 
ATOM     15  C   UNL     1      -8.572   1.094   2.009  0.00  0.00    +0.076 A 
ATOM     16  O   UNL     1     -10.934   0.334   2.378  0.00  0.00    -0.453 OA
ATOM     17  C   UNL     1     -11.459  -1.007   2.352  0.00  0.00    +0.466 C 
ATOM     18  O   UNL     1     -10.706  -1.649   1.306  0.00  0.00    -0.453 OA
ENDBRANCH   7  10
ENDBRANCH   1   7
BRANCH   1  19
ATOM     19  C   UNL     1      -4.958   3.905   0.072  0.00  0.00    +0.136 C 
BRANCH  19  22
ATOM     20  C   UNL     1      -2.522   3.870   0.048  0.00  0.00    +0.244 C 
ATOM     21  O   UNL     1      -2.534   5.086   0.054  0.00  0.00    -0.270 OA
ATOM     22  N   UNL     1      -3.682   3.185   0.056  0.00  0.00    -0.309 N 
ATOM     23  H   UNL     1      -3.673   2.215   0.050  0.00  0.00    +0.149 HD
BRANCH  20  28
ATOM     24  C   UNL     1       2.490   1.042  -0.016  0.00  0.00    +0.044 C 
ATOM     25  C   UNL     1       1.177   1.782   0.000  0.00  0.00    -0.047 A 
ATOM     26  C   UNL     1      -0.013   1.076   0.008  0.00  0.00    +0.004 A 
ATOM     27  C   UNL     1      -1.217   1.748   0.017  0.00  0.00    +0.013 A 
ATOM     28  C   UNL     1      -1.234   3.143   0.031  0.00  0.00    +0.037 A 
ATOM     29  C   UNL     1      -0.031   3.850   0.023  0.00  0.00    +0.016 A 
ATOM     30  C   UNL     1       1.167   3.166   0.007  0.00  0.00    -0.047 A 
ATOM     31  C   UNL     1       2.468   3.927  -0.001  0.00  0.00    +0.044 C 
ENDBRANCH  20  28
ENDBRANCH  19  22
ENDBRANCH   1  19
TORSDOF 6
