REMARK  Name = ZINC34788033
REMARK  9 active torsions:
REMARK  status: ('A' for Active; 'I' for Inactive)
REMARK    1  A    between atoms: C_1  and  C_2
REMARK    2  A    between atoms: C_7  and  C_8
REMARK    3  A    between atoms: N_17  and  C_18
REMARK    4  A    between atoms: C_18  and  C_19
REMARK    5  A    between atoms: C_28  and  C_30
REMARK    6  A    between atoms: C_33  and  C_36
REMARK    7  A    between atoms: C_36  and  C_37
REMARK    8  A    between atoms: C_36  and  C_38
REMARK    9  A    between atoms: C_36  and  C_39
REMARK                            x       y       z     vdW  Elec       q    Type
REMARK                         _______ _______ _______ _____ _____    ______ ____
ROOT
ATOM      1  C   UNL     1      -1.219  -2.689   3.544  0.00  0.00    +0.199 C 
ATOM      2  O   UNL     1      -0.253  -2.929   4.237  0.00  0.00    -0.278 OA
ATOM      3  N   UNL     1      -2.441  -3.115   3.920  0.00  0.00    -0.301 N 
ATOM      4  C   UNL     1      -2.635  -3.843   5.125  0.00  0.00    +0.109 C 
ATOM      5  C   UNL     1      -2.367  -5.379   5.009  0.00  0.00    +0.038 C 
ATOM      6  C   UNL     1      -2.899  -5.839   3.612  0.00  0.00    +0.109 C 
ATOM      7  N   UNL     1      -4.103  -5.205   3.199  0.00  0.00    -0.296 N 
ATOM      8  C   UNL     1      -3.973  -4.027   2.304  0.00  0.00    +0.127 C 
ATOM      9  C   UNL     1      -3.646  -2.840   3.096  0.00  0.00    +0.126 C 
ATOM     10  C   UNL     1      -5.308  -5.654   3.602  0.00  0.00    +0.247 C 
ATOM     11  O   UNL     1      -5.381  -6.556   4.413  0.00  0.00    -0.270 OA
ENDROOT
BRANCH  10  12
ATOM     12  C   UNL     1      -6.542  -5.049   3.057  0.00  0.00    +0.037 A 
ATOM     13  C   UNL     1      -7.558  -5.863   2.552  0.00  0.00    +0.013 A 
ATOM     14  C   UNL     1      -8.707  -5.292   2.045  0.00  0.00    +0.005 A 
ATOM     15  C   UNL     1      -8.854  -3.916   2.036  0.00  0.00    -0.042 A 
ATOM     16  C   UNL     1      -7.850  -3.104   2.534  0.00  0.00    +0.005 A 
ATOM     17  C   UNL     1      -6.699  -3.663   3.049  0.00  0.00    +0.013 A 
BRANCH  15  18
ATOM     18  C   UNL     1     -10.111  -3.300   1.480  0.00  0.00    -0.013 C 
ATOM     19  C   UNL     1     -11.319  -3.797   2.278  0.00  0.00    +0.015 C 
ATOM     20  C   UNL     1     -10.022  -1.776   1.586  0.00  0.00    +0.015 C 
ATOM     21  C   UNL     1     -10.270  -3.701   0.012  0.00  0.00    +0.015 C 
ENDBRANCH  15  18
ENDBRANCH  10  12
BRANCH   1  22
ATOM     22  C   UNL     1      -1.052  -1.915   2.262  0.00  0.00    +0.020 C 
BRANCH  22  31
ATOM     23  C   UNL     1       0.537  -0.920   0.774  0.00  0.00    -0.005 C 
ATOM     24  C   UNL     1       1.989  -0.471   0.636  0.00  0.00    -0.047 A 
ATOM     25  C   UNL     1       2.603  -0.182  -0.580  0.00  0.00    +0.010 A 
ATOM     26  C   UNL     1       3.899   0.208  -0.608  0.00  0.00    +0.045 A 
ATOM     27  S   UNL     1       4.328   0.187   1.127  0.00  0.00    -0.101 S 
ATOM     28  C   UNL     1       2.757  -0.335   1.754  0.00  0.00    -0.010 A 
ATOM     29  C   UNL     1       2.325  -0.580   3.162  0.00  0.00    +0.024 C 
ATOM     30  C   UNL     1       0.790  -0.675   3.166  0.00  0.00    -0.072 C 
ATOM     31  N   UNL     1       0.363  -1.568   2.079  0.00  0.00    +0.393 N 
ATOM     32  H   UNL     1       0.917  -2.411   2.108  0.00  0.00    -0.080 HD
BRANCH  23  39
ATOM     33  C   UNL     1      -0.499   0.038  -1.746  0.00  0.00    +0.044 C 
ATOM     34  C   UNL     1      -0.292  -1.438  -1.530  0.00  0.00    -0.049 A 
ATOM     35  C   UNL     1      -0.592  -2.334  -2.539  0.00  0.00    +0.003 A 
ATOM     36  C   UNL     1      -0.401  -3.689  -2.340  0.00  0.00    +0.000 A 
ATOM     37  C   UNL     1       0.090  -4.148  -1.132  0.00  0.00    +0.000 A 
ATOM     38  C   UNL     1       0.391  -3.252  -0.123  0.00  0.00    +0.002 A 
ATOM     39  C   UNL     1       0.204  -1.897  -0.324  0.00  0.00    -0.054 A 
ENDBRANCH  23  39
ENDBRANCH  22  31
ENDBRANCH   1  22
TORSDOF 5
