REMARK  Name = ZINC28811889
REMARK  6 active torsions:
REMARK  status: ('A' for Active; 'I' for Inactive)
REMARK    1  A    between atoms: C_1  and  N_2
REMARK    2  A    between atoms: C_4  and  S_10
REMARK    3  A    between atoms: C_6  and  C_7
REMARK    4  A    between atoms: S_10  and  N_13
REMARK    5  A    between atoms: N_16  and  C_19
REMARK    6  A    between atoms: C_19  and  C_20
REMARK                            x       y       z     vdW  Elec       q    Type
REMARK                         _______ _______ _______ _____ _____    ______ ____
ROOT
ATOM      1  S   UNL     1      -0.116  -3.489  -1.782  0.00  0.00    +0.062 S 
ATOM      2  O   UNL     1      -0.581  -4.574  -0.993  0.00  0.00    -0.153 OA
ATOM      3  O   UNL     1      -0.784  -3.063  -2.962  0.00  0.00    -0.153 OA
ENDROOT
BRANCH   1   7
ATOM      4  C   UNL     1      -0.018   1.461   0.010  0.00  0.00    +0.149 C 
ATOM      5  N   UNL     1       0.001  -0.004   0.002  0.00  0.00    -0.344 N 
ATOM      6  C   UNL     1      -0.090  -0.790  -1.098  0.00  0.00    +0.114 A 
ATOM      7  C   UNL     1      -0.037  -2.088  -0.716  0.00  0.00    +0.124 A 
ATOM      8  C   UNL     1       0.092  -2.120   0.676  0.00  0.00    +0.061 A 
ATOM      9  C   UNL     1       0.120  -0.812   1.111  0.00  0.00    +0.106 A 
BRANCH   9  10
ATOM     10  C   UNL     1       0.249  -0.362   2.501  0.00  0.00    +0.258 C 
ATOM     11  O   UNL     1       0.170   0.823   2.767  0.00  0.00    -0.269 OA
ATOM     12  N   UNL     1       0.456  -1.261   3.483  0.00  0.00    -0.324 N 
ATOM     13  H   UNL     1       0.592  -2.196   3.264  0.00  0.00    +0.145 HD
ATOM     14  H   UNL     1       0.468  -0.973   4.410  0.00  0.00    +0.145 HD
ENDBRANCH   9  10
ENDBRANCH   1   7
BRANCH   1  15
ATOM     15  N   UNL     1       1.437  -3.856  -2.224  0.00  0.00    -0.174 NA
ATOM     16  C   UNL     1       2.044  -3.253  -3.420  0.00  0.00    +0.125 C 
ATOM     17  C   UNL     1       3.398  -2.651  -3.028  0.00  0.00    +0.102 C 
ATOM     18  N   UNL     1       4.214  -3.679  -2.368  0.00  0.00    -0.296 NA
ATOM     19  C   UNL     1       3.592  -4.132  -1.117  0.00  0.00    +0.102 C 
ATOM     20  C   UNL     1       2.248  -4.789  -1.427  0.00  0.00    +0.125 C 
BRANCH  18  21
ATOM     21  C   UNL     1       5.580  -3.194  -2.131  0.00  0.00    +0.119 C 
BRANCH  21  22
ATOM     22  C   UNL     1       6.450  -4.341  -1.683  0.00  0.00    -0.033 A 
ATOM     23  C   UNL     1       6.564  -4.638  -0.338  0.00  0.00    +0.006 A 
ATOM     24  C   UNL     1       7.360  -5.690   0.073  0.00  0.00    +0.015 A 
ATOM     25  C   UNL     1       8.044  -6.446  -0.863  0.00  0.00    +0.018 A 
ATOM     26  C   UNL     1       7.931  -6.148  -2.209  0.00  0.00    +0.015 A 
ATOM     27  C   UNL     1       7.129  -5.099  -2.619  0.00  0.00    +0.006 A 
ATOM     28 BR   UNL     1       9.136  -7.885  -0.301  0.00  0.00    -0.050 Br
ENDBRANCH  21  22
ENDBRANCH  18  21
ENDBRANCH   1  15
TORSDOF 5
