REMARK  Name = ZINC41084965
REMARK  4 active torsions:
REMARK  status: ('A' for Active; 'I' for Inactive)
REMARK    1  A    between atoms: C_1  and  C_2
REMARK    2  A    between atoms: C_2  and  C_3
REMARK    3  A    between atoms: C_2  and  C_4
REMARK    4  A    between atoms: C_7  and  C_10
REMARK                            x       y       z     vdW  Elec       q    Type
REMARK                         _______ _______ _______ _____ _____    ______ ____
ROOT
ATOM      1  C   UNL     1       2.691  -1.857  -4.725  0.00  0.00    +0.024 C 
ATOM      2  C   UNL     1       3.865  -2.545  -4.617  0.00  0.00    +0.081 C 
ATOM      3  C   UNL     1       4.656  -2.944  -5.817  0.00  0.00    +0.153 C 
ATOM      4  N   UNL     1       4.709  -2.231  -6.910  0.00  0.00    -0.283 NA
ATOM      5  N   UNL     1       5.342  -4.165  -5.655  0.00  0.00    -0.150 N 
ATOM      6  C   UNL     1       5.624  -4.570  -4.370  0.00  0.00    +0.182 C 
ATOM      7  N   UNL     1       5.247  -4.002  -3.251  0.00  0.00    -0.152 NA
ATOM      8  C   UNL     1       4.428  -2.931  -3.298  0.00  0.00    +0.273 C 
ATOM      9  O   UNL     1       4.155  -2.301  -2.289  0.00  0.00    -0.268 OA
ATOM     10  S   UNL     1       6.586  -6.035  -4.642  0.00  0.00    -0.018 S 
ATOM     11  C   UNL     1       6.465  -6.069  -6.425  0.00  0.00    +0.182 C 
ATOM     12  N   UNL     1       5.766  -4.990  -6.675  0.00  0.00    -0.149 NA
ATOM     13  N   UNL     1       6.978  -6.998  -7.314  0.00  0.00    -0.308 N 
ATOM     14  C   UNL     1       6.840  -6.952  -8.777  0.00  0.00    +0.107 C 
ATOM     15  C   UNL     1       7.546  -8.201  -9.344  0.00  0.00    +0.020 C 
ATOM     16  C   UNL     1       7.553  -9.175  -8.136  0.00  0.00    +0.020 C 
ATOM     17  C   UNL     1       7.759  -8.195  -6.951  0.00  0.00    +0.107 C 
ATOM     18  H   UNL     1       5.239  -2.537  -7.663  0.00  0.00    +0.188 HD
ENDROOT
BRANCH   1  22
ATOM     19  C   UNL     1       0.275  -1.240  -1.298  0.00  0.00    -0.045 A 
ATOM     20  C   UNL     1       0.954  -2.436  -1.455  0.00  0.00    +0.004 A 
ATOM     21  C   UNL     1       1.742  -2.645  -2.566  0.00  0.00    +0.008 A 
ATOM     22  C   UNL     1       1.854  -1.643  -3.539  0.00  0.00    -0.024 A 
ATOM     23  C   UNL     1       1.163  -0.437  -3.372  0.00  0.00    +0.008 A 
ATOM     24  C   UNL     1       0.376  -0.246  -2.257  0.00  0.00    +0.004 A 
BRANCH  19  26
ATOM     25  C   UNL     1      -1.681  -2.087  -0.030  0.00  0.00    +0.012 C 
ATOM     26  C   UNL     1      -0.584  -1.020  -0.080  0.00  0.00    +0.013 C 
ATOM     27  C   UNL     1       0.281  -1.119   1.179  0.00  0.00    +0.012 C 
ENDBRANCH  19  26
ENDBRANCH   1  22
TORSDOF 2
