REMARK  Name = ZINC02718055
REMARK  8 active torsions:
REMARK  status: ('A' for Active; 'I' for Inactive)
REMARK    1  A    between atoms: C_1  and  C_2
REMARK    2  A    between atoms: C_5  and  N_9
REMARK    3  A    between atoms: C_7  and  C_8
REMARK    4  A    between atoms: C_16  and  S_18
REMARK    5  A    between atoms: S_18  and  C_19
REMARK    6  A    between atoms: C_19  and  C_20
REMARK    7  A    between atoms: C_25  and  C_28
REMARK    8  A    between atoms: C_28  and  C_29
REMARK                            x       y       z     vdW  Elec       q    Type
REMARK                         _______ _______ _______ _____ _____    ______ ____
ROOT
ATOM      1  N   UNL     1       0.058  -4.171  -0.021  0.00  0.00    -0.214 N 
ATOM      2  C   UNL     1      -0.565  -4.973  -0.930  0.00  0.00    +0.171 A 
ATOM      3  C   UNL     1      -0.281  -6.298  -0.557  0.00  0.00    +0.103 A 
ATOM      4  C   UNL     1       0.526  -6.241   0.597  0.00  0.00    +0.150 A 
ATOM      5  N   UNL     1       0.725  -4.988   0.900  0.00  0.00    -0.172 NA
ATOM      6  C   UNL     1      -0.811  -7.353  -1.341  0.00  0.00    +0.263 A 
ATOM      7  N   UNL     1      -1.568  -7.036  -2.415  0.00  0.00    -0.301 N 
ATOM      8  C   UNL     1      -1.809  -5.729  -2.726  0.00  0.00    +0.172 A 
ATOM      9  N   UNL     1      -1.323  -4.740  -2.008  0.00  0.00    -0.204 NA
ATOM     10  O   UNL     1      -0.590  -8.517  -1.054  0.00  0.00    -0.267 OA
ATOM     11  H   UNL     1      -1.942  -7.740  -2.967  0.00  0.00    +0.171 HD
ENDROOT
BRANCH   1  16
ATOM     12  C   UNL     1      -0.018   1.503   0.010  0.00  0.00    +0.044 C 
ATOM     13  C   UNL     1       0.002  -0.004   0.002  0.00  0.00    -0.047 A 
ATOM     14  C   UNL     1       0.006  -0.688  -1.200  0.00  0.00    +0.006 A 
ATOM     15  C   UNL     1       0.024  -2.068  -1.211  0.00  0.00    +0.028 A 
ATOM     16  C   UNL     1       0.040  -2.771  -0.013  0.00  0.00    +0.068 A 
ATOM     17  C   UNL     1       0.036  -2.082   1.192  0.00  0.00    +0.031 A 
ATOM     18  C   UNL     1       0.023  -0.700   1.196  0.00  0.00    -0.046 A 
ATOM     19  C   UNL     1       0.026   0.049   2.504  0.00  0.00    +0.044 C 
ENDBRANCH   1  16
BRANCH   8  20
ATOM     20  S   UNL     1      -2.800  -5.355  -4.134  0.00  0.00    -0.078 S 
BRANCH  20  21
ATOM     21  C   UNL     1      -2.853  -3.542  -4.165  0.00  0.00    +0.173 C 
BRANCH  21  22
ATOM     22  C   UNL     1      -3.681  -3.084  -5.338  0.00  0.00    +0.226 C 
ATOM     23  O   UNL     1      -4.185  -3.900  -6.080  0.00  0.00    -0.275 OA
ATOM     24  N   UNL     1      -3.860  -1.767  -5.562  0.00  0.00    -0.301 N 
ATOM     25  C   UNL     1      -3.251  -0.767  -4.676  0.00  0.00    +0.108 C 
ATOM     26  C   UNL     1      -2.437   0.215  -5.526  0.00  0.00    +0.023 C 
ATOM     27  C   UNL     1      -3.335   0.805  -6.616  0.00  0.00    -0.004 C 
ATOM     28  C   UNL     1      -3.841  -0.318  -7.525  0.00  0.00    +0.023 C 
ATOM     29  C   UNL     1      -4.665  -1.305  -6.701  0.00  0.00    +0.108 C 
BRANCH  27  30
ATOM     30  C   UNL     1      -2.535   1.811  -7.445  0.00  0.00    +0.038 C 
BRANCH  30  31
ATOM     31  C   UNL     1      -3.448   2.482  -8.439  0.00  0.00    -0.047 A 
ATOM     32  C   UNL     1      -3.627   1.932  -9.694  0.00  0.00    +0.003 A 
ATOM     33  C   UNL     1      -4.465   2.547 -10.605  0.00  0.00    +0.000 A 
ATOM     34  C   UNL     1      -5.124   3.712 -10.261  0.00  0.00    +0.000 A 
ATOM     35  C   UNL     1      -4.946   4.262  -9.005  0.00  0.00    +0.000 A 
ATOM     36  C   UNL     1      -4.111   3.644  -8.092  0.00  0.00    +0.003 A 
ENDBRANCH  30  31
ENDBRANCH  27  30
ENDBRANCH  21  22
ENDBRANCH  20  21
ENDBRANCH   8  20
TORSDOF 6
