REMARK  Name = ZINC41002222
REMARK  16 active torsions:
REMARK  status: ('A' for Active; 'I' for Inactive)
REMARK    1  A    between atoms: C_1  and  C_2
REMARK    2  A    between atoms: C_2  and  S_3
REMARK    3  A    between atoms: S_3  and  C_4
REMARK    4  A    between atoms: C_9  and  C_21
REMARK    5  A    between atoms: C_11  and  C_15
REMARK    6  A    between atoms: C_12  and  C_14
REMARK    7  A    between atoms: C_15  and  O_17
REMARK    8  A    between atoms: O_17  and  C_18
REMARK    9  A    between atoms: C_18  and  C_19
REMARK   10  A    between atoms: C_18  and  C_20
REMARK   11  A    between atoms: C_24  and  O_29
REMARK   12  A    between atoms: C_25  and  O_27
REMARK   13  A    between atoms: O_27  and  C_28
REMARK   14  A    between atoms: O_29  and  C_30
REMARK   15  A    between atoms: C_30  and  C_31
REMARK   16  A    between atoms: C_30  and  C_32
REMARK                            x       y       z     vdW  Elec       q    Type
REMARK                         _______ _______ _______ _____ _____    ______ ____
ROOT
ATOM      1  C   UNL     1      -1.694  -2.196   0.692  0.00  0.00    +0.210 A 
ATOM      2  N   UNL     1      -0.512  -2.829   0.710  0.00  0.00    -0.187 NA
ATOM      3  C   UNL     1      -0.705  -4.115   0.593  0.00  0.00    +0.219 A 
ATOM      4  N   UNL     1      -2.039  -4.334   0.501  0.00  0.00    -0.220 N 
ATOM      5  N   UNL     1      -2.655  -3.086   0.568  0.00  0.00    -0.141 NA
ATOM      6  C   UNL     1      -2.632  -5.662   0.368  0.00  0.00    +0.179 C 
ATOM      7  C   UNL     1      -1.553  -6.664   0.055  0.00  0.00    +0.082 C 
ATOM      8  C   UNL     1      -0.244  -6.388   0.161  0.00  0.00    +0.020 C 
ATOM      9  N   UNL     1       0.213  -5.155   0.556  0.00  0.00    -0.287 N 
ATOM     10  C   UNL     1       0.757  -7.466  -0.166  0.00  0.00    +0.061 C 
ATOM     11  H   UNL     1       1.142  -5.017   0.799  0.00  0.00    +0.155 HD
ENDROOT
BRANCH   6  12
ATOM     12  C   UNL     1      -3.310  -6.042   1.660  0.00  0.00    -0.015 A 
ATOM     13  C   UNL     1      -2.575  -6.113   2.829  0.00  0.00    +0.010 A 
ATOM     14  C   UNL     1      -3.192  -6.460   4.016  0.00  0.00    +0.050 A 
ATOM     15  C   UNL     1      -4.550  -6.737   4.037  0.00  0.00    +0.162 A 
ATOM     16  C   UNL     1      -5.289  -6.665   2.860  0.00  0.00    +0.162 A 
ATOM     17  C   UNL     1      -4.666  -6.311   1.674  0.00  0.00    +0.055 A 
BRANCH  16  18
ATOM     18  O   UNL     1      -6.622  -6.936   2.875  0.00  0.00    -0.491 OA
ATOM     19  C   UNL     1      -7.317  -6.842   1.630  0.00  0.00    +0.277 C 
ENDBRANCH  16  18
BRANCH  15  20
ATOM     20  O   UNL     1      -5.158  -7.079   5.204  0.00  0.00    -0.486 OA
BRANCH  20  21
ATOM     21  C   UNL     1      -4.356  -7.053   6.386  0.00  0.00    +0.167 C 
ATOM     22  C   UNL     1      -4.290  -5.623   6.926  0.00  0.00    +0.051 C 
ATOM     23  C   UNL     1      -4.974  -7.970   7.443  0.00  0.00    +0.051 C 
ENDBRANCH  20  21
ENDBRANCH  15  20
ENDBRANCH   6  12
BRANCH   7  24
ATOM     24  C   UNL     1      -1.936  -7.956  -0.370  0.00  0.00    +0.339 C 
ATOM     25  O   UNL     1      -2.336  -8.129  -1.507  0.00  0.00    -0.245 OA
BRANCH  24  26
ATOM     26  O   UNL     1      -1.859  -8.998   0.484  0.00  0.00    -0.459 OA
BRANCH  26  27
ATOM     27  C   UNL     1      -2.262 -10.275  -0.013  0.00  0.00    +0.171 C 
ATOM     28  C   UNL     1      -1.471 -11.373   0.700  0.00  0.00    +0.052 C 
ATOM     29  C   UNL     1      -3.757 -10.474   0.245  0.00  0.00    +0.052 C 
ENDBRANCH  26  27
ENDBRANCH  24  26
ENDBRANCH   7  24
BRANCH   1  30
ATOM     30  S   UNL     1      -1.924  -0.453   0.820  0.00  0.00    -0.085 S 
BRANCH  30  32
ATOM     31  C   UNL     1      -0.292   1.726   1.083  0.00  0.00    +0.016 C 
ATOM     32  C   UNL     1      -0.238   0.202   0.963  0.00  0.00    +0.074 C 
ENDBRANCH  30  32
ENDBRANCH   1  30
TORSDOF 9
