REMARK  Name = ZINC59403714
REMARK  12 active torsions:
REMARK  status: ('A' for Active; 'I' for Inactive)
REMARK    1  A    between atoms: C_1  and  C_2
REMARK    2  A    between atoms: C_3  and  N_14
REMARK    3  A    between atoms: C_4  and  C_13
REMARK    4  A    between atoms: N_5  and  C_7
REMARK    5  A    between atoms: C_15  and  C_17
REMARK    6  A    between atoms: C_17  and  N_18
REMARK    7  A    between atoms: C_21  and  C_24
REMARK    8  A    between atoms: C_24  and  C_26
REMARK    9  A    between atoms: C_29  and  C_32
REMARK   10  A    between atoms: C_32  and  C_33
REMARK   11  A    between atoms: C_33  and  C_34
REMARK   12  A    between atoms: C_33  and  C_35
REMARK                            x       y       z     vdW  Elec       q    Type
REMARK                         _______ _______ _______ _____ _____    ______ ____
ROOT
ATOM      1  N   UNL     1       1.250   2.727  -4.185  0.00  0.00    +0.385 N 
ATOM      2  C   UNL     1       2.677   2.448  -3.985  0.00  0.00    -0.077 C 
ATOM      3  C   UNL     1       3.460   3.762  -3.966  0.00  0.00    -0.007 C 
ATOM      4  C   UNL     1       3.261   4.487  -5.301  0.00  0.00    +0.057 C 
ATOM      5  C   UNL     1       1.764   4.707  -5.534  0.00  0.00    -0.007 C 
ATOM      6  C   UNL     1       1.044   3.357  -5.494  0.00  0.00    -0.077 C 
ATOM      7  H   UNL     1       0.926   3.348  -3.459  0.00  0.00    -0.081 HD
ENDROOT
BRANCH   4   8
ATOM      8  C   UNL     1       3.966   5.819  -5.260  0.00  0.00    +0.166 C 
ATOM      9  O   UNL     1       4.169   6.365  -4.197  0.00  0.00    -0.292 OA
BRANCH   8  10
ATOM     10  C   UNL     1       4.407   6.456  -6.511  0.00  0.00    +0.018 A 
ATOM     11  C   UNL     1       4.169   5.832  -7.740  0.00  0.00    +0.011 A 
ATOM     12  C   UNL     1       4.585   6.436  -8.908  0.00  0.00    +0.004 A 
ATOM     13  C   UNL     1       5.236   7.657  -8.866  0.00  0.00    -0.047 A 
ATOM     14  C   UNL     1       5.476   8.280  -7.654  0.00  0.00    +0.004 A 
ATOM     15  C   UNL     1       5.061   7.692  -6.478  0.00  0.00    +0.011 A 
BRANCH  13  16
ATOM     16  C   UNL     1       5.688   8.309 -10.147  0.00  0.00    +0.038 C 
BRANCH  16  17
ATOM     17  C   UNL     1       4.572   9.211 -10.680  0.00  0.00    -0.013 C 
ATOM     18  C   UNL     1       5.074   9.969 -11.911  0.00  0.00    +0.007 C 
ATOM     19  C   UNL     1       3.365   8.354 -11.066  0.00  0.00    +0.007 C 
ENDBRANCH  16  17
ENDBRANCH  13  16
ENDBRANCH   8  10
ENDBRANCH   4   8
BRANCH   1  20
ATOM     20  C   UNL     1       0.493   1.469  -4.124  0.00  0.00    +0.019 C 
BRANCH  20  22
ATOM     21  N   UNL     1      -0.015  -0.279  -2.450  0.00  0.00    -0.284 N 
ATOM     22  C   UNL     1       0.604   0.882  -2.740  0.00  0.00    +0.201 C 
ATOM     23  O   UNL     1       1.249   1.456  -1.888  0.00  0.00    -0.278 OA
ATOM     24  H   UNL     1      -0.494  -0.760  -3.142  0.00  0.00    +0.155 HD
BRANCH  21  27
ATOM     25  C   UNL     1      -1.058   1.215   0.076  0.00  0.00    +0.069 C 
ATOM     26  C   UNL     1      -0.425  -0.151   0.018  0.00  0.00    +0.082 A 
ATOM     27  C   UNL     1       0.035  -0.794  -1.141  0.00  0.00    +0.078 A 
ATOM     28  C   UNL     1       0.535  -2.002  -0.775  0.00  0.00    +0.063 A 
ATOM     29  N   UNL     1       0.394  -2.114   0.574  0.00  0.00    -0.235 N 
ATOM     30  N   UNL     1      -0.205  -0.937   1.041  0.00  0.00    -0.170 NA
ATOM     31  C   UNL     1       1.137  -3.033  -1.696  0.00  0.00    +0.068 C 
BRANCH  29  32
ATOM     32  C   UNL     1       0.782  -3.209   1.356  0.00  0.00    +0.066 A 
ATOM     33  C   UNL     1       2.021  -3.804   1.154  0.00  0.00    +0.028 A 
ATOM     34  C   UNL     1       2.401  -4.883   1.927  0.00  0.00    +0.002 A 
ATOM     35  C   UNL     1       1.550  -5.372   2.902  0.00  0.00    +0.000 A 
ATOM     36  C   UNL     1       0.317  -4.781   3.106  0.00  0.00    +0.002 A 
ATOM     37  C   UNL     1      -0.067  -3.698   2.340  0.00  0.00    +0.028 A 
ENDBRANCH  29  32
ENDBRANCH  21  27
ENDBRANCH  20  22
ENDBRANCH   1  20
TORSDOF 8
