REMARK  Name = ZINC31002639
REMARK  13 active torsions:
REMARK  status: ('A' for Active; 'I' for Inactive)
REMARK    1  A    between atoms: C_1  and  C_2
REMARK    2  A    between atoms: C_2  and  C_3
REMARK    3  A    between atoms: C_2  and  C_4
REMARK    4  A    between atoms: C_4  and  C_6
REMARK    5  A    between atoms: C_4  and  N_22
REMARK    6  A    between atoms: N_8  and  C_9
REMARK    7  A    between atoms: C_12  and  N_15
REMARK    8  A    between atoms: N_18  and  C_19
REMARK    9  A    between atoms: C_19  and  C_20
REMARK   10  A    between atoms: C_19  and  C_21
REMARK   11  A    between atoms: C_23  and  O_25
REMARK   12  A    between atoms: O_25  and  C_26
REMARK   13  A    between atoms: C_26  and  C_27
REMARK                            x       y       z     vdW  Elec       q    Type
REMARK                         _______ _______ _______ _____ _____    ______ ____
ROOT
ATOM      1  C   UNL     1      -1.034   3.375   1.003  0.00  0.00    +0.238 C 
ATOM      2  O   UNL     1      -2.130   3.879   1.129  0.00  0.00    -0.273 OA
ATOM      3  N   UNL     1       0.066   4.154   0.968  0.00  0.00    -0.284 N 
ATOM      4  H   UNL     1       1.065   3.696   0.968  0.00  0.00    +0.155 HD
ENDROOT
BRANCH   3   5
ATOM      5  C   UNL     1      -0.065   5.549   0.931  0.00  0.00    +0.034 A 
ATOM      6  C   UNL     1      -1.197   6.154   1.459  0.00  0.00    +0.025 A 
ATOM      7  C   UNL     1      -1.323   7.529   1.428  0.00  0.00    +0.025 A 
ATOM      8  C   UNL     1      -0.323   8.305   0.858  0.00  0.00    +0.035 A 
ATOM      9  C   UNL     1       0.807   7.699   0.325  0.00  0.00    +0.025 A 
ATOM     10  C   UNL     1       0.936   6.325   0.361  0.00  0.00    +0.025 A 
BRANCH   8  11
ATOM     11  N   UNL     1      -0.453   9.700   0.822  0.00  0.00    -0.269 N 
ATOM     12  C   UNL     1      -1.167  10.335   1.773  0.00  0.00    +0.304 C 
ATOM     13  O   UNL     1      -1.575   9.720   2.739  0.00  0.00    -0.253 OA
ATOM     14  N   UNL     1      -1.427  11.652   1.653  0.00  0.00    -0.297 N 
ATOM     15  H   UNL     1       0.026  10.276   0.017  0.00  0.00    +0.156 HD
ATOM     16  H   UNL     1      -1.057  12.208   0.779  0.00  0.00    +0.151 HD
BRANCH  14  17
ATOM     17  C   UNL     1      -2.202  12.342   2.686  0.00  0.00    +0.068 C 
ATOM     18  C   UNL     1      -1.269  12.779   3.817  0.00  0.00    +0.027 C 
ATOM     19  C   UNL     1      -2.879  13.573   2.079  0.00  0.00    +0.027 C 
ENDBRANCH  14  17
ENDBRANCH   8  11
ENDBRANCH   3   5
BRANCH   1  20
ATOM     20  C   UNL     1      -0.900   1.879   0.886  0.00  0.00    +0.165 C 
BRANCH  20  21
ATOM     21  N   UNL     1      -1.990   1.233   1.621  0.00  0.00    -0.270 N 
ATOM     22  C   UNL     1      -1.835  -0.021   2.092  0.00  0.00    +0.401 C 
ATOM     23  O   UNL     1      -0.792  -0.615   1.905  0.00  0.00    -0.226 OA
ATOM     24  H   UNL     1      -2.935   1.771   1.790  0.00  0.00    +0.153 HD
BRANCH  22  25
ATOM     25  O   UNL     1      -2.837  -0.615   2.768  0.00  0.00    -0.446 OA
BRANCH  25  26
ATOM     26  C   UNL     1      -2.600  -1.965   3.245  0.00  0.00    +0.269 C 
BRANCH  26  27
ATOM     27  C   UNL     1      -3.822  -2.462   3.973  0.00  0.00    -0.010 A 
ATOM     28  C   UNL     1      -3.947  -2.257   5.334  0.00  0.00    +0.007 A 
ATOM     29  C   UNL     1      -5.070  -2.709   6.001  0.00  0.00    +0.000 A 
ATOM     30  C   UNL     1      -6.064  -3.375   5.309  0.00  0.00    +0.000 A 
ATOM     31  C   UNL     1      -5.936  -3.586   3.949  0.00  0.00    +0.000 A 
ATOM     32  C   UNL     1      -4.816  -3.129   3.281  0.00  0.00    +0.007 A 
ENDBRANCH  26  27
ENDBRANCH  25  26
ENDBRANCH  22  25
ENDBRANCH  20  21
BRANCH  20  34
ATOM     33  C   UNL     1      -2.383   1.724  -1.119  0.00  0.00    +0.009 C 
ATOM     34  C   UNL     1      -0.970   1.474  -0.588  0.00  0.00    +0.012 C 
ATOM     35  C   UNL     1      -0.628  -0.010  -0.726  0.00  0.00    +0.009 C 
ENDBRANCH  20  34
ENDBRANCH   1  20
TORSDOF 9
