REMARK  Name = ZINC34791070
REMARK  6 active torsions:
REMARK  status: ('A' for Active; 'I' for Inactive)
REMARK    1  A    between atoms: C_1  and  C_2
REMARK    2  A    between atoms: N_6  and  C_26
REMARK    3  A    between atoms: C_14  and  O_16
REMARK    4  A    between atoms: O_16  and  C_17
REMARK    5  A    between atoms: N_23  and  C_24
REMARK    6  A    between atoms: N_23  and  C_25
REMARK                            x       y       z     vdW  Elec       q    Type
REMARK                         _______ _______ _______ _____ _____    ______ ____
ROOT
ATOM      1  C   UNL     1       0.161   1.030   0.024  0.00  0.00    +0.038 C 
ATOM      2  C   UNL     1       0.083  -0.448   0.413  0.00  0.00    +0.168 C 
ATOM      3  C   UNL     1       0.912  -1.288  -0.533  0.00  0.00    +0.247 C 
ATOM      4  O   UNL     1       0.753  -1.403  -1.730  0.00  0.00    -0.273 OA
ATOM      5  N   UNL     1       1.863  -1.883   0.212  0.00  0.00    -0.212 N 
ATOM      6  C   UNL     1       1.751  -1.530   1.537  0.00  0.00    +0.175 C 
ATOM      7  N   UNL     1       2.538  -1.956   2.481  0.00  0.00    -0.374 N 
ATOM      8  N   UNL     1       0.695  -0.664   1.734  0.00  0.00    -0.231 N 
ATOM      9  C   UNL     1       0.290  -0.108   2.935  0.00  0.00    +0.232 A 
ATOM     10  N   UNL     1       0.948  -0.393   4.054  0.00  0.00    -0.180 NA
ATOM     11  C   UNL     1       0.558   0.142   5.207  0.00  0.00    +0.225 A 
ATOM     12  N   UNL     1      -0.488   0.961   5.240  0.00  0.00    -0.161 NA
ATOM     13  C   UNL     1      -1.144   1.245   4.122  0.00  0.00    +0.329 A 
ATOM     14  N   UNL     1      -0.752   0.715   2.969  0.00  0.00    -0.160 NA
ATOM     15  N   UNL     1       1.240  -0.154   6.370  0.00  0.00    -0.306 N 
ATOM     16  C   UNL     1       2.393  -1.057   6.334  0.00  0.00    +0.132 C 
ATOM     17  C   UNL     1       0.811   0.435   7.641  0.00  0.00    +0.132 C 
ATOM     18  H   UNL     1       3.318  -2.489   2.258  0.00  0.00    +0.158 HD
ATOM     19  H   UNL     1       2.345  -1.742   3.407  0.00  0.00    +0.158 HD
ENDROOT
BRANCH   5  20
ATOM     20  C   UNL     1       2.839  -2.751  -0.296  0.00  0.00    +0.044 A 
ATOM     21  C   UNL     1       3.816  -2.271  -1.158  0.00  0.00    +0.025 A 
ATOM     22  C   UNL     1       4.777  -3.128  -1.657  0.00  0.00    +0.022 A 
ATOM     23  C   UNL     1       4.767  -4.465  -1.299  0.00  0.00    +0.041 A 
ATOM     24  C   UNL     1       3.794  -4.946  -0.440  0.00  0.00    +0.022 A 
ATOM     25  C   UNL     1       2.835  -4.091   0.067  0.00  0.00    +0.025 A 
ATOM     26 CL   UNL     1       5.976  -5.540  -1.929  0.00  0.00    -0.084 Cl
ENDBRANCH   5  20
BRANCH  13  27
ATOM     27  O   UNL     1      -2.210   2.078   4.155  0.00  0.00    -0.424 OA
BRANCH  27  28
ATOM     28  C   UNL     1      -2.522   2.667   5.340  0.00  0.00    +0.132 A 
ATOM     29  C   UNL     1      -1.777   3.745   5.797  0.00  0.00    +0.046 A 
ATOM     30  C   UNL     1      -2.097   4.342   7.001  0.00  0.00    +0.004 A 
ATOM     31  C   UNL     1      -3.157   3.867   7.750  0.00  0.00    +0.000 A 
ATOM     32  C   UNL     1      -3.901   2.793   7.296  0.00  0.00    +0.004 A 
ATOM     33  C   UNL     1      -3.589   2.196   6.091  0.00  0.00    +0.046 A 
ENDBRANCH  27  28
ENDBRANCH  13  27
TORSDOF 3
