REMARK  Name = ZINC59044717
REMARK  7 active torsions:
REMARK  status: ('A' for Active; 'I' for Inactive)
REMARK    1  A    between atoms: C_1  and  C_2
REMARK    2  A    between atoms: C_4  and  C_24
REMARK    3  A    between atoms: C_7  and  C_9
REMARK    4  A    between atoms: C_9  and  S_10
REMARK    5  A    between atoms: S_10  and  C_11
REMARK    6  A    between atoms: C_14  and  C_17
REMARK    7  A    between atoms: N_15  and  N_16
REMARK                            x       y       z     vdW  Elec       q    Type
REMARK                         _______ _______ _______ _____ _____    ______ ____
ROOT
ATOM      1  C   UNL     1       0.085  -4.322   5.429  0.00  0.00    +0.209 A 
ATOM      2  N   UNL     1       0.066  -3.130   5.981  0.00  0.00    -0.121 NA
ATOM      3  N   UNL     1       0.074  -3.237   7.262  0.00  0.00    -0.127 NA
ATOM      4  C   UNL     1       0.100  -4.503   7.606  0.00  0.00    +0.182 A 
ATOM      5  N   UNL     1       0.102  -5.238   6.442  0.00  0.00    -0.224 N 
ENDROOT
BRANCH   4   6
ATOM      6  C   UNL     1       0.117  -5.040   8.983  0.00  0.00    +0.022 A 
ATOM      7  C   UNL     1       0.462  -6.373   9.212  0.00  0.00    +0.012 A 
ATOM      8  C   UNL     1       0.477  -6.868  10.500  0.00  0.00    +0.002 A 
ATOM      9  C   UNL     1       0.150  -6.046  11.564  0.00  0.00    +0.015 A 
ATOM     10  C   UNL     1      -0.193  -4.723  11.344  0.00  0.00    +0.019 A 
ATOM     11  C   UNL     1      -0.205  -4.214  10.061  0.00  0.00    +0.027 A 
ATOM     12 BR   UNL     1      -0.637  -3.608  12.806  0.00  0.00    -0.050 Br
ENDBRANCH   4   6
BRANCH   5  13
ATOM     13  N   UNL     1       0.120  -6.599   6.325  0.00  0.00    -0.295 N 
ATOM     14  H   UNL     1       1.067  -6.946   6.290  0.00  0.00    +0.163 HD
ATOM     15  H   UNL     1      -0.397  -7.033   7.075  0.00  0.00    +0.163 HD
ENDBRANCH   5  13
BRANCH   1  16
ATOM     16  S   UNL     1       0.082  -4.675   3.702  0.00  0.00    -0.075 S 
BRANCH  16  17
ATOM     17  C   UNL     1       0.057  -3.038   2.921  0.00  0.00    +0.178 C 
BRANCH  17  24
ATOM     18  C   UNL     1      -0.018   1.503   0.010  0.00  0.00    +0.067 C 
ATOM     19  C   UNL     1       0.002  -0.004   0.002  0.00  0.00    +0.061 A 
ATOM     20  C   UNL     1       0.008  -0.818  -1.140  0.00  0.00    +0.048 A 
ATOM     21  C   UNL     1       0.027  -2.106  -0.734  0.00  0.00    +0.045 A 
ATOM     22  N   UNL     1       0.034  -2.107   0.629  0.00  0.00    -0.204 N 
ATOM     23  N   UNL     1       0.023  -0.774   1.058  0.00  0.00    -0.169 NA
ATOM     24  C   UNL     1       0.052  -3.197   1.422  0.00  0.00    +0.258 C 
ATOM     25  O   UNL     1       0.065  -4.301   0.932  0.00  0.00    -0.270 OA
ATOM     26  C   UNL     1       0.040  -3.320  -1.626  0.00  0.00    +0.066 C 
ENDBRANCH  17  24
ENDBRANCH  16  17
ENDBRANCH   1  16
TORSDOF 5
