REMARK  Name = ZINC60409649
REMARK  5 active torsions:
REMARK  status: ('A' for Active; 'I' for Inactive)
REMARK    1  A    between atoms: C_3  and  C_11
REMARK    2  A    between atoms: C_6  and  N_7
REMARK    3  A    between atoms: N_13  and  C_14
REMARK    4  A    between atoms: C_18  and  S_20
REMARK    5  A    between atoms: S_20  and  N_23
REMARK                            x       y       z     vdW  Elec       q    Type
REMARK                         _______ _______ _______ _____ _____    ______ ____
ROOT
ATOM      1  C   UNL     1       3.654   2.165  -0.020  0.00  0.00    +0.251 C 
ATOM      2  O   UNL     1       4.715   1.570  -0.024  0.00  0.00    -0.270 OA
ATOM      3  N   UNL     1       3.638   3.512  -0.015  0.00  0.00    -0.281 N 
ATOM      4  H   UNL     1       2.795   3.987  -0.079  0.00  0.00    +0.155 HD
ENDROOT
BRANCH   1   7
ATOM      5  C   UNL     1      -0.017   1.381  -0.014  0.00  0.00    +0.033 A 
ATOM      6  C   UNL     1       1.165   2.091  -0.014  0.00  0.00    +0.018 A 
ATOM      7  C   UNL     1       2.385   1.411  -0.019  0.00  0.00    +0.072 A 
ATOM      8  C   UNL     1       2.398   0.012  -0.025  0.00  0.00    +0.138 A 
ATOM      9  C   UNL     1       1.204  -0.686  -0.025  0.00  0.00    +0.071 A 
ATOM     10  C   UNL     1       0.002  -0.004  -0.020  0.00  0.00    +0.129 A 
ATOM     11  F   UNL     1       3.573  -0.655  -0.030  0.00  0.00    -0.205 F 
BRANCH  10  12
ATOM     12  N   UNL     1      -1.272  -0.757  -0.020  0.00  0.00    +0.057 N 
ATOM     13  O   UNL     1      -2.326  -0.164  -0.015  0.00  0.00    -0.126 OA
ATOM     14  O   UNL     1      -1.260  -1.966  -0.025  0.00  0.00    -0.126 OA
ENDBRANCH  10  12
ENDBRANCH   1   7
BRANCH   3  15
ATOM     15  C   UNL     1       4.837   4.226   0.083  0.00  0.00    +0.038 A 
ATOM     16  C   UNL     1       4.880   5.420   0.789  0.00  0.00    +0.061 A 
ATOM     17  C   UNL     1       6.067   6.123   0.884  0.00  0.00    +0.127 A 
ATOM     18  C   UNL     1       7.211   5.636   0.274  0.00  0.00    +0.067 A 
ATOM     19  C   UNL     1       7.170   4.447  -0.430  0.00  0.00    +0.109 A 
ATOM     20  C   UNL     1       5.988   3.738  -0.522  0.00  0.00    +0.052 A 
ATOM     21  F   UNL     1       6.111   7.286   1.571  0.00  0.00    -0.205 F 
BRANCH  19  22
ATOM     22  S   UNL     1       8.627   3.832  -1.205  0.00  0.00    +0.056 S 
ATOM     23  O   UNL     1       8.199   2.981  -2.259  0.00  0.00    -0.153 OA
ATOM     24  O   UNL     1       9.473   4.953  -1.427  0.00  0.00    -0.153 OA
BRANCH  22  25
ATOM     25  N   UNL     1       9.399   2.868  -0.102  0.00  0.00    -0.204 NA
ATOM     26  H   UNL     1       9.018   2.741   0.781  0.00  0.00    +0.144 HD
ATOM     27  H   UNL     1      10.231   2.430  -0.339  0.00  0.00    +0.144 HD
ENDBRANCH  22  25
ENDBRANCH  19  22
ENDBRANCH   3  15
TORSDOF 5
