REMARK  Name = ZINC06197645
REMARK  16 active torsions:
REMARK  status: ('A' for Active; 'I' for Inactive)
REMARK    1  A    between atoms: C_1  and  C_2
REMARK    2  A    between atoms: C_2  and  C_3
REMARK    3  A    between atoms: C_6  and  C_9
REMARK    4  A    between atoms: C_14  and  C_19
REMARK    5  A    between atoms: C_22  and  O_27
REMARK    6  A    between atoms: C_23  and  O_25
REMARK    7  A    between atoms: O_25  and  C_26
REMARK    8  A    between atoms: O_27  and  C_28
REMARK    9  A    between atoms: C_30  and  C_40
REMARK   10  A    between atoms: C_31  and  C_32
REMARK   11  A    between atoms: C_32  and  O_34
REMARK   12  A    between atoms: O_34  and  C_35
REMARK   13  A    between atoms: C_35  and  C_36
REMARK   14  A    between atoms: C_36  and  S_37
REMARK   15  A    between atoms: S_37  and  C_38
REMARK   16  A    between atoms: C_38  and  C_39
REMARK                            x       y       z     vdW  Elec       q    Type
REMARK                         _______ _______ _______ _____ _____    ______ ____
ROOT
ATOM      1  C   UNL     1      -1.293  -0.775   0.011  0.00  0.00    +0.092 C 
ATOM      2  C   UNL     1      -1.341  -1.647   1.240  0.00  0.00    +0.024 C 
ATOM      3  C   UNL     1      -1.094  -2.971   1.156  0.00  0.00    +0.016 C 
ATOM      4  C   UNL     1      -1.128  -3.848   2.384  0.00  0.00    +0.059 C 
ATOM      5  C   UNL     1      -2.140  -3.288   3.387  0.00  0.00    +0.032 C 
ATOM      6  C   UNL     1      -1.733  -1.853   3.737  0.00  0.00    +0.088 C 
ATOM      7  C   UNL     1      -1.653  -1.044   2.471  0.00  0.00    +0.162 C 
ATOM      8  O   UNL     1      -1.860   0.153   2.514  0.00  0.00    -0.292 OA
ATOM      9  N   UNL     1      -0.807  -3.550  -0.051  0.00  0.00    -0.321 N 
ATOM     10  C   UNL     1      -1.138  -2.923  -1.220  0.00  0.00    +0.016 C 
ATOM     11  C   UNL     1      -1.383  -1.601  -1.239  0.00  0.00    +0.065 C 
ATOM     12  C   UNL     1      -1.231  -3.719  -2.496  0.00  0.00    +0.061 C 
ATOM     13  H   UNL     1      -0.306  -4.528  -0.087  0.00  0.00    +0.152 HD
ENDROOT
BRANCH   1  17
ATOM     14  C   UNL     1       2.377   1.411  -0.015  0.00  0.00    -0.048 A 
ATOM     15  C   UNL     1       1.171   2.086   0.002  0.00  0.00    +0.004 A 
ATOM     16  C   UNL     1      -0.017   1.378   0.010  0.00  0.00    +0.005 A 
ATOM     17  C   UNL     1       0.002  -0.004   0.002  0.00  0.00    -0.035 A 
ATOM     18  C   UNL     1       1.208  -0.679  -0.013  0.00  0.00    +0.005 A 
ATOM     19  C   UNL     1       2.396   0.029  -0.022  0.00  0.00    +0.004 A 
BRANCH  14  21
ATOM     20  C   UNL     1       4.096   2.450  -1.470  0.00  0.00    +0.009 C 
ATOM     21  C   UNL     1       3.672   2.182  -0.024  0.00  0.00    +0.032 C 
ENDBRANCH  14  21
ENDBRANCH   1  17
BRANCH   5  22
ATOM     22  C   UNL     1      -2.138  -4.133   4.634  0.00  0.00    -0.040 A 
ATOM     23  C   UNL     1      -0.971  -4.291   5.359  0.00  0.00    +0.008 A 
ATOM     24  C   UNL     1      -0.966  -5.061   6.506  0.00  0.00    +0.049 A 
ATOM     25  C   UNL     1      -2.128  -5.687   6.927  0.00  0.00    +0.161 A 
ATOM     26  C   UNL     1      -3.301  -5.533   6.194  0.00  0.00    +0.162 A 
ATOM     27  C   UNL     1      -3.302  -4.755   5.048  0.00  0.00    +0.053 A 
BRANCH  26  28
ATOM     28  O   UNL     1      -4.446  -6.144   6.603  0.00  0.00    -0.491 OA
ATOM     29  C   UNL     1      -5.611  -5.941   5.802  0.00  0.00    +0.277 C 
ENDBRANCH  26  28
BRANCH  25  30
ATOM     30  O   UNL     1      -2.123  -6.450   8.053  0.00  0.00    -0.491 OA
ATOM     31  C   UNL     1      -0.883  -6.563   8.754  0.00  0.00    +0.277 C 
ENDBRANCH  25  30
ENDBRANCH   5  22
BRANCH  11  32
ATOM     32  C   UNL     1      -1.731  -0.978  -2.459  0.00  0.00    +0.338 C 
ATOM     33  O   UNL     1      -1.808  -1.637  -3.479  0.00  0.00    -0.245 OA
BRANCH  32  34
ATOM     34  O   UNL     1      -1.979   0.348  -2.493  0.00  0.00    -0.460 OA
BRANCH  34  35
ATOM     35  C   UNL     1      -2.326   0.912  -3.759  0.00  0.00    +0.243 C 
BRANCH  35  36
ATOM     36  C   UNL     1      -2.569   2.414  -3.600  0.00  0.00    +0.110 C 
BRANCH  36  37
ATOM     37  S   UNL     1      -3.009   3.130  -5.208  0.00  0.00    -0.158 S 
BRANCH  37  38
ATOM     38  C   UNL     1      -3.261   4.890  -4.850  0.00  0.00    +0.066 C 
ATOM     39  C   UNL     1      -3.643   5.622  -6.138  0.00  0.00    +0.015 C 
ENDBRANCH  37  38
ENDBRANCH  36  37
ENDBRANCH  35  36
ENDBRANCH  34  35
ENDBRANCH  32  34
ENDBRANCH  11  32
TORSDOF 11
