REMARK  Name = ZINC13682127
REMARK  7 active torsions:
REMARK  status: ('A' for Active; 'I' for Inactive)
REMARK    1  A    between atoms: C_1  and  C_2
REMARK    2  A    between atoms: C_2  and  C_3
REMARK    3  A    between atoms: C_2  and  C_4
REMARK    4  A    between atoms: C_7  and  N_10
REMARK    5  A    between atoms: C_11  and  C_13
REMARK    6  A    between atoms: N_16  and  S_24
REMARK    7  A    between atoms: S_24  and  C_27
REMARK                            x       y       z     vdW  Elec       q    Type
REMARK                         _______ _______ _______ _____ _____    ______ ____
ROOT
ATOM      1  C   UNL     1       2.317   5.213   0.432  0.00  0.00    +0.278 C 
ATOM      2  C   UNL     1       1.184   5.952  -0.293  0.00  0.00    +0.186 C 
ATOM      3  N   UNL     1      -0.074   5.251   0.016  0.00  0.00    -0.195 N 
ATOM      4  C   UNL     1      -0.057   3.847   0.006  0.00  0.00    +0.093 A 
ATOM      5  C   UNL     1      -1.248   3.138   0.007  0.00  0.00    +0.028 A 
ATOM      6  C   UNL     1      -1.227   1.756  -0.004  0.00  0.00    +0.002 A 
ATOM      7  C   UNL     1      -0.020   1.082  -0.003  0.00  0.00    +0.004 A 
ATOM      8  C   UNL     1       1.171   1.784  -0.004  0.00  0.00    +0.047 A 
ATOM      9  C   UNL     1       1.159   3.170  -0.000  0.00  0.00    +0.144 A 
ATOM     10  O   UNL     1       2.335   3.853  -0.006  0.00  0.00    -0.476 OA
ENDROOT
BRANCH   1  12
ATOM     11  N   UNL     1       3.886   7.124   0.523  0.00  0.00    -0.282 N 
ATOM     12  C   UNL     1       3.637   5.865   0.109  0.00  0.00    +0.260 C 
ATOM     13  O   UNL     1       4.475   5.258  -0.523  0.00  0.00    -0.271 OA
ATOM     14  H   UNL     1       3.192   7.634   0.970  0.00  0.00    +0.155 HD
BRANCH  11  18
ATOM     15  C   UNL     1       7.636   8.823  -0.117  0.00  0.00    -0.045 A 
ATOM     16  C   UNL     1       7.101   7.958  -1.054  0.00  0.00    +0.006 A 
ATOM     17  C   UNL     1       5.859   7.393  -0.845  0.00  0.00    +0.023 A 
ATOM     18  C   UNL     1       5.145   7.694   0.308  0.00  0.00    +0.034 A 
ATOM     19  C   UNL     1       5.682   8.569   1.244  0.00  0.00    +0.023 A 
ATOM     20  C   UNL     1       6.928   9.125   1.032  0.00  0.00    +0.006 A 
BRANCH  15  22
ATOM     21  C   UNL     1       8.862  10.962  -0.385  0.00  0.00    +0.012 C 
ATOM     22  C   UNL     1       8.992   9.438  -0.349  0.00  0.00    +0.013 C 
ATOM     23  C   UNL     1       9.936   9.033   0.785  0.00  0.00    +0.012 C 
ENDBRANCH  15  22
ENDBRANCH  11  18
ENDBRANCH   1  12
BRANCH   3  24
ATOM     24  S   UNL     1      -1.460   6.089   0.362  0.00  0.00    +0.075 S 
ATOM     25  O   UNL     1      -2.280   5.218   1.129  0.00  0.00    -0.150 OA
ATOM     26  O   UNL     1      -1.054   7.366   0.834  0.00  0.00    -0.150 OA
BRANCH  24  27
ATOM     27  C   UNL     1      -2.300   6.359  -1.163  0.00  0.00    +0.109 A 
ATOM     28  C   UNL     1      -2.045   7.500  -1.900  0.00  0.00    +0.030 A 
ATOM     29  C   UNL     1      -2.700   7.710  -3.099  0.00  0.00    +0.022 A 
ATOM     30  C   UNL     1      -3.619   6.783  -3.556  0.00  0.00    +0.041 A 
ATOM     31  C   UNL     1      -3.878   5.644  -2.815  0.00  0.00    +0.022 A 
ATOM     32  C   UNL     1      -3.219   5.432  -1.619  0.00  0.00    +0.030 A 
ATOM     33 CL   UNL     1      -4.447   7.049  -5.058  0.00  0.00    -0.084 Cl
ENDBRANCH  24  27
ENDBRANCH   3  24
TORSDOF 5
