REMARK  Name = ZINC39664364
REMARK  7 active torsions:
REMARK  status: ('A' for Active; 'I' for Inactive)
REMARK    1  A    between atoms: C_1  and  C_2
REMARK    2  A    between atoms: C_6  and  C_9
REMARK    3  A    between atoms: C_13  and  C_22
REMARK    4  A    between atoms: N_24  and  C_25
REMARK    5  A    between atoms: C_25  and  C_26
REMARK    6  A    between atoms: C_26  and  C_28
REMARK    7  A    between atoms: C_26  and  N_34
REMARK                            x       y       z     vdW  Elec       q    Type
REMARK                         _______ _______ _______ _____ _____    ______ ____
ROOT
ATOM      1  C   UNL     1      -1.444  -1.329   1.485  0.00  0.00    +0.252 C 
ATOM      2  O   UNL     1      -0.290  -1.255   1.861  0.00  0.00    -0.270 OA
ATOM      3  N   UNL     1      -2.360  -1.964   2.243  0.00  0.00    -0.296 N 
ATOM      4  C   UNL     1      -3.800  -2.161   1.952  0.00  0.00    +0.121 C 
ATOM      5  C   UNL     1      -4.102  -3.598   2.434  0.00  0.00    +0.100 C 
ATOM      6  C   UNL     1      -3.021  -3.894   3.487  0.00  0.00    -0.004 C 
ATOM      7  C   UNL     1      -2.154  -2.628   3.552  0.00  0.00    +0.115 C 
ATOM      8  C   UNL     1      -3.665  -4.165   4.844  0.00  0.00    -0.010 C 
ATOM      9  C   UNL     1      -2.574  -4.514   5.860  0.00  0.00    -0.082 C 
ATOM     10  N   UNL     1      -1.835  -5.696   5.402  0.00  0.00    +0.379 N 
ATOM     11  C   UNL     1      -1.143  -5.397   4.142  0.00  0.00    -0.082 C 
ATOM     12  C   UNL     1      -2.173  -5.086   3.053  0.00  0.00    -0.010 C 
ATOM     13  H   UNL     1      -1.158  -5.960   6.102  0.00  0.00    -0.086 HD
ATOM     14  H   UNL     1      -2.480  -6.459   5.257  0.00  0.00    -0.086 HD
ENDROOT
BRANCH   1  20
ATOM     15  C   UNL     1      -3.128   2.591  -1.109  0.00  0.00    +0.047 C 
ATOM     16  C   UNL     1      -2.652   1.161  -1.056  0.00  0.00    -0.014 A 
ATOM     17  C   UNL     1      -2.588   0.412  -2.217  0.00  0.00    +0.009 A 
ATOM     18  C   UNL     1      -2.154  -0.900  -2.180  0.00  0.00    +0.039 A 
ATOM     19  C   UNL     1      -1.780  -1.474  -0.980  0.00  0.00    +0.138 A 
ATOM     20  C   UNL     1      -1.841  -0.724   0.199  0.00  0.00    +0.107 A 
ATOM     21  C   UNL     1      -2.277   0.605   0.151  0.00  0.00    +0.141 A 
ATOM     22  F   UNL     1      -2.334   1.340   1.284  0.00  0.00    -0.204 F 
ATOM     23  F   UNL     1      -1.356  -2.757  -0.946  0.00  0.00    -0.205 F 
ENDBRANCH   1  20
BRANCH   5  24
ATOM     24  C   UNL     1      -4.000  -4.569   1.286  0.00  0.00    +0.218 C 
ATOM     25  O   UNL     1      -3.272  -4.324   0.348  0.00  0.00    -0.275 OA
ATOM     26  N   UNL     1      -4.718  -5.709   1.303  0.00  0.00    -0.313 N 
ATOM     27  H   UNL     1      -5.301  -5.905   2.053  0.00  0.00    +0.149 HD
BRANCH  26  28
ATOM     28  C   UNL     1      -4.619  -6.653   0.187  0.00  0.00    +0.127 C 
BRANCH  28  29
ATOM     29  C   UNL     1      -5.529  -7.854   0.453  0.00  0.00    +0.104 C 
BRANCH  29  30
ATOM     30  C   UNL     1      -5.335  -8.882  -0.633  0.00  0.00    -0.029 A 
ATOM     31  C   UNL     1      -6.432  -9.427  -1.273  0.00  0.00    +0.005 A 
ATOM     32  C   UNL     1      -6.255 -10.369  -2.269  0.00  0.00    +0.000 A 
ATOM     33  C   UNL     1      -4.979 -10.765  -2.625  0.00  0.00    +0.000 A 
ATOM     34  C   UNL     1      -3.882 -10.219  -1.986  0.00  0.00    +0.000 A 
ATOM     35  C   UNL     1      -4.059  -9.274  -0.993  0.00  0.00    +0.005 A 
ENDBRANCH  29  30
BRANCH  29  36
ATOM     36  N   UNL     1      -5.190  -8.447   1.753  0.00  0.00    -0.290 NA
ATOM     37  C   UNL     1      -3.813  -8.963   1.754  0.00  0.00    +0.113 C 
ATOM     38  C   UNL     1      -3.482  -9.516   3.143  0.00  0.00    +0.175 C 
ATOM     39  O   UNL     1      -4.438 -10.522   3.490  0.00  0.00    -0.377 OA
ATOM     40  C   UNL     1      -5.789 -10.054   3.499  0.00  0.00    +0.175 C 
ATOM     41  C   UNL     1      -6.143  -9.506   2.114  0.00  0.00    +0.113 C 
ENDBRANCH  29  36
ENDBRANCH  28  29
ENDBRANCH  26  28
ENDBRANCH   5  24
TORSDOF 6
