REMARK  Name = ZINC63254427
REMARK  10 active torsions:
REMARK  status: ('A' for Active; 'I' for Inactive)
REMARK    1  A    between atoms: C_1  and  N_2
REMARK    2  A    between atoms: N_2  and  C_3
REMARK    3  A    between atoms: N_2  and  C_4
REMARK    4  A    between atoms: C_7  and  C_10
REMARK    5  A    between atoms: C_11  and  C_12
REMARK    6  A    between atoms: C_11  and  N_26
REMARK    7  A    between atoms: N_14  and  C_15
REMARK    8  A    between atoms: C_15  and  C_16
REMARK    9  A    between atoms: C_16  and  C_17
REMARK   10  A    between atoms: C_27  and  C_29
REMARK                            x       y       z     vdW  Elec       q    Type
REMARK                         _______ _______ _______ _____ _____    ______ ____
ROOT
ATOM      1  C   UNL     1      -0.051  -2.825  -4.887  0.00  0.00    +0.036 C 
ATOM      2  C   UNL     1      -0.122  -2.065  -6.006  0.00  0.00    +0.097 C 
ENDROOT
BRANCH   1   6
ATOM      3  C   UNL     1      -0.401  -1.017  -1.067  0.00  0.00    +0.029 A 
ATOM      4  C   UNL     1       0.248  -2.241  -1.198  0.00  0.00    +0.023 A 
ATOM      5  C   UNL     1       0.364  -2.832  -2.436  0.00  0.00    +0.010 A 
ATOM      6  C   UNL     1      -0.172  -2.199  -3.564  0.00  0.00    -0.023 A 
ATOM      7  C   UNL     1      -0.824  -0.968  -3.427  0.00  0.00    +0.010 A 
ATOM      8  C   UNL     1      -0.940  -0.387  -2.185  0.00  0.00    +0.023 A 
BRANCH   3  10
ATOM      9  C   UNL     1      -1.204   0.863   0.329  0.00  0.00    +0.129 C 
ATOM     10  N   UNL     1      -0.516  -0.423   0.188  0.00  0.00    -0.336 N 
ATOM     11  C   UNL     1       0.050  -1.085   1.366  0.00  0.00    +0.129 C 
ENDBRANCH   3  10
ENDBRANCH   1   6
BRANCH   2  12
ATOM     12  C   UNL     1      -0.164  -2.704  -7.327  0.00  0.00    +0.258 C 
ATOM     13  O   UNL     1      -0.247  -3.915  -7.415  0.00  0.00    -0.269 OA
ATOM     14  N   UNL     1      -0.111  -1.949  -8.442  0.00  0.00    -0.310 N 
ATOM     15  H   UNL     1       0.029  -0.992  -8.374  0.00  0.00    +0.149 HD
BRANCH  14  16
ATOM     16  C   UNL     1      -0.265  -2.575  -9.758  0.00  0.00    +0.109 C 
BRANCH  16  17
ATOM     17  C   UNL     1      -0.165  -1.505 -10.847  0.00  0.00    +0.052 C 
BRANCH  17  18
ATOM     18  C   UNL     1      -0.323  -2.149 -12.200  0.00  0.00    -0.040 C 
ATOM     19  C   UNL     1      -1.462  -2.255 -12.922  0.00  0.00    -0.001 A 
ATOM     20  C   UNL     1      -2.841  -1.821 -12.672  0.00  0.00    +0.010 A 
ATOM     21  C   UNL     1      -3.788  -2.076 -13.604  0.00  0.00    +0.001 A 
ATOM     22  C   UNL     1      -3.486  -2.744 -14.798  0.00  0.00    +0.002 A 
ATOM     23  C   UNL     1      -2.242  -3.174 -15.099  0.00  0.00    +0.026 A 
ATOM     24  C   UNL     1      -1.168  -2.958 -14.191  0.00  0.00    +0.043 A 
ATOM     25  N   UNL     1       0.103  -3.274 -14.252  0.00  0.00    -0.380 N 
ATOM     26  C   UNL     1       0.761  -2.801 -13.029  0.00  0.00    +0.144 C 
ATOM     27  H   UNL     1       0.536  -3.739 -14.985  0.00  0.00    +0.160 HD
ENDBRANCH  17  18
ENDBRANCH  16  17
ENDBRANCH  14  16
ENDBRANCH   2  12
BRANCH   2  28
ATOM     28  N   UNL     1      -0.155  -0.670  -5.902  0.00  0.00    -0.277 N 
ATOM     29  C   UNL     1      -1.158   0.025  -6.473  0.00  0.00    +0.248 C 
ATOM     30  O   UNL     1      -2.080  -0.564  -7.005  0.00  0.00    -0.270 OA
ATOM     31  H   UNL     1       0.545  -0.203  -5.419  0.00  0.00    +0.155 HD
BRANCH  29  32
ATOM     32  C   UNL     1      -1.139   1.503  -6.455  0.00  0.00    +0.037 A 
ATOM     33  C   UNL     1      -0.079   2.182  -5.851  0.00  0.00    +0.013 A 
ATOM     34  C   UNL     1      -0.067   3.562  -5.837  0.00  0.00    +0.001 A 
ATOM     35  C   UNL     1      -1.101   4.272  -6.420  0.00  0.00    +0.000 A 
ATOM     36  C   UNL     1      -2.154   3.605  -7.020  0.00  0.00    +0.001 A 
ATOM     37  C   UNL     1      -2.176   2.226  -7.046  0.00  0.00    +0.013 A 
ENDBRANCH  29  32
ENDBRANCH   2  28
TORSDOF 8
