REMARK  Name = ZINC39369576
REMARK  8 active torsions:
REMARK  status: ('A' for Active; 'I' for Inactive)
REMARK    1  A    between atoms: C_1  and  C_2
REMARK    2  A    between atoms: C_7  and  C_12
REMARK    3  A    between atoms: C_12  and  C_32
REMARK    4  A    between atoms: C_13  and  C_14
REMARK    5  A    between atoms: C_17  and  C_19
REMARK    6  A    between atoms: C_22  and  S_25
REMARK    7  A    between atoms: S_25  and  N_28
REMARK    8  A    between atoms: C_29  and  C_31
REMARK                            x       y       z     vdW  Elec       q    Type
REMARK                         _______ _______ _______ _____ _____    ______ ____
ROOT
ATOM      1  C   UNL     1      -0.056  -6.766   2.968  0.00  0.00    +0.130 A 
ATOM      2  C   UNL     1      -0.304  -7.855   3.781  0.00  0.00    +0.050 A 
ATOM      3  C   UNL     1      -1.689  -8.046   3.788  0.00  0.00    +0.050 A 
ATOM      4  C   UNL     1      -2.232  -7.080   2.990  0.00  0.00    +0.136 A 
ATOM      5  O   UNL     1      -1.239  -6.311   2.506  0.00  0.00    -0.455 OA
ENDROOT
BRANCH   4   6
ATOM      6  C   UNL     1      -3.670  -6.904   2.710  0.00  0.00    +0.017 A 
ATOM      7  C   UNL     1      -4.608  -7.765   3.285  0.00  0.00    +0.013 A 
ATOM      8  C   UNL     1      -5.950  -7.595   3.019  0.00  0.00    +0.030 A 
ATOM      9  C   UNL     1      -6.369  -6.574   2.184  0.00  0.00    +0.113 A 
ATOM     10  C   UNL     1      -5.446  -5.717   1.610  0.00  0.00    +0.030 A 
ATOM     11  C   UNL     1      -4.101  -5.872   1.873  0.00  0.00    +0.013 A 
BRANCH   9  12
ATOM     12  S   UNL     1      -8.086  -6.364   1.849  0.00  0.00    +0.102 S 
ATOM     13  O   UNL     1      -8.177  -5.679   0.607  0.00  0.00    -0.146 OA
ATOM     14  O   UNL     1      -8.700  -7.627   2.068  0.00  0.00    -0.146 OA
BRANCH  12  15
ATOM     15  N   UNL     1      -8.689  -5.339   3.001  0.00  0.00    -0.091 NA
ATOM     16  C   UNL     1      -9.938  -5.014   2.987  0.00  0.00    +0.262 C 
ATOM     17  O   UNL     1     -10.753  -5.511   2.033  0.00  0.00    -0.270 OA
ATOM     18  C   UNL     1     -10.486  -4.081   4.035  0.00  0.00    +0.116 C 
ENDBRANCH  12  15
ENDBRANCH   9  12
ENDBRANCH   4   6
BRANCH   1  20
ATOM     19  C   UNL     1       1.313  -5.069   1.963  0.00  0.00    +0.075 C 
ATOM     20  C   UNL     1       1.216  -6.219   2.676  0.00  0.00    +0.064 C 
BRANCH  19  27
ATOM     21  C   UNL     1      -0.041   0.332  -2.262  0.00  0.00    +0.044 C 
ATOM     22  C   UNL     1      -0.150  -1.019  -1.603  0.00  0.00    -0.048 A 
ATOM     23  C   UNL     1      -0.623  -2.104  -2.364  0.00  0.00    +0.005 A 
ATOM     24  C   UNL     1      -0.753  -3.346  -1.855  0.00  0.00    +0.027 A 
ATOM     25  C   UNL     1      -0.392  -3.597  -0.453  0.00  0.00    +0.060 A 
ATOM     26  N   UNL     1      -0.413  -4.666   0.288  0.00  0.00    -0.359 N 
ATOM     27  C   UNL     1       0.070  -4.287   1.622  0.00  0.00    +0.216 C 
ATOM     28  N   UNL     1       0.377  -2.853   1.559  0.00  0.00    -0.359 N 
ATOM     29  C   UNL     1       0.109  -2.449   0.351  0.00  0.00    +0.061 A 
ATOM     30  C   UNL     1       0.213  -1.141  -0.311  0.00  0.00    +0.030 A 
ATOM     31  H   UNL     1      -0.697  -5.551   0.011  0.00  0.00    +0.162 HD
ATOM     32  H   UNL     1       0.718  -2.306   2.285  0.00  0.00    +0.162 HD
ENDBRANCH  19  27
BRANCH  19  33
ATOM     33  C   UNL     1       2.595  -4.598   1.534  0.00  0.00    +0.099 C 
ATOM     34  N   UNL     1       3.613  -4.224   1.194  0.00  0.00    -0.191 NA
ENDBRANCH  19  33
ENDBRANCH   1  20
TORSDOF 6
