REMARK  Name = ZINC39609974
REMARK  8 active torsions:
REMARK  status: ('A' for Active; 'I' for Inactive)
REMARK    1  A    between atoms: C_1  and  O_2
REMARK    2  A    between atoms: O_2  and  C_3
REMARK    3  A    between atoms: C_6  and  C_9
REMARK    4  A    between atoms: C_9  and  N_10
REMARK    5  A    between atoms: C_11  and  C_13
REMARK    6  A    between atoms: C_24  and  C_26
REMARK    7  A    between atoms: C_28  and  O_33
REMARK    8  A    between atoms: O_33  and  C_34
REMARK                            x       y       z     vdW  Elec       q    Type
REMARK                         _______ _______ _______ _____ _____    ______ ____
ROOT
ATOM      1  C   UNL     1       0.612  -4.159   7.738  0.00  0.00    +0.100 C 
ATOM      2  C   UNL     1       0.306  -2.718   8.206  0.00  0.00    +0.121 C 
ATOM      3  N   UNL     1       0.303  -2.798   9.686  0.00  0.00    -0.296 N 
ATOM      4  C   UNL     1       1.420  -3.719  10.007  0.00  0.00    +0.115 C 
ATOM      5  C   UNL     1       1.344  -4.812   8.922  0.00  0.00    -0.004 C 
ATOM      6  C   UNL     1       2.748  -5.239   8.505  0.00  0.00    -0.010 C 
ATOM      7  C   UNL     1       3.434  -5.939   9.682  0.00  0.00    -0.082 C 
ATOM      8  N   UNL     1       2.644  -7.108  10.087  0.00  0.00    +0.379 N 
ATOM      9  C   UNL     1       1.328  -6.679  10.574  0.00  0.00    -0.082 C 
ATOM     10  C   UNL     1       0.552  -6.011   9.435  0.00  0.00    -0.010 C 
ATOM     11  C   UNL     1      -0.527  -2.175  10.545  0.00  0.00    +0.248 C 
ATOM     12  O   UNL     1      -0.341  -2.265  11.743  0.00  0.00    -0.270 OA
ATOM     13  H   UNL     1       2.525  -7.722   9.295  0.00  0.00    -0.086 HD
ATOM     14  H   UNL     1       3.129  -7.602  10.822  0.00  0.00    -0.086 HD
ENDROOT
BRANCH  11  15
ATOM     15  C   UNL     1      -1.663  -1.381  10.031  0.00  0.00    +0.054 A 
ATOM     16  C   UNL     1      -1.528  -0.647   8.851  0.00  0.00    +0.059 A 
ATOM     17  C   UNL     1      -2.596   0.093   8.376  0.00  0.00    +0.121 A 
ATOM     18  C   UNL     1      -3.798   0.106   9.071  0.00  0.00    +0.047 A 
ATOM     19  C   UNL     1      -3.934  -0.619  10.240  0.00  0.00    +0.019 A 
ATOM     20  C   UNL     1      -2.877  -1.366  10.721  0.00  0.00    +0.030 A 
ATOM     21 BR   UNL     1      -3.070  -2.362  12.317  0.00  0.00    -0.050 Br
BRANCH  17  22
ATOM     22  O   UNL     1      -2.468   0.809   7.228  0.00  0.00    -0.495 OA
ATOM     23  C   UNL     1      -3.611   1.550   6.795  0.00  0.00    +0.277 C 
ENDBRANCH  17  22
ENDBRANCH  11  15
BRANCH   1  25
ATOM     24  N   UNL     1       1.432  -5.137   5.619  0.00  0.00    -0.311 N 
ATOM     25  C   UNL     1       1.499  -4.137   6.520  0.00  0.00    +0.218 C 
ATOM     26  O   UNL     1       2.274  -3.220   6.351  0.00  0.00    -0.275 OA
ATOM     27  H   UNL     1       0.812  -5.871   5.755  0.00  0.00    +0.149 HD
BRANCH  24  28
ATOM     28  C   UNL     1       2.295  -5.117   4.436  0.00  0.00    +0.139 C 
BRANCH  28  32
ATOM     29  C   UNL     1       1.531  -8.582   2.055  0.00  0.00    +0.120 A 
ATOM     30  C   UNL     1       0.810  -7.417   1.837  0.00  0.00    +0.046 A 
ATOM     31  C   UNL     1       1.059  -6.298   2.608  0.00  0.00    +0.009 A 
ATOM     32  C   UNL     1       2.025  -6.339   3.596  0.00  0.00    -0.030 A 
ATOM     33  C   UNL     1       2.745  -7.499   3.815  0.00  0.00    +0.009 A 
ATOM     34  C   UNL     1       2.496  -8.622   3.051  0.00  0.00    +0.046 A 
BRANCH  29  36
ATOM     35  C   UNL     1       0.281  -9.570   0.290  0.00  0.00    +0.277 C 
ATOM     36  O   UNL     1       1.288  -9.684   1.298  0.00  0.00    -0.495 OA
ENDBRANCH  29  36
ENDBRANCH  28  32
ENDBRANCH  24  28
ENDBRANCH   1  25
TORSDOF 6
