REMARK  Name = ZINC22480803
REMARK  7 active torsions:
REMARK  status: ('A' for Active; 'I' for Inactive)
REMARK    1  A    between atoms: C_4  and  C_7
REMARK    2  A    between atoms: C_17  and  C_20
REMARK    3  A    between atoms: N_22  and  C_23
REMARK    4  A    between atoms: C_23  and  C_24
REMARK    5  A    between atoms: C_24  and  C_25
REMARK    6  A    between atoms: C_28  and  S_31
REMARK    7  A    between atoms: S_31  and  N_34
REMARK                            x       y       z     vdW  Elec       q    Type
REMARK                         _______ _______ _______ _____ _____    ______ ____
ROOT
ATOM      1  C   UNL     1       1.169   3.570   0.010  0.00  0.00    +0.093 A 
ATOM      2  C   UNL     1       2.373   4.282   0.008  0.00  0.00    +0.033 A 
ATOM      3  C   UNL     1       2.308   5.664   0.010  0.00  0.00    +0.047 A 
ATOM      4  C   UNL     1       1.047   6.261   0.026  0.00  0.00    +0.144 A 
ATOM      5  N   UNL     1      -0.042   5.506   0.032  0.00  0.00    -0.134 NA
ATOM      6  N   UNL     1       0.015   4.224   0.025  0.00  0.00    -0.147 NA
ATOM      7  N   UNL     1       0.933   7.647   0.035  0.00  0.00    -0.313 N 
ATOM      8  C   UNL     1       1.669   8.228   1.164  0.00  0.00    +0.106 C 
ATOM      9  C   UNL     1       1.643   9.755   1.060  0.00  0.00    +0.020 C 
ATOM     10  C   UNL     1       0.191  10.238   1.071  0.00  0.00    +0.016 C 
ATOM     11  C   UNL     1      -0.566   9.580  -0.087  0.00  0.00    +0.092 C 
ATOM     12  C   UNL     1      -0.476   8.059   0.051  0.00  0.00    +0.119 C 
ENDROOT
BRANCH   1  16
ATOM     13  C   UNL     1       1.208  -0.682  -0.013  0.00  0.00    +0.000 A 
ATOM     14  C   UNL     1       0.002  -0.004   0.002  0.00  0.00    +0.001 A 
ATOM     15  C   UNL     1      -0.017   1.376   0.010  0.00  0.00    +0.010 A 
ATOM     16  C   UNL     1       1.182   2.086   0.002  0.00  0.00    +0.002 A 
ATOM     17  C   UNL     1       2.394   1.398  -0.012  0.00  0.00    +0.010 A 
ATOM     18  C   UNL     1       2.401   0.018  -0.020  0.00  0.00    +0.001 A 
ENDBRANCH   1  16
BRANCH  11  19
ATOM     19  C   UNL     1      -2.012  10.005  -0.048  0.00  0.00    +0.218 C 
ATOM     20  O   UNL     1      -2.399  10.761   0.817  0.00  0.00    -0.275 OA
ATOM     21  N   UNL     1      -2.874   9.543  -0.975  0.00  0.00    -0.315 N 
ATOM     22  H   UNL     1      -2.523   8.857  -1.760  0.00  0.00    +0.149 HD
BRANCH  21  23
ATOM     23  C   UNL     1      -4.279   9.956  -0.938  0.00  0.00    +0.109 C 
BRANCH  23  24
ATOM     24  C   UNL     1      -5.036   9.294  -2.092  0.00  0.00    +0.054 C 
BRANCH  24  25
ATOM     25  C   UNL     1      -6.481   9.719  -2.054  0.00  0.00    -0.046 A 
ATOM     26  C   UNL     1      -7.401   8.976  -1.338  0.00  0.00    +0.005 A 
ATOM     27  C   UNL     1      -8.726   9.367  -1.299  0.00  0.00    +0.029 A 
ATOM     28  C   UNL     1      -9.133  10.497  -1.984  0.00  0.00    +0.105 A 
ATOM     29  C   UNL     1      -8.214  11.237  -2.704  0.00  0.00    +0.029 A 
ATOM     30  C   UNL     1      -6.888  10.848  -2.739  0.00  0.00    +0.005 A 
BRANCH  28  31
ATOM     31  S   UNL     1     -10.823  10.993  -1.940  0.00  0.00    +0.056 S 
ATOM     32  O   UNL     1     -11.377  10.441  -0.753  0.00  0.00    -0.153 OA
ATOM     33  O   UNL     1     -10.845  12.387  -2.214  0.00  0.00    -0.153 OA
BRANCH  31  34
ATOM     34  N   UNL     1     -11.586  10.249  -3.207  0.00  0.00    -0.204 NA
ATOM     35  H   UNL     1     -12.648  10.534  -3.215  0.00  0.00    +0.144 HD
ATOM     36  H   UNL     1     -11.500   9.158  -3.098  0.00  0.00    +0.144 HD
ENDBRANCH  31  34
ENDBRANCH  28  31
ENDBRANCH  24  25
ENDBRANCH  23  24
ENDBRANCH  21  23
ENDBRANCH  11  19
TORSDOF 7
