REMARK  Name = ZINC60391176
REMARK  9 active torsions:
REMARK  status: ('A' for Active; 'I' for Inactive)
REMARK    1  A    between atoms: C_1  and  C_2
REMARK    2  A    between atoms: C_2  and  C_3
REMARK    3  A    between atoms: C_3  and  C_32
REMARK    4  A    between atoms: N_6  and  C_10
REMARK    5  A    between atoms: C_10  and  C_11
REMARK    6  A    between atoms: N_13  and  C_14
REMARK    7  A    between atoms: C_14  and  C_15
REMARK    8  A    between atoms: C_24  and  C_31
REMARK    9  A    between atoms: C_26  and  C_30
REMARK                            x       y       z     vdW  Elec       q    Type
REMARK                         _______ _______ _______ _____ _____    ______ ____
ROOT
ATOM      1  C   UNL     1       2.989  -4.285  -3.057  0.00  0.00    +0.239 C 
ATOM      2  O   UNL     1       2.689  -3.771  -4.113  0.00  0.00    -0.273 OA
ATOM      3  N   UNL     1       3.676  -5.444  -3.043  0.00  0.00    -0.245 N 
ATOM      4  C   UNL     1       4.127  -5.997  -4.231  0.00  0.00    +0.168 A 
ATOM      5  N   UNL     1       3.990  -5.542  -5.455  0.00  0.00    -0.224 NA
ATOM      6  C   UNL     1       4.486  -6.191  -6.530  0.00  0.00    +0.083 A 
ATOM      7  C   UNL     1       4.407  -5.813  -7.891  0.00  0.00    -0.024 A 
ATOM      8  C   UNL     1       4.969  -6.593  -8.867  0.00  0.00    +0.009 A 
ATOM      9  C   UNL     1       5.631  -7.773  -8.562  0.00  0.00    -0.049 A 
ATOM     10  C   UNL     1       5.727  -8.173  -7.241  0.00  0.00    +0.020 A 
ATOM     11  C   UNL     1       5.167  -7.399  -6.256  0.00  0.00    +0.041 A 
ATOM     12  S   UNL     1       5.051  -7.505  -4.487  0.00  0.00    -0.052 S 
ATOM     13  C   UNL     1       6.239  -8.611  -9.657  0.00  0.00    +0.044 C 
ATOM     14  C   UNL     1       3.698  -4.539  -8.271  0.00  0.00    +0.046 C 
ENDROOT
BRANCH   1  15
ATOM     15  C   UNL     1       2.593  -3.629  -1.760  0.00  0.00    +0.214 C 
BRANCH  15  19
ATOM     16  C   UNL     1       0.241  -0.843  -2.470  0.00  0.00    +0.110 C 
ATOM     17  C   UNL     1       0.534  -2.305  -2.198  0.00  0.00    +0.247 C 
ATOM     18  O   UNL     1      -0.267  -3.214  -2.134  0.00  0.00    -0.273 OA
ATOM     19  N   UNL     1       1.870  -2.386  -2.042  0.00  0.00    -0.215 N 
ATOM     20  C   UNL     1       2.456  -1.190  -2.176  0.00  0.00    +0.310 C 
ATOM     21  O   UNL     1       3.654  -1.010  -2.079  0.00  0.00    -0.252 OA
ATOM     22  N   UNL     1       1.570  -0.210  -2.432  0.00  0.00    -0.285 N 
ATOM     23  C   UNL     1      -0.401  -0.667  -3.848  0.00  0.00    +0.041 C 
ATOM     24  H   UNL     1       1.769   0.730  -2.566  0.00  0.00    +0.151 HD
BRANCH  16  26
ATOM     25  C   UNL     1      -0.853   1.235  -1.618  0.00  0.00    +0.006 C 
ATOM     26  C   UNL     1      -0.663  -0.264  -1.379  0.00  0.00    +0.031 C 
ENDBRANCH  16  26
ENDBRANCH  15  19
ENDBRANCH   1  15
BRANCH   3  27
ATOM     27  C   UNL     1       3.947  -6.120  -1.772  0.00  0.00    +0.150 C 
BRANCH  27  28
ATOM     28  C   UNL     1       5.292  -5.687  -1.248  0.00  0.00    -0.030 A 
ATOM     29  C   UNL     1       6.442  -6.304  -1.702  0.00  0.00    +0.005 A 
ATOM     30  C   UNL     1       7.676  -5.906  -1.222  0.00  0.00    +0.000 A 
ATOM     31  C   UNL     1       7.759  -4.890  -0.289  0.00  0.00    +0.000 A 
ATOM     32  C   UNL     1       6.609  -4.272   0.165  0.00  0.00    +0.000 A 
ATOM     33  C   UNL     1       5.375  -4.667  -0.319  0.00  0.00    +0.005 A 
ENDBRANCH  27  28
ENDBRANCH   3  27
TORSDOF 5
