REMARK  Name = ZINC00664694
REMARK  5 active torsions:
REMARK  status: ('A' for Active; 'I' for Inactive)
REMARK    1  A    between atoms: C_4  and  N_7
REMARK    2  A    between atoms: N_7  and  C_8
REMARK    3  A    between atoms: C_15  and  N_28
REMARK    4  A    between atoms: C_16  and  C_26
REMARK    5  A    between atoms: C_17  and  C_19
REMARK                            x       y       z     vdW  Elec       q    Type
REMARK                         _______ _______ _______ _____ _____    ______ ____
ROOT
ATOM      1  C   UNL     1       1.061   1.167  -0.409  0.00  0.00    +0.035 A 
ATOM      2  C   UNL     1       0.566   2.315  -1.016  0.00  0.00    +0.024 A 
ATOM      3  C   UNL     1      -0.757   2.374  -1.405  0.00  0.00    +0.010 A 
ATOM      4  C   UNL     1      -1.596   1.293  -1.194  0.00  0.00    +0.008 A 
ATOM      5  C   UNL     1      -1.107   0.142  -0.594  0.00  0.00    +0.136 A 
ATOM      6  C   UNL     1       0.222   0.082  -0.197  0.00  0.00    +0.069 A 
ATOM      7  O   UNL     1      -1.915  -0.923  -0.372  0.00  0.00    -0.441 OA
ATOM      8  C   UNL     1      -3.250  -0.767  -0.377  0.00  0.00    +0.199 C 
ATOM      9  C   UNL     1      -3.844   0.304  -0.955  0.00  0.00    +0.098 C 
ATOM     10  C   UNL     1      -3.035   1.378  -1.626  0.00  0.00    +0.101 C 
ENDROOT
BRANCH  10  11
ATOM     11  C   UNL     1      -3.119   1.201  -3.120  0.00  0.00    +0.000 A 
ATOM     12  C   UNL     1      -2.661   0.035  -3.705  0.00  0.00    +0.007 A 
ATOM     13  C   UNL     1      -2.739  -0.128  -5.076  0.00  0.00    +0.000 A 
ATOM     14  C   UNL     1      -3.274   0.875  -5.863  0.00  0.00    +0.003 A 
ATOM     15  C   UNL     1      -3.732   2.041  -5.281  0.00  0.00    +0.038 A 
ATOM     16  C   UNL     1      -3.660   2.204  -3.907  0.00  0.00    +0.127 A 
ATOM     17  F   UNL     1      -4.113   3.341  -3.336  0.00  0.00    -0.205 F 
ENDBRANCH  10  11
BRANCH   8  18
ATOM     18  N   UNL     1      -4.034  -1.720   0.223  0.00  0.00    -0.328 N 
ATOM     19  H   UNL     1      -4.999  -1.622   0.229  0.00  0.00    +0.145 HD
ATOM     20  H   UNL     1      -3.623  -2.493   0.641  0.00  0.00    +0.145 HD
ENDBRANCH   8  18
BRANCH   1  21
ATOM     21  N   UNL     1       2.399   1.105  -0.014  0.00  0.00    -0.314 N 
ATOM     22  H   UNL     1       3.071   1.612  -0.496  0.00  0.00    +0.152 HD
BRANCH  21  26
ATOM     23  C   UNL     1       3.506  -1.256   3.233  0.00  0.00    +0.000 A 
ATOM     24  C   UNL     1       4.389  -1.064   2.187  0.00  0.00    +0.002 A 
ATOM     25  C   UNL     1       4.026  -0.282   1.108  0.00  0.00    +0.023 A 
ATOM     26  C   UNL     1       2.770   0.312   1.075  0.00  0.00    +0.031 A 
ATOM     27  C   UNL     1       1.887   0.121   2.130  0.00  0.00    +0.023 A 
ATOM     28  C   UNL     1       2.255  -0.666   3.203  0.00  0.00    +0.002 A 
ENDBRANCH  21  26
ENDBRANCH   1  21
BRANCH   9  29
ATOM     29  C   UNL     1      -5.271   0.414  -0.926  0.00  0.00    +0.101 C 
ATOM     30  N   UNL     1      -6.404   0.502  -0.903  0.00  0.00    -0.191 NA
ENDBRANCH   9  29
TORSDOF 5
