REMARK  Name = ZINC16527621
REMARK  5 active torsions:
REMARK  status: ('A' for Active; 'I' for Inactive)
REMARK    1  A    between atoms: C_1  and  C_2
REMARK    2  A    between atoms: C_5  and  C_8
REMARK    3  A    between atoms: C_8  and  C_9
REMARK    4  A    between atoms: C_18  and  C_20
REMARK    5  A    between atoms: C_25  and  N_28
REMARK                            x       y       z     vdW  Elec       q    Type
REMARK                         _______ _______ _______ _____ _____    ______ ____
ROOT
ATOM      1  C   UNL     1       0.926  -2.310  -0.135  0.00  0.00    +0.236 C 
ATOM      2  O   UNL     1       1.545  -1.972   0.852  0.00  0.00    -0.274 OA
ATOM      3  N   UNL     1       1.585  -2.714  -1.238  0.00  0.00    -0.300 N 
ATOM      4  C   UNL     1       0.854  -3.034  -2.472  0.00  0.00    +0.110 C 
ATOM      5  C   UNL     1       1.247  -4.436  -2.934  0.00  0.00    +0.044 C 
ATOM      6  C   UNL     1       2.769  -4.520  -3.065  0.00  0.00    +0.095 C 
ATOM      7  C   UNL     1       3.416  -4.260  -1.703  0.00  0.00    +0.044 C 
ATOM      8  C   UNL     1       3.048  -2.850  -1.228  0.00  0.00    +0.110 C 
ENDROOT
BRANCH   6   9
ATOM      9  N   UNL     1       3.146  -5.855  -3.537  0.00  0.00    -0.289 N 
ATOM     10  C   UNL     1       3.836  -6.139  -4.713  0.00  0.00    +0.070 A 
ATOM     11  C   UNL     1       4.348  -5.349  -5.730  0.00  0.00    +0.028 A 
ATOM     12  C   UNL     1       5.001  -5.937  -6.796  0.00  0.00    +0.002 A 
ATOM     13  C   UNL     1       5.145  -7.313  -6.853  0.00  0.00    +0.002 A 
ATOM     14  C   UNL     1       4.638  -8.108  -5.844  0.00  0.00    +0.028 A 
ATOM     15  C   UNL     1       3.981  -7.527  -4.770  0.00  0.00    +0.067 A 
ATOM     16  N   UNL     1       3.375  -8.042  -3.627  0.00  0.00    -0.306 N 
ATOM     17  H   UNL     1       3.317  -8.981  -3.390  0.00  0.00    +0.170 HD
ATOM     18  C   UNL     1       2.889  -7.015  -2.905  0.00  0.00    +0.328 A 
ATOM     19  O   UNL     1       2.302  -7.120  -1.844  0.00  0.00    -0.247 OA
ENDBRANCH   6   9
BRANCH   1  29
ATOM     20  C   UNL     1       1.544   0.897   2.083  0.00  0.00    +0.145 A 
ATOM     21  N   UNL     1       0.520   0.079   2.013  0.00  0.00    -0.208 NA
ATOM     22  C   UNL     1       0.011  -0.203   0.822  0.00  0.00    +0.181 A 
ATOM     23  S   UNL     1       1.034   0.733  -0.221  0.00  0.00    +0.049 S 
ATOM     24  N   UNL     1       2.039   1.415   0.985  0.00  0.00    -0.192 NA
ATOM     25  N   UNL     1      -1.052  -1.026   0.497  0.00  0.00    -0.297 N 
ATOM     26  C   UNL     1      -1.844  -1.368   1.697  0.00  0.00    +0.108 C 
ATOM     27  C   UNL     1      -2.348  -2.810   1.441  0.00  0.00    +0.021 C 
ATOM     28  C   UNL     1      -1.130  -3.445   0.719  0.00  0.00    +0.033 C 
ATOM     29  C   UNL     1      -0.581  -2.277  -0.127  0.00  0.00    +0.161 C 
BRANCH  20  30
ATOM     30  C   UNL     1       2.147   1.241   3.420  0.00  0.00    +0.112 C 
BRANCH  30  35
ATOM     31  C   UNL     1       6.327  -2.546   4.677  0.00  0.00    +0.044 C 
ATOM     32  C   UNL     1       5.237  -1.558   4.350  0.00  0.00    -0.050 A 
ATOM     33  C   UNL     1       5.539  -0.401   3.656  0.00  0.00    +0.003 A 
ATOM     34  C   UNL     1       4.539   0.505   3.355  0.00  0.00    +0.004 A 
ATOM     35  C   UNL     1       3.237   0.254   3.748  0.00  0.00    -0.040 A 
ATOM     36  C   UNL     1       2.937  -0.901   4.446  0.00  0.00    +0.004 A 
ATOM     37  C   UNL     1       3.936  -1.809   4.743  0.00  0.00    +0.003 A 
ENDBRANCH  30  35
ENDBRANCH  20  30
ENDBRANCH   1  29
TORSDOF 4
