REMARK  Name = ZINC20568216
REMARK  11 active torsions:
REMARK  status: ('A' for Active; 'I' for Inactive)
REMARK    1  A    between atoms: C_1  and  C_2
REMARK    2  A    between atoms: C_2  and  C_33
REMARK    3  A    between atoms: C_4  and  N_10
REMARK    4  A    between atoms: C_6  and  C_8
REMARK    5  A    between atoms: C_6  and  C_9
REMARK    6  A    between atoms: N_10  and  C_11
REMARK    7  A    between atoms: N_10  and  C_19
REMARK    8  A    between atoms: C_11  and  C_12
REMARK    9  A    between atoms: C_19  and  N_21
REMARK   10  A    between atoms: N_21  and  C_22
REMARK   11  A    between atoms: C_26  and  C_28
REMARK                            x       y       z     vdW  Elec       q    Type
REMARK                         _______ _______ _______ _____ _____    ______ ____
ROOT
ATOM      1  N   UNL     1      -0.342   1.864  -2.418  0.00  0.00    -0.305 N 
ENDROOT
BRANCH   1   5
ATOM      2  C   UNL     1      -1.522  -0.624   1.020  0.00  0.00    -0.010 C 
ATOM      3  C   UNL     1      -0.160   0.074   0.924  0.00  0.00    -0.072 C 
ATOM      4  C   UNL     1       0.152   0.384  -0.538  0.00  0.00    +0.009 C 
ATOM      5  C   UNL     1      -0.678   1.574  -1.019  0.00  0.00    +0.073 C 
ATOM      6  C   UNL     1      -0.331   2.788  -0.156  0.00  0.00    +0.009 C 
ATOM      7  C   UNL     1      -0.651   2.506   1.310  0.00  0.00    -0.072 C 
ATOM      8  N   UNL     1      -0.112   1.245   1.774  0.00  0.00    +0.386 N 
ATOM      9  C   UNL     1      -0.020   3.639   2.149  0.00  0.00    -0.010 C 
ATOM     10  C   UNL     1      -2.168   2.573   1.525  0.00  0.00    -0.010 C 
ATOM     11  C   UNL     1       0.904  -0.929   1.424  0.00  0.00    -0.010 C 
ATOM     12  H   UNL     1      -0.667   1.048   2.702  0.00  0.00    -0.084 HD
ATOM     13  H   UNL     1       0.935   1.480   2.015  0.00  0.00    -0.084 HD
ENDBRANCH   1   5
BRANCH   1  14
ATOM     14  C   UNL     1       0.897   2.287  -2.741  0.00  0.00    +0.138 C 
ATOM     15  S   UNL     1       1.251   2.753  -4.350  0.00  0.00    -0.018 S 
BRANCH  14  16
ATOM     16  N   UNL     1       1.857   2.343  -1.796  0.00  0.00    -0.297 N 
ATOM     17  H   UNL     1       1.654   1.966  -0.783  0.00  0.00    +0.154 HD
BRANCH  16  18
ATOM     18  C   UNL     1       3.112   2.880  -2.105  0.00  0.00    +0.033 A 
ATOM     19  C   UNL     1       3.752   2.519  -3.284  0.00  0.00    +0.025 A 
ATOM     20  C   UNL     1       4.987   3.055  -3.589  0.00  0.00    +0.022 A 
ATOM     21  C   UNL     1       5.593   3.942  -2.716  0.00  0.00    +0.053 A 
ATOM     22  C   UNL     1       4.960   4.298  -1.538  0.00  0.00    +0.075 A 
ATOM     23  C   UNL     1       3.721   3.770  -1.231  0.00  0.00    +0.037 A 
ATOM     24 CL   UNL     1       7.150   4.608  -3.099  0.00  0.00    -0.083 Cl
BRANCH  22  25
ATOM     25  C   UNL     1       5.622   5.265  -0.590  0.00  0.00    +0.419 C 
ATOM     26  F   UNL     1       4.796   5.469   0.520  0.00  0.00    -0.166 F 
ATOM     27  F   UNL     1       6.848   4.739  -0.169  0.00  0.00    -0.166 F 
ATOM     28  F   UNL     1       5.837   6.484  -1.242  0.00  0.00    -0.166 F 
ENDBRANCH  22  25
ENDBRANCH  16  18
ENDBRANCH  14  16
ENDBRANCH   1  14
BRANCH   1  29
ATOM     29  C   UNL     1      -1.353   1.693  -3.465  0.00  0.00    +0.145 C 
BRANCH  29  30
ATOM     30  C   UNL     1      -2.113   2.982  -3.644  0.00  0.00    +0.005 A 
ATOM     31  C   UNL     1      -1.867   3.783  -4.744  0.00  0.00    +0.008 A 
ATOM     32  C   UNL     1      -2.564   4.965  -4.908  0.00  0.00    +0.000 A 
ATOM     33  C   UNL     1      -3.509   5.348  -3.974  0.00  0.00    +0.003 A 
ATOM     34  C   UNL     1      -3.756   4.549  -2.874  0.00  0.00    +0.038 A 
ATOM     35  C   UNL     1      -3.062   3.362  -2.710  0.00  0.00    +0.128 A 
ATOM     36  F   UNL     1      -3.307   2.578  -1.638  0.00  0.00    -0.205 F 
ENDBRANCH  29  30
ENDBRANCH   1  29
TORSDOF 7
