REMARK  Name = ZINC09108660
REMARK  10 active torsions:
REMARK  status: ('A' for Active; 'I' for Inactive)
REMARK    1  A    between atoms: C_1  and  C_2
REMARK    2  A    between atoms: C_5  and  C_8
REMARK    3  A    between atoms: C_11  and  S_19
REMARK    4  A    between atoms: N_12  and  C_13
REMARK    5  A    between atoms: S_19  and  C_20
REMARK    6  A    between atoms: C_20  and  C_21
REMARK    7  A    between atoms: N_23  and  N_24
REMARK    8  A    between atoms: C_25  and  C_26
REMARK    9  A    between atoms: C_25  and  C_27
REMARK   10  A    between atoms: C_31  and  N_33
REMARK                            x       y       z     vdW  Elec       q    Type
REMARK                         _______ _______ _______ _____ _____    ______ ____
ROOT
ATOM      1  C   UNL     1      -4.153  14.009   0.115  0.00  0.00    +0.169 A 
ATOM      2  N   UNL     1      -2.872  13.726   0.101  0.00  0.00    -0.128 NA
ATOM      3  N   UNL     1      -2.702  12.452   0.092  0.00  0.00    -0.122 NA
ATOM      4  C   UNL     1      -3.866  11.841   0.100  0.00  0.00    +0.197 A 
ATOM      5  N   UNL     1      -4.832  12.809   0.109  0.00  0.00    -0.270 N 
ENDROOT
BRANCH   1  10
ATOM      6  C   UNL     1      -6.496  19.265   0.168  0.00  0.00    +0.044 C 
ATOM      7  C   UNL     1      -5.882  17.888   0.154  0.00  0.00    -0.050 A 
ATOM      8  C   UNL     1      -4.546  17.733  -0.171  0.00  0.00    +0.004 A 
ATOM      9  C   UNL     1      -3.978  16.476  -0.185  0.00  0.00    +0.012 A 
ATOM     10  C   UNL     1      -4.755  15.359   0.129  0.00  0.00    +0.020 A 
ATOM     11  C   UNL     1      -6.104  15.522   0.450  0.00  0.00    +0.012 A 
ATOM     12  C   UNL     1      -6.658  16.785   0.465  0.00  0.00    +0.004 A 
ENDBRANCH   1  10
BRANCH   5  13
ATOM     13  C   UNL     1      -6.221  12.622   0.113  0.00  0.00    +0.051 A 
ATOM     14  C   UNL     1      -6.983  13.041  -0.968  0.00  0.00    +0.026 A 
ATOM     15  C   UNL     1      -8.351  12.850  -0.963  0.00  0.00    +0.002 A 
ATOM     16  C   UNL     1      -8.963  12.251   0.122  0.00  0.00    +0.000 A 
ATOM     17  C   UNL     1      -8.207  11.836   1.204  0.00  0.00    +0.002 A 
ATOM     18  C   UNL     1      -6.838  12.020   1.202  0.00  0.00    +0.026 A 
ENDBRANCH   5  13
BRANCH   4  19
ATOM     19  S   UNL     1      -4.133  10.099   0.093  0.00  0.00    -0.076 S 
BRANCH  19  20
ATOM     20  C   UNL     1      -2.418   9.519   0.074  0.00  0.00    +0.174 C 
BRANCH  20  21
ATOM     21  C   UNL     1      -2.398   8.012   0.066  0.00  0.00    +0.242 C 
ATOM     22  O   UNL     1      -3.440   7.391   0.072  0.00  0.00    -0.273 OA
ATOM     23  N   UNL     1      -1.221   7.354   0.052  0.00  0.00    -0.206 N 
ATOM     24  H   UNL     1      -0.388   7.850   0.047  0.00  0.00    +0.177 HD
BRANCH  23  25
ATOM     25  N   UNL     1      -1.202   5.953   0.044  0.00  0.00    -0.185 NA
ATOM     26  C   UNL     1      -0.070   5.320   0.030  0.00  0.00    +0.063 C 
ATOM     27  C   UNL     1       1.225   6.091   0.023  0.00  0.00    +0.068 C 
BRANCH  26  28
ATOM     28  C   UNL     1      -0.050   3.845   0.022  0.00  0.00    -0.000 A 
ATOM     29  C   UNL     1       1.167   3.160   0.007  0.00  0.00    +0.010 A 
ATOM     30  C   UNL     1       1.178   1.781   0.000  0.00  0.00    +0.003 A 
ATOM     31  C   UNL     1      -0.013   1.076   0.008  0.00  0.00    +0.033 A 
ATOM     32  C   UNL     1      -1.222   1.748   0.017  0.00  0.00    +0.127 A 
ATOM     33  C   UNL     1      -1.248   3.127   0.030  0.00  0.00    +0.042 A 
BRANCH  32  34
ATOM     34  N   UNL     1      -2.490   0.985   0.019  0.00  0.00    +0.056 N 
ATOM     35  O   UNL     1      -2.469  -0.233   0.013  0.00  0.00    -0.126 OA
ATOM     36  O   UNL     1      -3.556   1.575   0.028  0.00  0.00    -0.126 OA
ENDBRANCH  32  34
ENDBRANCH  26  28
ENDBRANCH  23  25
ENDBRANCH  20  21
ENDBRANCH  19  20
ENDBRANCH   4  19
TORSDOF 8
