REMARK  Name = ZINC13063960
REMARK  10 active torsions:
REMARK  status: ('A' for Active; 'I' for Inactive)
REMARK    1  A    between atoms: C_1  and  C_2
REMARK    2  A    between atoms: C_2  and  C_3
REMARK    3  A    between atoms: C_3  and  C_5
REMARK    4  A    between atoms: C_3  and  N_66
REMARK    5  A    between atoms: N_9  and  C_10
REMARK    6  A    between atoms: C_10  and  C_11
REMARK    7  A    between atoms: C_16  and  C_17
REMARK    8  A    between atoms: C_16  and  N_66
REMARK    9  A    between atoms: C_22  and  C_29
REMARK   10  A    between atoms: C_30  and  N_66
REMARK                            x       y       z     vdW  Elec       q    Type
REMARK                         _______ _______ _______ _____ _____    ______ ____
ROOT
ATOM      1  N   UNL     1       1.049   3.796   1.322  0.00  0.00    +0.391 N 
ATOM      2  H   UNL     1       1.103   3.499   2.303  0.00  0.00    -0.080 HD
ENDROOT
BRANCH   1   3
ATOM      3  C   UNL     1      -0.363   3.759   0.886  0.00  0.00    -0.067 C 
ATOM      4  C   UNL     1      -0.943   2.381   1.211  0.00  0.00    -0.015 C 
ATOM      5  C   UNL     1      -2.412   2.333   0.786  0.00  0.00    -0.002 C 
ATOM      6  C   UNL     1      -2.517   2.589  -0.719  0.00  0.00    -0.000 C 
ATOM      7  C   UNL     1      -1.937   3.967  -1.043  0.00  0.00    -0.002 C 
ATOM      8  C   UNL     1      -0.467   4.014  -0.619  0.00  0.00    -0.015 C 
ENDBRANCH   1   3
BRANCH   1   9
ATOM      9  C   UNL     1       1.857   2.874   0.496  0.00  0.00    +0.003 C 
BRANCH   9  10
ATOM     10  C   UNL     1       2.152   3.491  -0.847  0.00  0.00    +0.139 A 
ATOM     11  N   UNL     1       2.641   4.686  -1.069  0.00  0.00    -0.115 NA
ATOM     12  N   UNL     1       2.749   4.842  -2.343  0.00  0.00    -0.023 NA
ATOM     13  N   UNL     1       2.343   3.776  -2.940  0.00  0.00    -0.044 NA
ATOM     14  N   UNL     1       1.967   2.920  -2.052  0.00  0.00    -0.223 N 
BRANCH  14  15
ATOM     15  C   UNL     1       1.438   1.577  -2.306  0.00  0.00    +0.221 C 
BRANCH  15  16
ATOM     16  C   UNL     1       2.574   0.589  -2.346  0.00  0.00    +0.126 A 
ATOM     17  C   UNL     1       3.067  -0.086  -1.292  0.00  0.00    +0.046 A 
ATOM     18  C   UNL     1       4.116  -0.899  -1.779  0.00  0.00    +0.041 A 
ATOM     19  C   UNL     1       4.207  -0.666  -3.101  0.00  0.00    +0.195 A 
ATOM     20  O   UNL     1       3.271   0.236  -3.438  0.00  0.00    -0.466 OA
ENDBRANCH  15  16
ENDBRANCH  14  15
ENDBRANCH   9  10
BRANCH   9  22
ATOM     21  C   UNL     1       2.875   1.871   2.545  0.00  0.00    +0.002 C 
ATOM     22  C   UNL     1       3.171   2.586   1.225  0.00  0.00    -0.011 C 
ENDBRANCH   9  22
ENDBRANCH   1   9
BRANCH   1  23
ATOM     23  C   UNL     1       1.577   5.172   1.206  0.00  0.00    -0.036 C 
BRANCH  23  24
ATOM     24  C   UNL     1       1.015   6.002   2.332  0.00  0.00    +0.001 A 
ATOM     25  C   UNL     1       1.720   6.148   3.480  0.00  0.00    +0.017 A 
ATOM     26  C   UNL     1       1.149   6.965   4.553  0.00  0.00    -0.001 A 
ATOM     27  C   UNL     1       1.832   7.157   5.758  0.00  0.00    +0.010 A 
ATOM     28  C   UNL     1       1.269   7.920   6.742  0.00  0.00    +0.004 A 
ATOM     29  C   UNL     1       0.025   8.507   6.555  0.00  0.00    -0.048 A 
ATOM     30  C   UNL     1      -0.665   8.333   5.375  0.00  0.00    +0.029 A 
ATOM     31  C   UNL     1      -0.112   7.559   4.359  0.00  0.00    +0.049 A 
ATOM     32  N   UNL     1      -0.781   7.367   3.169  0.00  0.00    -0.322 N 
ATOM     33  H   UNL     1      -1.650   7.777   3.038  0.00  0.00    +0.169 HD
ATOM     34  C   UNL     1      -0.246   6.619   2.188  0.00  0.00    +0.251 A 
ATOM     35  O   UNL     1      -0.866   6.470   1.149  0.00  0.00    -0.268 OA
ATOM     36  C   UNL     1      -0.577   9.345   7.653  0.00  0.00    +0.044 C 
ENDBRANCH  23  24
ENDBRANCH   1  23
TORSDOF 8
