REMARK  Name = ZINC12729949
REMARK  9 active torsions:
REMARK  status: ('A' for Active; 'I' for Inactive)
REMARK    1  A    between atoms: C_1  and  C_2
REMARK    2  A    between atoms: C_2  and  C_4
REMARK    3  A    between atoms: C_9  and  N_10
REMARK    4  A    between atoms: C_11  and  C_13
REMARK    5  A    between atoms: C_13  and  S_14
REMARK    6  A    between atoms: S_14  and  C_15
REMARK    7  A    between atoms: C_18  and  C_26
REMARK    8  A    between atoms: N_19  and  C_20
REMARK    9  A    between atoms: C_26  and  C_27
REMARK                            x       y       z     vdW  Elec       q    Type
REMARK                         _______ _______ _______ _____ _____    ______ ____
ROOT
ATOM      1  S   UNL     1      -1.581   5.024  -4.749  0.00  0.00    -0.077 S 
ENDROOT
BRANCH   1   2
ATOM      2  C   UNL     1      -1.791   3.971  -3.352  0.00  0.00    +0.192 A 
ATOM      3  N   UNL     1      -2.592   2.934  -3.270  0.00  0.00    -0.122 NA
ATOM      4  N   UNL     1      -2.492   2.396  -2.107  0.00  0.00    -0.133 NA
ATOM      5  C   UNL     1      -1.629   3.052  -1.384  0.00  0.00    +0.139 A 
ATOM      6  N   UNL     1      -1.155   4.081  -2.149  0.00  0.00    -0.303 N 
BRANCH   6   7
ATOM      7  C   UNL     1      -0.168   5.091  -1.760  0.00  0.00    +0.091 C 
ATOM      8  C   UNL     1      -0.796   6.482  -1.855  0.00  0.00    +0.025 C 
ATOM      9  C   UNL     1       0.235   7.537  -1.449  0.00  0.00    +0.002 C 
ATOM     10  C   UNL     1       1.442   7.458  -2.385  0.00  0.00    +0.000 C 
ATOM     11  C   UNL     1       2.071   6.066  -2.290  0.00  0.00    +0.002 C 
ATOM     12  C   UNL     1       1.040   5.012  -2.697  0.00  0.00    +0.025 C 
ENDBRANCH   6   7
BRANCH   5  13
ATOM     13  C   UNL     1      -1.231   2.737   0.035  0.00  0.00    +0.118 C 
BRANCH  13  14
ATOM     14  C   UNL     1      -0.059   1.791   0.030  0.00  0.00    -0.003 A 
ATOM     15  C   UNL     1       1.267   2.074   0.018  0.00  0.00    +0.011 A 
ATOM     16  C   UNL     1       2.175   1.032   0.011  0.00  0.00    +0.008 A 
ATOM     17  C   UNL     1       1.713  -0.242   0.016  0.00  0.00    +0.045 A 
ATOM     18  S   UNL     1      -0.055   0.006   0.031  0.00  0.00    -0.101 S 
ENDBRANCH  13  14
ENDBRANCH   5  13
ENDBRANCH   1   2
BRANCH   1  19
ATOM     19  C   UNL     1      -2.740   4.250  -5.904  0.00  0.00    +0.173 C 
BRANCH  19  21
ATOM     20  N   UNL     1      -3.520   4.606  -8.224  0.00  0.00    -0.284 N 
ATOM     21  C   UNL     1      -2.729   5.005  -7.208  0.00  0.00    +0.228 C 
ATOM     22  O   UNL     1      -2.009   5.971  -7.343  0.00  0.00    -0.275 OA
ATOM     23  H   UNL     1      -4.035   3.788  -8.145  0.00  0.00    +0.155 HD
BRANCH  20  29
ATOM     24  C   UNL     1      -3.946   4.762 -10.607  0.00  0.00    +0.042 A 
ATOM     25  C   UNL     1      -4.028   5.540 -11.771  0.00  0.00    +0.062 A 
ATOM     26  C   UNL     1      -3.755   6.890 -11.717  0.00  0.00    +0.167 A 
ATOM     27  C   UNL     1      -3.403   7.488 -10.503  0.00  0.00    +0.168 A 
ATOM     28  C   UNL     1      -3.326   6.727  -9.347  0.00  0.00    +0.073 A 
ATOM     29  C   UNL     1      -3.598   5.369  -9.387  0.00  0.00    +0.048 A 
ATOM     30  O   UNL     1      -3.187   8.817 -10.720  0.00  0.00    -0.453 OA
ATOM     31  C   UNL     1      -3.806   9.106 -11.988  0.00  0.00    +0.466 C 
ATOM     32  O   UNL     1      -3.757   7.850 -12.689  0.00  0.00    -0.453 OA
BRANCH  24  34
ATOM     33  C   UNL     1      -4.497   2.660 -11.985  0.00  0.00    +0.091 C 
ATOM     34  C   UNL     1      -4.228   3.326 -10.661  0.00  0.00    +0.162 C 
ATOM     35  O   UNL     1      -4.245   2.672  -9.638  0.00  0.00    -0.292 OA
ENDBRANCH  24  34
ENDBRANCH  20  29
ENDBRANCH  19  21
ENDBRANCH   1  19
TORSDOF 8
