REMARK  Name = ZINC13267519
REMARK  10 active torsions:
REMARK  status: ('A' for Active; 'I' for Inactive)
REMARK    1  A    between atoms: C_1  and  C_2
REMARK    2  A    between atoms: C_3  and  S_8
REMARK    3  A    between atoms: C_4  and  C_7
REMARK    4  A    between atoms: S_8  and  O_11
REMARK    5  A    between atoms: O_11  and  C_12
REMARK    6  A    between atoms: C_14  and  N_20
REMARK    7  A    between atoms: C_17  and  C_18
REMARK    8  A    between atoms: N_20  and  S_21
REMARK    9  A    between atoms: S_21  and  C_24
REMARK   10  A    between atoms: C_28  and  N_30
REMARK                            x       y       z     vdW  Elec       q    Type
REMARK                         _______ _______ _______ _____ _____    ______ ____
ROOT
ATOM      1  C   UNL     1       1.262  -2.244   2.255  0.00  0.00    +0.173 A 
ATOM      2  C   UNL     1       0.460  -1.651   1.296  0.00  0.00    +0.074 A 
ATOM      3  C   UNL     1       0.844  -0.446   0.720  0.00  0.00    +0.052 A 
ATOM      4  C   UNL     1       2.037   0.165   1.101  0.00  0.00    +0.025 A 
ATOM      5  C   UNL     1       2.833  -0.407   2.049  0.00  0.00    +0.021 A 
ATOM      6  C   UNL     1       2.461  -1.621   2.639  0.00  0.00    +0.108 A 
ENDROOT
BRANCH   6   7
ATOM      7  C   UNL     1       3.321  -2.241   3.657  0.00  0.00    +0.390 C 
ATOM      8  O   UNL     1       2.996  -3.295   4.168  0.00  0.00    -0.240 OA
ATOM      9  O   UNL     1       4.471  -1.642   4.024  0.00  0.00    -0.240 OA
ENDBRANCH   6   7
BRANCH   3  10
ATOM     10  N   UNL     1       0.037   0.149  -0.244  0.00  0.00    -0.216 N 
ATOM     11  H   UNL     1       0.292   0.113  -1.179  0.00  0.00    +0.174 HD
BRANCH  10  12
ATOM     12  S   UNL     1      -1.359   0.918   0.205  0.00  0.00    +0.072 S 
ATOM     13  O   UNL     1      -1.923   1.462  -0.980  0.00  0.00    -0.150 OA
ATOM     14  O   UNL     1      -2.069   0.015   1.042  0.00  0.00    -0.150 OA
BRANCH  12  15
ATOM     15  C   UNL     1      -0.899   2.285   1.217  0.00  0.00    +0.111 A 
ATOM     16  C   UNL     1      -0.538   3.486   0.634  0.00  0.00    +0.029 A 
ATOM     17  C   UNL     1      -0.177   4.558   1.428  0.00  0.00    +0.004 A 
ATOM     18  C   UNL     1      -0.177   4.430   2.805  0.00  0.00    +0.033 A 
ATOM     19  C   UNL     1      -0.537   3.230   3.387  0.00  0.00    +0.128 A 
ATOM     20  C   UNL     1      -0.903   2.159   2.594  0.00  0.00    +0.061 A 
BRANCH  19  21
ATOM     21  N   UNL     1      -0.537   3.093   4.861  0.00  0.00    +0.056 N 
ATOM     22  O   UNL     1      -0.219   4.038   5.561  0.00  0.00    -0.126 OA
ATOM     23  O   UNL     1      -0.855   2.035   5.375  0.00  0.00    -0.126 OA
ENDBRANCH  19  21
ENDBRANCH  12  15
ENDBRANCH  10  12
ENDBRANCH   3  10
BRANCH   1  24
ATOM     24  O   UNL     1       0.893  -3.420   2.821  0.00  0.00    -0.341 OA
BRANCH  24  25
ATOM     25  S   UNL     1       1.403  -4.649   2.083  0.00  0.00    +0.156 S 
ATOM     26  O   UNL     1       0.763  -5.772   2.674  0.00  0.00    -0.131 OA
ATOM     27  O   UNL     1       1.305  -4.360   0.695  0.00  0.00    -0.131 OA
BRANCH  25  30
ATOM     28  C   UNL     1       3.026  -6.296   4.585  0.00  0.00    +0.071 C 
ATOM     29  C   UNL     1       3.727  -5.505   3.511  0.00  0.00    +0.109 A 
ATOM     30  C   UNL     1       3.121  -4.799   2.446  0.00  0.00    +0.192 A 
ATOM     31  C   UNL     1       4.166  -4.270   1.767  0.00  0.00    +0.163 A 
ATOM     32  O   UNL     1       5.274  -4.652   2.418  0.00  0.00    -0.358 OA
ATOM     33  N   UNL     1       5.011  -5.337   3.379  0.00  0.00    -0.081 NA
ATOM     34  C   UNL     1       4.097  -3.419   0.525  0.00  0.00    +0.091 C 
ENDBRANCH  25  30
ENDBRANCH  24  25
ENDBRANCH   1  24
TORSDOF 8
