REMARK  Name = ZINC20886126
REMARK  11 active torsions:
REMARK  status: ('A' for Active; 'I' for Inactive)
REMARK    1  A    between atoms: C_1  and  C_2
REMARK    2  A    between atoms: C_2  and  C_3
REMARK    3  A    between atoms: C_2  and  C_4
REMARK    4  A    between atoms: C_4  and  O_5
REMARK    5  A    between atoms: O_5  and  C_6
REMARK    6  A    between atoms: C_9  and  C_12
REMARK    7  A    between atoms: C_17  and  C_23
REMARK    8  A    between atoms: C_25  and  O_32
REMARK    9  A    between atoms: C_28  and  O_29
REMARK   10  A    between atoms: O_29  and  C_30
REMARK   11  A    between atoms: O_32  and  C_33
REMARK                            x       y       z     vdW  Elec       q    Type
REMARK                         _______ _______ _______ _____ _____    ______ ____
ROOT
ATOM      1  C   UNL     1       2.490   1.045  -0.016  0.00  0.00    +0.032 C 
ATOM      2  C   UNL     1       3.288   1.446  -1.259  0.00  0.00    +0.059 C 
ATOM      3  C   UNL     1       4.624   0.746  -1.250  0.00  0.00    +0.018 C 
ATOM      4  C   UNL     1       5.235   0.436  -0.086  0.00  0.00    +0.020 C 
ATOM      5  C   UNL     1       6.578  -0.255  -0.102  0.00  0.00    +0.066 C 
ATOM      6  C   UNL     1       6.638  -1.221  -1.287  0.00  0.00    +0.109 C 
ATOM      7  C   UNL     1       6.170  -0.508  -2.529  0.00  0.00    +0.218 C 
ATOM      8  O   UNL     1       6.658  -0.783  -3.604  0.00  0.00    -0.275 OA
ATOM      9  N   UNL     1       5.212   0.431  -2.448  0.00  0.00    -0.289 N 
ATOM     10  C   UNL     1       4.647   0.742   1.152  0.00  0.00    +0.162 C 
ATOM     11  O   UNL     1       5.233   0.459   2.178  0.00  0.00    -0.292 OA
ATOM     12  C   UNL     1       3.303   1.416   1.228  0.00  0.00    +0.088 C 
ATOM     13  H   UNL     1       4.901   0.951  -3.366  0.00  0.00    +0.155 HD
ENDROOT
BRANCH   5  14
ATOM     14  C   UNL     1       7.671   0.774  -0.236  0.00  0.00    +0.006 A 
ATOM     15  C   UNL     1       7.712   1.597  -1.345  0.00  0.00    +0.054 A 
ATOM     16  C   UNL     1       8.714   2.547  -1.466  0.00  0.00    +0.134 A 
ATOM     17  C   UNL     1       9.683   2.664  -0.479  0.00  0.00    +0.063 A 
ATOM     18  C   UNL     1       9.645   1.836   0.627  0.00  0.00    +0.064 A 
ATOM     19  C   UNL     1       8.639   0.889   0.750  0.00  0.00    +0.125 A 
ATOM     20 BR   UNL     1      11.055   3.955  -0.648  0.00  0.00    -0.046 Br
BRANCH  19  21
ATOM     21  O   UNL     1       8.601   0.075   1.838  0.00  0.00    -0.495 OA
ATOM     22  C   UNL     1       9.630   0.250   2.815  0.00  0.00    +0.277 C 
ENDBRANCH  19  21
BRANCH  16  23
ATOM     23  O   UNL     1       8.751   3.362  -2.555  0.00  0.00    -0.494 OA
ATOM     24  C   UNL     1       7.723   3.186  -3.532  0.00  0.00    +0.277 C 
ENDBRANCH  16  23
ENDBRANCH   5  14
BRANCH   1  28
ATOM     25  C   UNL     1      -1.237   3.137   0.031  0.00  0.00    +0.121 A 
ATOM     26  C   UNL     1      -1.218   1.750   0.017  0.00  0.00    +0.046 A 
ATOM     27  C   UNL     1      -0.013   1.076   0.008  0.00  0.00    +0.007 A 
ATOM     28  C   UNL     1       1.176   1.783   0.000  0.00  0.00    -0.043 A 
ATOM     29  C   UNL     1       1.160   3.165   0.008  0.00  0.00    +0.007 A 
ATOM     30  C   UNL     1      -0.043   3.844   0.024  0.00  0.00    +0.046 A 
BRANCH  25  31
ATOM     31  O   UNL     1      -2.422   3.802   0.045  0.00  0.00    -0.492 OA
BRANCH  31  32
ATOM     32  C   UNL     1      -3.611   3.009   0.052  0.00  0.00    +0.232 C 
BRANCH  32  34
ATOM     33  C   UNL     1      -6.106   3.083  -0.051  0.00  0.00    +0.010 C 
ATOM     34  C   UNL     1      -4.835   3.926   0.068  0.00  0.00    +0.020 C 
ATOM     35  C   UNL     1      -4.866   4.713   1.380  0.00  0.00    +0.010 C 
ENDBRANCH  32  34
ENDBRANCH  31  32
ENDBRANCH  25  31
ENDBRANCH   1  28
TORSDOF 7
