REMARK  Name = ZINC37511540
REMARK  11 active torsions:
REMARK  status: ('A' for Active; 'I' for Inactive)
REMARK    1  A    between atoms: C_1  and  C_2
REMARK    2  A    between atoms: C_2  and  C_3
REMARK    3  A    between atoms: C_2  and  C_4
REMARK    4  A    between atoms: C_4  and  N_5
REMARK    5  A    between atoms: C_6  and  C_8
REMARK    6  A    between atoms: C_11  and  C_13
REMARK    7  A    between atoms: C_13  and  N_14
REMARK    8  A    between atoms: C_17  and  C_25
REMARK    9  A    between atoms: C_25  and  C_27
REMARK   10  A    between atoms: C_27  and  O_28
REMARK   11  A    between atoms: O_28  and  C_29
REMARK                            x       y       z     vdW  Elec       q    Type
REMARK                         _______ _______ _______ _____ _____    ______ ____
ROOT
ATOM      1  N   UNL     1      -0.634  -7.633  -2.020  0.00  0.00    -0.258 N 
ATOM      2  C   UNL     1      -1.460  -8.506  -2.744  0.00  0.00    +0.079 A 
ATOM      3  C   UNL     1      -2.690  -8.884  -2.247  0.00  0.00    +0.038 A 
ATOM      4  C   UNL     1      -3.498  -9.757  -2.985  0.00  0.00    +0.023 A 
ATOM      5  C   UNL     1      -3.053 -10.241  -4.222  0.00  0.00    +0.015 A 
ATOM      6  C   UNL     1      -1.823  -9.858  -4.710  0.00  0.00    +0.048 A 
ATOM      7  C   UNL     1      -1.022  -8.992  -3.979  0.00  0.00    +0.143 A 
ATOM      8  O   UNL     1       0.190  -8.608  -4.455  0.00  0.00    -0.481 OA
ATOM      9  C   UNL     1       0.622  -7.286  -4.122  0.00  0.00    +0.325 C 
ATOM     10  C   UNL     1       0.396  -7.031  -2.653  0.00  0.00    +0.258 C 
ATOM     11  O   UNL     1       1.139  -6.292  -2.042  0.00  0.00    -0.271 OA
ENDROOT
BRANCH   4  12
ATOM     12  C   UNL     1      -4.809 -10.165  -2.464  0.00  0.00    +0.200 C 
ATOM     13  O   UNL     1      -5.194  -9.745  -1.393  0.00  0.00    -0.288 OA
BRANCH  12  14
ATOM     14  C   UNL     1      -5.678 -11.105  -3.261  0.00  0.00    +0.308 C 
BRANCH  14  15
ATOM     15  O   UNL     1      -6.893 -11.349  -2.550  0.00  0.00    -0.484 OA
BRANCH  15  16
ATOM     16  C   UNL     1      -7.793 -12.182  -3.134  0.00  0.00    +0.123 A 
ATOM     17  C   UNL     1      -7.510 -12.758  -4.365  0.00  0.00    +0.046 A 
ATOM     18  C   UNL     1      -8.426 -13.605  -4.957  0.00  0.00    +0.005 A 
ATOM     19  C   UNL     1      -9.625 -13.880  -4.326  0.00  0.00    +0.020 A 
ATOM     20  C   UNL     1      -9.910 -13.307  -3.099  0.00  0.00    +0.044 A 
ATOM     21  C   UNL     1      -8.994 -12.463  -2.499  0.00  0.00    +0.065 A 
ATOM     22 CL   UNL     1     -11.416 -13.654  -2.309  0.00  0.00    -0.083 Cl
ENDBRANCH  15  16
ENDBRANCH  14  15
ENDBRANCH  12  14
ENDBRANCH   4  12
BRANCH   1  23
ATOM     23  C   UNL     1      -0.889  -7.373  -0.601  0.00  0.00    +0.188 C 
BRANCH  23  27
ATOM     24  C   UNL     1      -2.558  -4.143  -0.258  0.00  0.00    +0.189 A 
ATOM     25  C   UNL     1      -3.653  -4.958  -0.291  0.00  0.00    +0.055 A 
ATOM     26  C   UNL     1      -3.174  -6.271  -0.424  0.00  0.00    +0.047 A 
ATOM     27  C   UNL     1      -1.825  -6.200  -0.465  0.00  0.00    +0.124 A 
ATOM     28  O   UNL     1      -1.458  -4.916  -0.370  0.00  0.00    -0.453 OA
BRANCH  24  30
ATOM     29  N   UNL     1      -1.416  -1.993  -0.116  0.00  0.00    -0.309 N 
ATOM     30  C   UNL     1      -2.575  -2.682  -0.130  0.00  0.00    +0.279 C 
ATOM     31  O   UNL     1      -3.635  -2.091  -0.036  0.00  0.00    -0.267 OA
ATOM     32  H   UNL     1      -0.572  -2.463  -0.190  0.00  0.00    +0.149 HD
BRANCH  29  33
ATOM     33  C   UNL     1      -1.433  -0.534   0.013  0.00  0.00    +0.107 C 
BRANCH  33  35
ATOM     34  C   UNL     1      -0.019   1.526   0.010  0.00  0.00    +0.009 C 
ATOM     35  C   UNL     1       0.002  -0.004   0.002  0.00  0.00    -0.000 C 
ATOM     36  C   UNL     1       0.742  -0.511   1.242  0.00  0.00    +0.009 C 
ENDBRANCH  33  35
ENDBRANCH  29  33
ENDBRANCH  24  30
ENDBRANCH  23  27
ENDBRANCH   1  23
TORSDOF 9
