REMARK  Name = ZINC05792114
REMARK  5 active torsions:
REMARK  status: ('A' for Active; 'I' for Inactive)
REMARK    1  A    between atoms: C_1  and  C_2
REMARK    2  A    between atoms: C_2  and  C_21
REMARK    3  A    between atoms: N_5  and  C_9
REMARK    4  A    between atoms: C_9  and  C_10
REMARK    5  A    between atoms: N_12  and  C_13
REMARK                            x       y       z     vdW  Elec       q    Type
REMARK                         _______ _______ _______ _____ _____    ______ ____
ROOT
ATOM      1  C   UNL     1       0.010   1.518   0.048  0.00  0.00    +0.047 C 
ATOM      2  C   UNL     1       0.023  -0.011   0.029  0.00  0.00    +0.138 C 
ATOM      3  C   UNL     1      -1.385  -0.558   0.163  0.00  0.00    +0.251 C 
ATOM      4  O   UNL     1      -2.313  -0.383  -0.596  0.00  0.00    -0.272 OA
ATOM      5  N   UNL     1      -1.388  -1.281   1.301  0.00  0.00    -0.215 N 
ATOM      6  C   UNL     1      -0.191  -1.266   1.898  0.00  0.00    +0.310 C 
ATOM      7  O   UNL     1       0.052  -1.846   2.938  0.00  0.00    -0.252 OA
ATOM      8  N   UNL     1       0.714  -0.538   1.218  0.00  0.00    -0.281 N 
ATOM      9  H   UNL     1       1.641  -0.390   1.464  0.00  0.00    +0.152 HD
ENDROOT
BRANCH   2  10
ATOM     10  C   UNL     1       0.675  -0.519  -1.231  0.00  0.00    +0.022 A 
ATOM     11  C   UNL     1       1.808  -1.306  -1.154  0.00  0.00    +0.047 A 
ATOM     12  C   UNL     1       2.407  -1.773  -2.312  0.00  0.00    +0.124 A 
ATOM     13  C   UNL     1       1.870  -1.452  -3.547  0.00  0.00    +0.041 A 
ATOM     14  C   UNL     1       0.737  -0.665  -3.624  0.00  0.00    +0.041 A 
ATOM     15  C   UNL     1       0.135  -0.202  -2.466  0.00  0.00    +0.129 A 
ATOM     16  F   UNL     1      -0.976   0.563  -2.541  0.00  0.00    -0.205 F 
ATOM     17  F   UNL     1       3.515  -2.542  -2.236  0.00  0.00    -0.205 F 
ENDBRANCH   2  10
BRANCH   5  18
ATOM     18  C   UNL     1      -2.558  -1.993   1.820  0.00  0.00    +0.214 C 
BRANCH  18  19
ATOM     19  C   UNL     1      -2.580  -3.394   1.265  0.00  0.00    +0.235 C 
ATOM     20  O   UNL     1      -1.705  -3.761   0.510  0.00  0.00    -0.274 OA
ATOM     21  N   UNL     1      -3.573  -4.239   1.608  0.00  0.00    -0.282 N 
ATOM     22  H   UNL     1      -4.237  -3.967   2.261  0.00  0.00    +0.155 HD
BRANCH  21  23
ATOM     23  C   UNL     1      -3.646  -5.508   1.021  0.00  0.00    +0.072 A 
ATOM     24  C   UNL     1      -2.483  -6.194   0.701  0.00  0.00    +0.064 A 
ATOM     25  C   UNL     1      -2.558  -7.448   0.121  0.00  0.00    +0.125 A 
ATOM     26  C   UNL     1      -3.793  -8.019  -0.140  0.00  0.00    +0.041 A 
ATOM     27  C   UNL     1      -4.954  -7.337   0.178  0.00  0.00    +0.043 A 
ATOM     28  C   UNL     1      -4.884  -6.086   0.762  0.00  0.00    +0.145 A 
ATOM     29  F   UNL     1      -6.019  -5.423   1.077  0.00  0.00    -0.204 F 
ATOM     30  F   UNL     1      -1.427  -8.116  -0.191  0.00  0.00    -0.205 F 
ENDBRANCH  21  23
ENDBRANCH  18  19
ENDBRANCH   5  18
TORSDOF 4
