REMARK  Name = ZINC01382315
REMARK  10 active torsions:
REMARK  status: ('A' for Active; 'I' for Inactive)
REMARK    1  A    between atoms: C_1  and  C_2
REMARK    2  A    between atoms: C_4  and  C_45
REMARK    3  A    between atoms: C_7  and  C_14
REMARK    4  A    between atoms: C_14  and  C_16
REMARK    5  A    between atoms: C_14  and  N_29
REMARK    6  A    between atoms: N_20  and  C_21
REMARK    7  A    between atoms: C_21  and  C_22
REMARK    8  A    between atoms: C_22  and  C_23
REMARK    9  A    between atoms: N_32  and  C_35
REMARK   10  A    between atoms: C_35  and  C_36
REMARK                            x       y       z     vdW  Elec       q    Type
REMARK                         _______ _______ _______ _____ _____    ______ ____
ROOT
ATOM      1  C   UNL     1       0.096  -6.383   1.200  0.00  0.00    +0.162 C 
ENDROOT
BRANCH   1   8
ATOM      2  C   UNL     1      -1.117   1.312  -0.510  0.00  0.00    +0.044 C 
ATOM      3  C   UNL     1      -0.909  -0.177  -0.417  0.00  0.00    -0.048 A 
ATOM      4  C   UNL     1      -0.934  -0.948  -1.572  0.00  0.00    +0.007 A 
ATOM      5  C   UNL     1      -0.747  -2.300  -1.510  0.00  0.00    -0.041 A 
ATOM      6  C   UNL     1      -0.529  -2.913  -0.272  0.00  0.00    +0.002 A 
ATOM      7  C   UNL     1      -0.325  -4.359  -0.168  0.00  0.00    +0.021 A 
ATOM      8  C   UNL     1      -0.117  -4.898   1.058  0.00  0.00    +0.042 A 
ATOM      9  C   UNL     1      -0.101  -4.074   2.204  0.00  0.00    +0.254 A 
ATOM     10  O   UNL     1       0.087  -4.579   3.297  0.00  0.00    -0.268 OA
ATOM     11  N   UNL     1      -0.288  -2.745   2.119  0.00  0.00    -0.322 N 
ATOM     12  H   UNL     1      -0.270  -2.207   2.926  0.00  0.00    +0.169 HD
ATOM     13  C   UNL     1      -0.503  -2.135   0.901  0.00  0.00    +0.050 A 
ATOM     14  C   UNL     1      -0.690  -0.760   0.812  0.00  0.00    +0.029 A 
ATOM     15  C   UNL     1      -0.776  -3.127  -2.769  0.00  0.00    +0.044 C 
ENDBRANCH   1   8
BRANCH   1  16
ATOM     16  N   UNL     1       1.346  -6.632   1.930  0.00  0.00    -0.286 NA
ATOM     17  C   UNL     1       1.556  -8.071   2.141  0.00  0.00    +0.101 C 
ATOM     18  C   UNL     1       2.824  -8.282   2.972  0.00  0.00    +0.100 C 
ATOM     19  N   UNL     1       3.969  -7.682   2.273  0.00  0.00    -0.296 NA
ATOM     20  C   UNL     1       3.759  -6.243   2.062  0.00  0.00    +0.100 C 
ATOM     21  C   UNL     1       2.491  -6.032   1.232  0.00  0.00    +0.101 C 
BRANCH  19  22
ATOM     22  C   UNL     1       5.220  -7.931   3.004  0.00  0.00    +0.119 C 
BRANCH  22  23
ATOM     23  C   UNL     1       6.391  -7.522   2.148  0.00  0.00    -0.030 A 
ATOM     24  C   UNL     1       6.972  -8.440   1.292  0.00  0.00    +0.009 A 
ATOM     25  C   UNL     1       8.047  -8.070   0.504  0.00  0.00    +0.050 A 
ATOM     26  C   UNL     1       8.543  -6.778   0.571  0.00  0.00    +0.166 A 
ATOM     27  C   UNL     1       7.958  -5.854   1.433  0.00  0.00    +0.167 A 
ATOM     28  C   UNL     1       6.878  -6.230   2.216  0.00  0.00    +0.054 A 
ATOM     29  O   UNL     1       8.621  -4.667   1.316  0.00  0.00    -0.453 OA
ATOM     30  C   UNL     1       9.872  -4.987   0.679  0.00  0.00    +0.466 C 
ATOM     31  O   UNL     1       9.574  -6.170  -0.086  0.00  0.00    -0.453 OA
ENDBRANCH  22  23
ENDBRANCH  19  22
ENDBRANCH   1  16
BRANCH   1  32
ATOM     32  C   UNL     1      -1.058  -6.987   1.959  0.00  0.00    +0.173 A 
ATOM     33  N   UNL     1      -1.255  -6.934   3.254  0.00  0.00    -0.111 NA
ATOM     34  N   UNL     1      -2.347  -7.566   3.516  0.00  0.00    -0.023 NA
ATOM     35  N   UNL     1      -2.852  -8.019   2.422  0.00  0.00    -0.044 NA
ATOM     36  N   UNL     1      -2.089  -7.678   1.439  0.00  0.00    -0.227 N 
BRANCH  36  37
ATOM     37  C   UNL     1      -2.303  -7.988   0.023  0.00  0.00    +0.152 C 
BRANCH  37  38
ATOM     38  C   UNL     1      -1.633  -9.322  -0.313  0.00  0.00    +0.058 C 
BRANCH  38  39
ATOM     39  C   UNL     1      -1.853  -9.642  -1.770  0.00  0.00    -0.046 A 
ATOM     40  C   UNL     1      -2.968 -10.360  -2.159  0.00  0.00    +0.004 A 
ATOM     41  C   UNL     1      -3.169 -10.653  -3.495  0.00  0.00    +0.000 A 
ATOM     42  C   UNL     1      -2.256 -10.226  -4.441  0.00  0.00    +0.000 A 
ATOM     43  C   UNL     1      -1.142  -9.507  -4.052  0.00  0.00    +0.000 A 
ATOM     44  C   UNL     1      -0.943  -9.210  -2.716  0.00  0.00    +0.004 A 
ENDBRANCH  38  39
ENDBRANCH  37  38
ENDBRANCH  36  37
ENDBRANCH   1  32
TORSDOF 8
