REMARK  Name = ZINC34750225
REMARK  10 active torsions:
REMARK  status: ('A' for Active; 'I' for Inactive)
REMARK    1  A    between atoms: C_1  and  C_2
REMARK    2  A    between atoms: C_2  and  C_3
REMARK    3  A    between atoms: C_2  and  C_4
REMARK    4  A    between atoms: C_4  and  N_5
REMARK    5  A    between atoms: C_18  and  S_20
REMARK    6  A    between atoms: S_20  and  C_21
REMARK    7  A    between atoms: C_21  and  C_22
REMARK    8  A    between atoms: N_24  and  C_25
REMARK    9  A    between atoms: C_33  and  C_35
REMARK   10  A    between atoms: C_33  and  C_36
REMARK                            x       y       z     vdW  Elec       q    Type
REMARK                         _______ _______ _______ _____ _____    ______ ____
ROOT
ATOM      1  N   UNL     1       2.559   0.621  -0.160  0.00  0.00    +0.382 N 
ATOM      2  C   UNL     1       3.842   1.286   0.104  0.00  0.00    -0.060 C 
ATOM      3  C   UNL     1       4.802   1.021  -1.060  0.00  0.00    +0.088 C 
ATOM      4  N   UNL     1       4.902  -0.433  -1.260  0.00  0.00    -0.318 N 
ATOM      5  C   UNL     1       3.654  -1.204  -1.372  0.00  0.00    +0.088 C 
ATOM      6  C   UNL     1       2.748  -0.835  -0.193  0.00  0.00    -0.060 C 
ATOM      7  C   UNL     1       6.133  -1.057  -1.343  0.00  0.00    +0.134 A 
ATOM      8  C   UNL     1       6.724  -1.317  -2.611  0.00  0.00    +0.051 A 
ATOM      9  C   UNL     1       6.206  -1.014  -3.944  0.00  0.00    -0.020 A 
ATOM     10  C   UNL     1       6.972  -1.369  -4.998  0.00  0.00    +0.021 A 
ATOM     11  S   UNL     1       8.411  -2.119  -4.290  0.00  0.00    -0.071 S 
ATOM     12  C   UNL     1       7.981  -1.956  -2.576  0.00  0.00    +0.115 A 
ATOM     13  N   UNL     1       8.557  -2.285  -1.436  0.00  0.00    -0.214 NA
ATOM     14  C   UNL     1       7.958  -2.018  -0.283  0.00  0.00    +0.191 A 
ATOM     15  N   UNL     1       6.777  -1.413  -0.244  0.00  0.00    -0.206 NA
ATOM     16  C   UNL     1       6.642  -1.161  -6.443  0.00  0.00    +0.203 C 
ATOM     17  O   UNL     1       5.251  -0.814  -6.534  0.00  0.00    -0.368 OA
ATOM     18  C   UNL     1       4.859   0.214  -5.620  0.00  0.00    +0.068 C 
ATOM     19  C   UNL     1       4.864  -0.326  -4.187  0.00  0.00    +0.071 C 
ATOM     20  C   UNL     1       5.838   1.385  -5.725  0.00  0.00    +0.041 C 
ATOM     21  C   UNL     1       3.452   0.698  -5.975  0.00  0.00    +0.041 C 
ATOM     22  H   UNL     1       2.199   0.933  -1.049  0.00  0.00    -0.082 HD
ENDROOT
BRANCH   1  23
ATOM     23  C   UNL     1       1.604   0.966   0.901  0.00  0.00    -0.076 C 
BRANCH  23  25
ATOM     24  C   UNL     1       0.600   2.809  -0.454  0.00  0.00    +0.005 C 
ATOM     25  C   UNL     1       1.311   2.466   0.857  0.00  0.00    -0.034 C 
ATOM     26  C   UNL     1       0.414   2.846   2.037  0.00  0.00    +0.005 C 
ENDBRANCH  23  25
ENDBRANCH   1  23
BRANCH  14  27
ATOM     27  S   UNL     1       8.749  -2.468   1.226  0.00  0.00    -0.077 S 
BRANCH  27  28
ATOM     28  C   UNL     1      10.302  -3.240   0.695  0.00  0.00    +0.173 C 
BRANCH  28  29
ATOM     29  C   UNL     1      11.086  -3.677   1.906  0.00  0.00    +0.224 C 
ATOM     30  O   UNL     1      10.640  -3.487   3.017  0.00  0.00    -0.275 OA
ATOM     31  N   UNL     1      12.281  -4.280   1.753  0.00  0.00    -0.312 N 
ATOM     32  H   UNL     1      12.638  -4.432   0.864  0.00  0.00    +0.149 HD
BRANCH  31  33
ATOM     33  C   UNL     1      13.043  -4.705   2.930  0.00  0.00    +0.073 C 
ATOM     34  C   UNL     1      13.868  -3.529   3.456  0.00  0.00    +0.022 C 
ATOM     35  C   UNL     1      14.664  -3.973   4.685  0.00  0.00    +0.002 C 
ATOM     36  C   UNL     1      15.600  -5.120   4.299  0.00  0.00    +0.000 C 
ATOM     37  C   UNL     1      14.775  -6.296   3.773  0.00  0.00    +0.002 C 
ATOM     38  C   UNL     1      13.979  -5.852   2.544  0.00  0.00    +0.022 C 
ENDBRANCH  31  33
ENDBRANCH  28  29
ENDBRANCH  27  28
ENDBRANCH  14  27
TORSDOF 6
