REMARK  Name = ZINC35143876
REMARK  10 active torsions:
REMARK  status: ('A' for Active; 'I' for Inactive)
REMARK    1  A    between atoms: C_1  and  C_2
REMARK    2  A    between atoms: C_2  and  N_3
REMARK    3  A    between atoms: N_3  and  C_4
REMARK    4  A    between atoms: C_4  and  C_5
REMARK    5  A    between atoms: N_7  and  C_8
REMARK    6  A    between atoms: C_9  and  C_21
REMARK    7  A    between atoms: C_10  and  C_20
REMARK    8  A    between atoms: N_12  and  C_13
REMARK    9  A    between atoms: C_18  and  C_19
REMARK   10  A    between atoms: N_29  and  C_30
REMARK                            x       y       z     vdW  Elec       q    Type
REMARK                         _______ _______ _______ _____ _____    ______ ____
ROOT
ATOM      1  C   UNL     1      -2.442  -3.155  -0.897  0.00  0.00    +0.236 C 
ATOM      2  O   UNL     1      -2.373  -3.812   0.120  0.00  0.00    -0.274 OA
ATOM      3  N   UNL     1      -2.123  -3.712  -2.082  0.00  0.00    -0.268 N 
ATOM      4  H   UNL     1      -2.220  -3.200  -2.900  0.00  0.00    +0.156 HD
ENDROOT
BRANCH   3   5
ATOM      5  C   UNL     1      -1.653  -5.020  -2.132  0.00  0.00    +0.137 A 
ATOM      6  C   UNL     1      -1.903  -5.946  -3.128  0.00  0.00    +0.045 A 
ATOM      7  C   UNL     1      -1.235  -7.134  -2.775  0.00  0.00    +0.070 A 
ATOM      8  N   UNL     1      -0.620  -6.940  -1.639  0.00  0.00    -0.169 NA
ATOM      9  N   UNL     1      -0.856  -5.628  -1.212  0.00  0.00    -0.217 N 
ATOM     10  C   UNL     1      -1.230  -8.413  -3.572  0.00  0.00    +0.068 C 
BRANCH   9  11
ATOM     11  C   UNL     1      -0.360  -5.043  -0.039  0.00  0.00    +0.070 A 
ATOM     12  C   UNL     1       0.133  -3.745  -0.063  0.00  0.00    +0.028 A 
ATOM     13  C   UNL     1       0.621  -3.172   1.094  0.00  0.00    +0.002 A 
ATOM     14  C   UNL     1       0.618  -3.888   2.277  0.00  0.00    +0.000 A 
ATOM     15  C   UNL     1       0.127  -5.181   2.305  0.00  0.00    +0.005 A 
ATOM     16  C   UNL     1      -0.367  -5.758   1.151  0.00  0.00    -0.025 A 
ATOM     17  C   UNL     1      -0.907  -7.165   1.183  0.00  0.00    +0.046 C 
ENDBRANCH   9  11
BRANCH   6  18
ATOM     18  C   UNL     1      -2.725  -5.728  -4.344  0.00  0.00    -0.013 A 
ATOM     19  C   UNL     1      -4.092  -5.481  -4.229  0.00  0.00    +0.008 A 
ATOM     20  C   UNL     1      -4.851  -5.279  -5.364  0.00  0.00    +0.001 A 
ATOM     21  C   UNL     1      -4.259  -5.321  -6.613  0.00  0.00    +0.000 A 
ATOM     22  C   UNL     1      -2.902  -5.566  -6.733  0.00  0.00    +0.001 A 
ATOM     23  C   UNL     1      -2.132  -5.763  -5.605  0.00  0.00    +0.008 A 
ENDBRANCH   6  18
ENDBRANCH   3   5
BRANCH   1  24
ATOM     24  C   UNL     1      -2.887  -1.716  -0.836  0.00  0.00    +0.205 C 
BRANCH  24  25
ATOM     25  N   UNL     1      -3.174  -1.353   0.554  0.00  0.00    -0.277 N 
ATOM     26  C   UNL     1      -4.415  -1.522   1.052  0.00  0.00    +0.307 C 
ATOM     27  O   UNL     1      -5.296  -1.976   0.348  0.00  0.00    -0.252 OA
ATOM     28  N   UNL     1      -4.679  -1.187   2.331  0.00  0.00    -0.267 N 
ATOM     29  H   UNL     1      -4.001  -0.749   2.868  0.00  0.00    +0.156 HD
BRANCH  28  30
ATOM     30  C   UNL     1      -5.935  -1.472   2.885  0.00  0.00    +0.070 A 
ATOM     31  C   UNL     1      -6.764  -2.408   2.282  0.00  0.00    +0.029 A 
ATOM     32  C   UNL     1      -8.001  -2.688   2.830  0.00  0.00    +0.040 A 
ATOM     33  C   UNL     1      -8.416  -2.036   3.979  0.00  0.00    +0.126 A 
ATOM     34  C   UNL     1      -7.592  -1.102   4.582  0.00  0.00    +0.078 A 
ATOM     35  C   UNL     1      -6.350  -0.822   4.042  0.00  0.00    +0.147 A 
ATOM     36  F   UNL     1      -5.543   0.085   4.633  0.00  0.00    -0.203 F 
ATOM     37  F   UNL     1      -9.626  -2.312   4.511  0.00  0.00    -0.205 F 
ENDBRANCH  28  30
BRANCH  25  39
ATOM     38  C   UNL     1      -2.095   0.720   1.276  0.00  0.00    +0.024 C 
ATOM     39  C   UNL     1      -2.113  -0.805   1.402  0.00  0.00    +0.106 C 
ENDBRANCH  25  39
ENDBRANCH  24  25
ENDBRANCH   1  24
TORSDOF 7
