REMARK  Name = ZINC01192195
REMARK  10 active torsions:
REMARK  status: ('A' for Active; 'I' for Inactive)
REMARK    1  A    between atoms: C_1  and  C_2
REMARK    2  A    between atoms: C_5  and  N_8
REMARK    3  A    between atoms: C_10  and  C_14
REMARK    4  A    between atoms: C_11  and  C_13
REMARK    5  A    between atoms: C_14  and  C_16
REMARK    6  A    between atoms: C_14  and  C_25
REMARK    7  A    between atoms: C_20  and  N_22
REMARK    8  A    between atoms: C_27  and  C_39
REMARK    9  A    between atoms: N_29  and  C_32
REMARK   10  A    between atoms: C_35  and  C_38
REMARK                            x       y       z     vdW  Elec       q    Type
REMARK                         _______ _______ _______ _____ _____    ______ ____
ROOT
ATOM      1  C   UNL     1       0.108  -7.541   1.475  0.00  0.00    +0.074 C 
ENDROOT
BRANCH   1   4
ATOM      2  N   UNL     1       0.167  -4.282  -0.253  0.00  0.00    -0.219 N 
ATOM      3  C   UNL     1       0.139  -5.006   0.884  0.00  0.00    +0.276 A 
ATOM      4  C   UNL     1       0.135  -6.373   0.522  0.00  0.00    +0.047 A 
ATOM      5  C   UNL     1       0.161  -6.450  -0.824  0.00  0.00    +0.039 A 
ATOM      6  N   UNL     1       0.175  -5.181  -1.329  0.00  0.00    -0.294 N 
ATOM      7  C   UNL     1       0.167  -7.721  -1.634  0.00  0.00    +0.065 C 
ATOM      8  O   UNL     1       0.121  -4.562   2.018  0.00  0.00    -0.266 OA
ATOM      9  H   UNL     1       0.191  -4.942  -2.269  0.00  0.00    +0.187 HD
BRANCH   2  14
ATOM     10  C   UNL     1       0.214   1.378  -0.620  0.00  0.00    +0.044 C 
ATOM     11  C   UNL     1       0.202  -0.126  -0.522  0.00  0.00    -0.050 A 
ATOM     12  C   UNL     1       0.220  -0.892  -1.674  0.00  0.00    +0.005 A 
ATOM     13  C   UNL     1       0.208  -2.270  -1.588  0.00  0.00    +0.028 A 
ATOM     14  C   UNL     1       0.179  -2.887  -0.344  0.00  0.00    +0.067 A 
ATOM     15  C   UNL     1       0.162  -2.114   0.810  0.00  0.00    +0.028 A 
ATOM     16  C   UNL     1       0.179  -0.737   0.718  0.00  0.00    +0.005 A 
ENDBRANCH   2  14
ENDBRANCH   1   4
BRANCH   1  17
ATOM     17  C   UNL     1      -1.062  -7.378   2.447  0.00  0.00    +0.135 C 
ATOM     18  C   UNL     1      -1.146  -8.565   3.384  0.00  0.00    +0.047 C 
ATOM     19  N   UNL     1      -2.275  -9.124   3.184  0.00  0.00    -0.181 NA
ATOM     20  N   UNL     1      -3.036  -8.487   2.208  0.00  0.00    -0.160 N 
ATOM     21  C   UNL     1      -2.384  -7.414   1.703  0.00  0.00    +0.249 C 
ATOM     22  O   UNL     1      -2.769  -6.649   0.845  0.00  0.00    -0.273 OA
ATOM     23  C   UNL     1      -0.092  -9.005   4.367  0.00  0.00    +0.063 C 
BRANCH  20  24
ATOM     24  C   UNL     1      -4.310  -8.901   1.802  0.00  0.00    +0.060 A 
ATOM     25  C   UNL     1      -4.987  -8.200   0.813  0.00  0.00    +0.026 A 
ATOM     26  C   UNL     1      -6.244  -8.610   0.415  0.00  0.00    +0.005 A 
ATOM     27  C   UNL     1      -6.829  -9.718   1.000  0.00  0.00    -0.050 A 
ATOM     28  C   UNL     1      -6.157 -10.419   1.986  0.00  0.00    +0.005 A 
ATOM     29  C   UNL     1      -4.897 -10.017   2.384  0.00  0.00    +0.026 A 
ATOM     30  C   UNL     1      -8.201 -10.163   0.564  0.00  0.00    +0.044 C 
ENDBRANCH  20  24
ENDBRANCH   1  17
BRANCH   1  31
ATOM     31  C   UNL     1       1.400  -7.589   2.248  0.00  0.00    -0.036 A 
ATOM     32  C   UNL     1       1.675  -6.620   3.195  0.00  0.00    +0.004 A 
ATOM     33  C   UNL     1       2.861  -6.664   3.905  0.00  0.00    +0.003 A 
ATOM     34  C   UNL     1       3.772  -7.677   3.667  0.00  0.00    +0.033 A 
ATOM     35  C   UNL     1       3.496  -8.646   2.720  0.00  0.00    +0.126 A 
ATOM     36  C   UNL     1       2.308  -8.604   2.014  0.00  0.00    +0.037 A 
BRANCH  35  37
ATOM     37  N   UNL     1       4.471  -9.730   2.465  0.00  0.00    +0.056 N 
ATOM     38  O   UNL     1       5.509  -9.768   3.085  0.00  0.00    -0.126 OA
ATOM     39  O   UNL     1       4.230 -10.577   1.637  0.00  0.00    -0.126 OA
ENDBRANCH  35  37
ENDBRANCH   1  31
TORSDOF 6
