REMARK  Name = ZINC30979364
REMARK  6 active torsions:
REMARK  status: ('A' for Active; 'I' for Inactive)
REMARK    1  A    between atoms: C_6  and  C_7
REMARK    2  A    between atoms: C_9  and  C_12
REMARK    3  A    between atoms: C_12  and  N_13
REMARK    4  A    between atoms: C_16  and  C_19
REMARK    5  A    between atoms: N_21  and  C_22
REMARK    6  A    between atoms: C_22  and  C_23
REMARK                            x       y       z     vdW  Elec       q    Type
REMARK                         _______ _______ _______ _____ _____    ______ ____
ROOT
ATOM      1  N   UNL     1      -3.139   3.945  -1.240  0.00  0.00    +0.386 N 
ATOM      2  C   UNL     1      -2.411   4.330  -0.025  0.00  0.00    -0.077 C 
ATOM      3  C   UNL     1      -1.073   3.588   0.027  0.00  0.00    -0.006 C 
ATOM      4  C   UNL     1      -1.331   2.079   0.020  0.00  0.00    +0.071 C 
ATOM      5  C   UNL     1      -2.133   1.712  -1.232  0.00  0.00    -0.006 C 
ATOM      6  C   UNL     1      -3.440   2.508  -1.247  0.00  0.00    -0.077 C 
ATOM      7  H   UNL     1      -2.488   4.156  -2.102  0.00  0.00    -0.081 HD
ENDROOT
BRANCH   4   8
ATOM      8  C   UNL     1      -0.016   1.344   0.009  0.00  0.00    +0.216 C 
ATOM      9  O   UNL     1       1.026   1.964   0.003  0.00  0.00    -0.276 OA
ATOM     10  N   UNL     1       0.002  -0.004   0.002  0.00  0.00    -0.311 N 
ATOM     11  H   UNL     1      -0.943  -0.567   0.008  0.00  0.00    +0.149 HD
BRANCH  10  12
ATOM     12  C   UNL     1       1.281  -0.719  -0.014  0.00  0.00    +0.139 C 
BRANCH  12  13
ATOM     13  C   UNL     1       1.025  -2.204  -0.020  0.00  0.00    -0.027 A 
ATOM     14  C   UNL     1       0.926  -2.892   1.176  0.00  0.00    +0.009 A 
ATOM     15  C   UNL     1       0.686  -4.253   1.176  0.00  0.00    +0.050 A 
ATOM     16  C   UNL     1       0.557  -4.934  -0.023  0.00  0.00    +0.166 A 
ATOM     17  C   UNL     1       0.663  -4.243  -1.228  0.00  0.00    +0.167 A 
ATOM     18  C   UNL     1       0.897  -2.878  -1.220  0.00  0.00    +0.054 A 
ATOM     19  O   UNL     1       0.501  -5.128  -2.254  0.00  0.00    -0.453 OA
ATOM     20  C   UNL     1       0.702  -6.431  -1.675  0.00  0.00    +0.466 C 
ATOM     21  O   UNL     1       0.329  -6.253  -0.295  0.00  0.00    -0.453 OA
ENDBRANCH  12  13
ENDBRANCH  10  12
ENDBRANCH   4   8
BRANCH   1  22
ATOM     22  C   UNL     1      -4.365   4.740  -1.393  0.00  0.00    +0.022 C 
BRANCH  22  25
ATOM     23  C   UNL     1      -6.059   3.736  -4.400  0.00  0.00    +0.202 A 
ATOM     24  N   UNL     1      -5.824   3.573  -3.079  0.00  0.00    -0.193 NA
ATOM     25  C   UNL     1      -4.954   4.498  -2.760  0.00  0.00    +0.211 A 
ATOM     26  O   UNL     1      -4.689   5.190  -3.872  0.00  0.00    -0.340 OA
ATOM     27  N   UNL     1      -5.325   4.740  -4.802  0.00  0.00    -0.056 NA
BRANCH  23  33
ATOM     28  C   UNL     1      -7.697   1.875  -4.671  0.00  0.00    +0.013 A 
ATOM     29  C   UNL     1      -8.553   1.127  -5.454  0.00  0.00    +0.016 A 
ATOM     30  C   UNL     1      -8.691   1.413  -6.801  0.00  0.00    +0.018 A 
ATOM     31  C   UNL     1      -7.976   2.453  -7.369  0.00  0.00    +0.016 A 
ATOM     32  C   UNL     1      -7.121   3.209  -6.595  0.00  0.00    +0.013 A 
ATOM     33  C   UNL     1      -6.978   2.925  -5.238  0.00  0.00    +0.023 A 
ATOM     34 BR   UNL     1      -9.862   0.380  -7.868  0.00  0.00    -0.050 Br
ENDBRANCH  23  33
ENDBRANCH  22  25
ENDBRANCH   1  22
TORSDOF 6
