REMARK  Name = ZINC25679045
REMARK  9 active torsions:
REMARK  status: ('A' for Active; 'I' for Inactive)
REMARK    1  A    between atoms: C_1  and  C_2
REMARK    2  A    between atoms: C_2  and  C_3
REMARK    3  A    between atoms: C_6  and  C_9
REMARK    4  A    between atoms: C_11  and  C_14
REMARK    5  A    between atoms: C_14  and  N_15
REMARK    6  A    between atoms: N_15  and  C_16
REMARK    7  A    between atoms: N_15  and  C_17
REMARK    8  A    between atoms: C_17  and  C_18
REMARK    9  A    between atoms: N_20  and  C_21
REMARK                            x       y       z     vdW  Elec       q    Type
REMARK                         _______ _______ _______ _____ _____    ______ ____
ROOT
ATOM      1  N   UNL     1       0.909   4.014  -1.364  0.00  0.00    +0.387 N 
ATOM      2  C   UNL     1      -0.396   3.622  -1.914  0.00  0.00    -0.095 C 
ATOM      3  H   UNL     1       1.690   3.551  -1.984  0.00  0.00    -0.081 HD
ENDROOT
BRANCH   1   4
ATOM      4  C   UNL     1       1.072   3.522   0.010  0.00  0.00    -0.022 C 
BRANCH   4   7
ATOM      5  C   UNL     1       0.033  -0.007   0.007  0.00  0.00    +0.108 A 
ATOM      6  N   UNL     1       0.014   1.318   0.015  0.00  0.00    -0.246 NA
ATOM      7  C   UNL     1       1.125   2.015   0.000  0.00  0.00    +0.033 A 
ATOM      8  C   UNL     1       2.325   1.377  -0.025  0.00  0.00    +0.068 A 
ATOM      9  S   UNL     1       1.791  -0.330  -0.026  0.00  0.00    -0.075 S 
BRANCH   5  13
ATOM     10  C   UNL     1      -3.211  -2.750   0.050  0.00  0.00    -0.048 A 
ATOM     11  C   UNL     1      -1.910  -3.222   0.023  0.00  0.00    +0.004 A 
ATOM     12  C   UNL     1      -0.852  -2.336   0.009  0.00  0.00    +0.011 A 
ATOM     13  C   UNL     1      -1.096  -0.962   0.021  0.00  0.00    +0.007 A 
ATOM     14  C   UNL     1      -2.410  -0.493   0.054  0.00  0.00    +0.011 A 
ATOM     15  C   UNL     1      -3.459  -1.389   0.063  0.00  0.00    +0.004 A 
BRANCH  10  17
ATOM     16  C   UNL     1      -4.724  -4.061   1.513  0.00  0.00    +0.009 C 
ATOM     17  C   UNL     1      -4.361  -3.723   0.066  0.00  0.00    +0.032 C 
ENDBRANCH  10  17
ENDBRANCH   5  13
ENDBRANCH   4   7
ENDBRANCH   1   4
BRANCH   1  18
ATOM     18  C   UNL     1       1.089   5.471  -1.426  0.00  0.00    +0.019 C 
BRANCH  18  19
ATOM     19  C   UNL     1       1.161   5.908  -2.866  0.00  0.00    +0.201 C 
ATOM     20  O   UNL     1       1.070   5.087  -3.754  0.00  0.00    -0.278 OA
ATOM     21  N   UNL     1       1.325   7.211  -3.168  0.00  0.00    -0.286 N 
ATOM     22  H   UNL     1       1.316   7.966  -2.368  0.00  0.00    +0.155 HD
BRANCH  21  23
ATOM     23  C   UNL     1       1.507   7.604  -4.499  0.00  0.00    +0.047 A 
ATOM     24  C   UNL     1       2.025   6.708  -5.424  0.00  0.00    +0.024 A 
ATOM     25  C   UNL     1       2.200   7.097  -6.738  0.00  0.00    +0.002 A 
ATOM     26  C   UNL     1       1.868   8.381  -7.130  0.00  0.00    +0.001 A 
ATOM     27  C   UNL     1       1.356   9.278  -6.211  0.00  0.00    +0.017 A 
ATOM     28  C   UNL     1       1.175   8.893  -4.896  0.00  0.00    +0.039 A 
ATOM     29 BR   UNL     1       0.476  10.121  -3.639  0.00  0.00    -0.048 Br
ENDBRANCH  21  23
ENDBRANCH  18  19
ENDBRANCH   1  18
TORSDOF 7
