REMARK  Name = ZINC23830687
REMARK  14 active torsions:
REMARK  status: ('A' for Active; 'I' for Inactive)
REMARK    1  A    between atoms: C_1  and  C_2
REMARK    2  A    between atoms: C_4  and  C_34
REMARK    3  A    between atoms: C_5  and  N_9
REMARK    4  A    between atoms: C_6  and  C_8
REMARK    5  A    between atoms: C_10  and  C_12
REMARK    6  A    between atoms: C_12  and  N_13
REMARK    7  A    between atoms: N_13  and  C_14
REMARK    8  A    between atoms: N_13  and  C_15
REMARK    9  A    between atoms: C_15  and  C_16
REMARK   10  A    between atoms: N_18  and  C_19
REMARK   11  A    between atoms: C_20  and  C_30
REMARK   12  A    between atoms: C_25  and  C_29
REMARK   13  A    between atoms: C_30  and  O_32
REMARK   14  A    between atoms: O_32  and  C_33
REMARK                            x       y       z     vdW  Elec       q    Type
REMARK                         _______ _______ _______ _____ _____    ______ ____
ROOT
ATOM      1  C   UNL     1       4.413  -2.150  -2.869  0.00  0.00    +0.019 C 
ENDROOT
BRANCH   1   2
ATOM      2  C   UNL     1       2.936  -2.374  -3.067  0.00  0.00    +0.201 C 
ATOM      3  O   UNL     1       2.538  -3.423  -3.527  0.00  0.00    -0.278 OA
ATOM      4  N   UNL     1       2.058  -1.408  -2.734  0.00  0.00    -0.281 N 
ATOM      5  H   UNL     1       2.419  -0.456  -2.317  0.00  0.00    +0.155 HD
BRANCH   4   6
ATOM      6  C   UNL     1       0.699  -1.613  -2.916  0.00  0.00    +0.086 A 
ATOM      7  C   UNL     1      -0.350  -0.748  -2.635  0.00  0.00    +0.091 A 
ATOM      8  C   UNL     1      -1.697  -1.209  -2.929  0.00  0.00    -0.021 A 
ATOM      9  C   UNL     1      -1.779  -2.454  -3.445  0.00  0.00    -0.004 A 
ATOM     10  S   UNL     1      -0.103  -3.014  -3.546  0.00  0.00    -0.077 S 
ATOM     11  C   UNL     1      -3.024  -3.187  -3.841  0.00  0.00    +0.046 C 
ATOM     12  C   UNL     1      -4.229  -2.461  -3.226  0.00  0.00    -0.009 C 
ATOM     13  C   UNL     1      -4.098  -0.961  -3.508  0.00  0.00    +0.008 C 
ATOM     14  C   UNL     1      -2.949  -0.376  -2.685  0.00  0.00    +0.037 C 
ATOM     15  C   UNL     1      -5.521  -2.992  -3.851  0.00  0.00    +0.008 C 
BRANCH   7  16
ATOM     16  C   UNL     1      -0.108   0.582  -2.071  0.00  0.00    +0.342 C 
ATOM     17  O   UNL     1      -0.083   0.735  -0.865  0.00  0.00    -0.245 OA
BRANCH  16  18
ATOM     18  O   UNL     1       0.087   1.636  -2.890  0.00  0.00    -0.464 OA
ATOM     19  C   UNL     1       0.321   2.924  -2.261  0.00  0.00    +0.280 C 
ENDBRANCH  16  18
ENDBRANCH   7  16
ENDBRANCH   4   6
ENDBRANCH   1   2
BRANCH   1  20
ATOM     20  N   UNL     1       5.152  -3.343  -3.306  0.00  0.00    +0.389 N 
ATOM     21  C   UNL     1       4.854  -4.493  -2.442  0.00  0.00    -0.095 C 
ATOM     22  H   UNL     1       4.821  -3.591  -4.325  0.00  0.00    -0.081 HD
BRANCH  20  23
ATOM     23  C   UNL     1       6.596  -3.080  -3.352  0.00  0.00    +0.019 C 
BRANCH  23  25
ATOM     24  N   UNL     1       8.633  -4.207  -4.188  0.00  0.00    -0.287 N 
ATOM     25  C   UNL     1       7.295  -4.229  -4.032  0.00  0.00    +0.201 C 
ATOM     26  O   UNL     1       6.653  -5.175  -4.437  0.00  0.00    -0.278 OA
ATOM     27  H   UNL     1       9.207  -3.316  -3.893  0.00  0.00    +0.155 HD
BRANCH  24  32
ATOM     28  C   UNL     1      11.308  -8.708  -6.372  0.00  0.00    +0.044 C 
ATOM     29  C   UNL     1      10.598  -7.512  -5.792  0.00  0.00    -0.050 A 
ATOM     30  C   UNL     1       9.733  -7.674  -4.725  0.00  0.00    +0.008 A 
ATOM     31  C   UNL     1       9.080  -6.580  -4.191  0.00  0.00    -0.029 A 
ATOM     32  C   UNL     1       9.293  -5.317  -4.727  0.00  0.00    +0.039 A 
ATOM     33  C   UNL     1      10.159  -5.158  -5.801  0.00  0.00    -0.029 A 
ATOM     34  C   UNL     1      10.812  -6.255  -6.327  0.00  0.00    +0.008 A 
ATOM     35  C   UNL     1      10.389  -3.790  -6.389  0.00  0.00    +0.045 C 
ATOM     36  C   UNL     1       8.137  -6.758  -3.029  0.00  0.00    +0.045 C 
ENDBRANCH  24  32
ENDBRANCH  23  25
ENDBRANCH  20  23
ENDBRANCH   1  20
TORSDOF 8
