REMARK  Name = ZINC25714634
REMARK  9 active torsions:
REMARK  status: ('A' for Active; 'I' for Inactive)
REMARK    1  A    between atoms: C_1  and  C_2
REMARK    2  A    between atoms: C_5  and  S_9
REMARK    3  A    between atoms: C_6  and  C_8
REMARK    4  A    between atoms: S_9  and  N_12
REMARK    5  A    between atoms: N_15  and  C_18
REMARK    6  A    between atoms: C_18  and  C_19
REMARK    7  A    between atoms: N_21  and  C_22
REMARK    8  A    between atoms: C_22  and  C_24
REMARK    9  A    between atoms: C_22  and  C_30
REMARK                            x       y       z     vdW  Elec       q    Type
REMARK                         _______ _______ _______ _____ _____    ______ ____
ROOT
ATOM      1  N   UNL     1      -0.872   3.042   1.182  0.00  0.00    -0.180 NA
ATOM      2  C   UNL     1      -0.731   1.581   1.268  0.00  0.00    +0.091 C 
ATOM      3  C   UNL     1      -0.013   1.086   0.008  0.00  0.00    -0.061 C 
ATOM      4  N   UNL     1      -0.724   1.573  -1.181  0.00  0.00    +0.387 N 
ATOM      5  C   UNL     1      -0.705   3.040  -1.250  0.00  0.00    -0.061 C 
ATOM      6  C   UNL     1      -1.452   3.615  -0.042  0.00  0.00    +0.091 C 
ATOM      7  H   UNL     1      -1.774   1.256  -1.096  0.00  0.00    -0.081 HD
ENDROOT
BRANCH   1   8
ATOM      8  S   UNL     1      -0.390   4.017   2.431  0.00  0.00    +0.061 S 
ATOM      9  O   UNL     1       0.587   3.288   3.162  0.00  0.00    -0.153 OA
ATOM     10  O   UNL     1      -0.125   5.295   1.870  0.00  0.00    -0.153 OA
BRANCH   8  15
ATOM     11  C   UNL     1      -5.134   4.696   6.097  0.00  0.00    +0.044 C 
ATOM     12  C   UNL     1      -3.949   4.526   5.181  0.00  0.00    -0.050 A 
ATOM     13  C   UNL     1      -2.818   3.868   5.629  0.00  0.00    +0.005 A 
ATOM     14  C   UNL     1      -1.732   3.712   4.789  0.00  0.00    +0.029 A 
ATOM     15  C   UNL     1      -1.776   4.215   3.502  0.00  0.00    +0.108 A 
ATOM     16  C   UNL     1      -2.904   4.878   3.056  0.00  0.00    -0.024 A 
ATOM     17  C   UNL     1      -3.993   5.029   3.895  0.00  0.00    +0.008 A 
ATOM     18  C   UNL     1      -2.949   5.431   1.655  0.00  0.00    +0.046 C 
ENDBRANCH   8  15
ENDBRANCH   1   8
BRANCH   4  19
ATOM     19  C   UNL     1      -0.170   0.981  -2.406  0.00  0.00    +0.019 C 
BRANCH  19  20
ATOM     20  C   UNL     1      -1.068   1.304  -3.572  0.00  0.00    +0.197 C 
ATOM     21  O   UNL     1      -2.071   1.963  -3.400  0.00  0.00    -0.278 OA
ATOM     22  N   UNL     1      -0.756   0.862  -4.806  0.00  0.00    -0.306 N 
ATOM     23  H   UNL     1       0.154   0.264  -4.962  0.00  0.00    +0.150 HD
BRANCH  22  24
ATOM     24  C   UNL     1      -1.629   1.176  -5.939  0.00  0.00    +0.140 C 
BRANCH  24  25
ATOM     25  C   UNL     1      -0.829   1.138  -7.216  0.00  0.00    -0.022 A 
ATOM     26  C   UNL     1       0.130   0.160  -7.402  0.00  0.00    +0.006 A 
ATOM     27  C   UNL     1       0.861   0.123  -8.574  0.00  0.00    +0.000 A 
ATOM     28  C   UNL     1       0.639   1.069  -9.557  0.00  0.00    +0.000 A 
ATOM     29  C   UNL     1      -0.316   2.051  -9.369  0.00  0.00    +0.000 A 
ATOM     30  C   UNL     1      -1.050   2.085  -8.198  0.00  0.00    +0.006 A 
ENDBRANCH  24  25
BRANCH  24  31
ATOM     31  C   UNL     1      -2.741   0.162  -6.013  0.00  0.00    +0.014 A 
ATOM     32  C   UNL     1      -4.052   0.351  -6.301  0.00  0.00    +0.013 A 
ATOM     33  C   UNL     1      -4.901  -0.740  -6.313  0.00  0.00    +0.008 A 
ATOM     34  C   UNL     1      -4.397  -1.967  -6.036  0.00  0.00    +0.045 A 
ATOM     35  S   UNL     1      -2.672  -1.603  -5.752  0.00  0.00    -0.099 S 
ENDBRANCH  24  31
ENDBRANCH  22  24
ENDBRANCH  19  20
ENDBRANCH   4  19
TORSDOF 7
