REMARK  Name = ZINC16068885
REMARK  9 active torsions:
REMARK  status: ('A' for Active; 'I' for Inactive)
REMARK    1  A    between atoms: C_1  and  N_2
REMARK    2  A    between atoms: N_2  and  C_3
REMARK    3  A    between atoms: N_2  and  S_4
REMARK    4  A    between atoms: S_4  and  C_7
REMARK    5  A    between atoms: C_10  and  C_13
REMARK    6  A    between atoms: C_13  and  O_15
REMARK    7  A    between atoms: O_15  and  C_16
REMARK    8  A    between atoms: C_16  and  C_17
REMARK    9  A    between atoms: C_19  and  C_22
REMARK                            x       y       z     vdW  Elec       q    Type
REMARK                         _______ _______ _______ _____ _____    ______ ____
ROOT
ATOM      1  C   UNL     1       0.870   8.784   1.585  0.00  0.00    +0.340 C 
ATOM      2  O   UNL     1       0.663   9.502   0.627  0.00  0.00    -0.245 OA
ENDROOT
BRANCH   1   6
ATOM      3  C   UNL     1       0.470  10.328   5.521  0.00  0.00    +0.105 A 
ATOM      4  C   UNL     1       0.233  11.148   4.432  0.00  0.00    +0.029 A 
ATOM      5  C   UNL     1       0.362  10.654   3.151  0.00  0.00    +0.017 A 
ATOM      6  C   UNL     1       0.731   9.321   2.954  0.00  0.00    +0.059 A 
ATOM      7  C   UNL     1       0.962   8.498   4.057  0.00  0.00    +0.017 A 
ATOM      8  C   UNL     1       0.836   9.007   5.333  0.00  0.00    +0.029 A 
BRANCH   3   9
ATOM      9  S   UNL     1       0.304  10.969   7.154  0.00  0.00    +0.060 S 
ATOM     10  O   UNL     1       1.109  10.152   7.994  0.00  0.00    -0.153 OA
ATOM     11  O   UNL     1       0.483  12.375   7.059  0.00  0.00    -0.153 OA
BRANCH   9  13
ATOM     12  C   UNL     1      -1.643   9.482   8.301  0.00  0.00    +0.131 C 
ATOM     13  N   UNL     1      -1.267  10.723   7.619  0.00  0.00    -0.183 NA
ATOM     14  C   UNL     1      -2.280  11.746   7.348  0.00  0.00    +0.131 C 
ENDBRANCH   9  13
ENDBRANCH   3   9
ENDBRANCH   1   6
BRANCH   1  15
ATOM     15  O   UNL     1       1.226   7.499   1.399  0.00  0.00    -0.451 OA
BRANCH  15  16
ATOM     16  C   UNL     1       1.344   7.039   0.026  0.00  0.00    +0.331 C 
BRANCH  16  17
ATOM     17  C   UNL     1       1.748   5.588   0.015  0.00  0.00    +0.265 A 
ATOM     18  N   UNL     1       0.941   4.556   0.017  0.00  0.00    -0.188 NA
ATOM     19  C   UNL     1       1.743   3.467   0.004  0.00  0.00    +0.203 A 
ATOM     20  N   UNL     1       2.979   3.898  -0.001  0.00  0.00    -0.056 NA
ATOM     21  O   UNL     1       2.996   5.111   0.001  0.00  0.00    -0.334 OA
BRANCH  19  22
ATOM     22  C   UNL     1       1.305   2.051   0.001  0.00  0.00    +0.029 A 
ATOM     23  C   UNL     1       2.237   1.015  -0.014  0.00  0.00    +0.019 A 
ATOM     24  C   UNL     1       1.768  -0.253  -0.016  0.00  0.00    +0.046 A 
ATOM     25  S   UNL     1       0.002  -0.004   0.002  0.00  0.00    -0.104 S 
ATOM     26  C   UNL     1      -0.021   1.729   0.011  0.00  0.00    +0.057 A 
ENDBRANCH  19  22
ENDBRANCH  16  17
ENDBRANCH  15  16
ENDBRANCH   1  15
TORSDOF 7
