REMARK  Name = ZINC04178854
REMARK  3 active torsions:
REMARK  status: ('A' for Active; 'I' for Inactive)
REMARK    1  A    between atoms: C_3  and  N_9
REMARK    2  A    between atoms: C_10  and  C_12
REMARK    3  A    between atoms: C_17  and  C_28
REMARK                            x       y       z     vdW  Elec       q    Type
REMARK                         _______ _______ _______ _____ _____    ______ ____
ROOT
ATOM      1  C   UNL     1       4.842   4.177  -0.221  0.00  0.00    +0.149 A 
ATOM      2  C   UNL     1       4.951   5.582  -0.328  0.00  0.00    +0.078 A 
ATOM      3  C   UNL     1       6.261   5.882  -0.426  0.00  0.00    +0.119 A 
ATOM      4  N   UNL     1       6.970   4.715  -0.382  0.00  0.00    -0.238 N 
ATOM      5  N   UNL     1       6.060   3.666  -0.249  0.00  0.00    -0.164 NA
ATOM      6  C   UNL     1       8.431   4.648  -0.459  0.00  0.00    +0.217 C 
ATOM      7  C   UNL     1       9.014   6.023  -0.107  0.00  0.00    +0.043 C 
ATOM      8  C   UNL     1      10.509   6.026  -0.433  0.00  0.00    +0.008 C 
ATOM      9  C   UNL     1      11.107   7.391  -0.092  0.00  0.00    +0.000 C 
ATOM     10  C   UNL     1      10.408   8.472  -0.918  0.00  0.00    +0.002 C 
ATOM     11  C   UNL     1       8.915   8.476  -0.587  0.00  0.00    +0.022 C 
ATOM     12  C   UNL     1       8.308   7.111  -0.923  0.00  0.00    +0.077 C 
ATOM     13  N   UNL     1       6.880   7.128  -0.553  0.00  0.00    -0.326 N 
ATOM     14  H   UNL     1       6.399   7.957  -0.406  0.00  0.00    +0.148 HD
ENDROOT
BRANCH   1  16
ATOM     15  N   UNL     1       3.619   2.069   0.006  0.00  0.00    -0.278 N 
ATOM     16  C   UNL     1       3.584   3.413  -0.094  0.00  0.00    +0.268 C 
ATOM     17  O   UNL     1       2.517   3.996  -0.080  0.00  0.00    -0.268 OA
ATOM     18  H   UNL     1       4.471   1.610   0.077  0.00  0.00    +0.155 HD
BRANCH  15  21
ATOM     19  C   UNL     1       0.111   1.136  -0.588  0.00  0.00    +0.040 A 
ATOM     20  C   UNL     1       1.287   1.861  -0.588  0.00  0.00    +0.029 A 
ATOM     21  C   UNL     1       2.426   1.336   0.006  0.00  0.00    +0.069 A 
ATOM     22  C   UNL     1       2.380   0.080   0.601  0.00  0.00    +0.147 A 
ATOM     23  C   UNL     1       1.201  -0.642   0.600  0.00  0.00    +0.078 A 
ATOM     24  C   UNL     1       0.067  -0.115   0.005  0.00  0.00    +0.126 A 
ATOM     25  F   UNL     1      -1.085  -0.821   0.005  0.00  0.00    -0.205 F 
ATOM     26  F   UNL     1       3.487  -0.435   1.181  0.00  0.00    -0.203 F 
ENDBRANCH  15  21
ENDBRANCH   1  16
BRANCH   6  27
ATOM     27  C   UNL     1       8.852   4.259  -1.877  0.00  0.00    +0.412 C 
ATOM     28  F   UNL     1       8.498   5.281  -2.765  0.00  0.00    -0.168 F 
ATOM     29  F   UNL     1      10.237   4.067  -1.917  0.00  0.00    -0.168 F 
ATOM     30  F   UNL     1       8.206   3.075  -2.248  0.00  0.00    -0.168 F 
ENDBRANCH   6  27
TORSDOF 3
