REMARK  Name = ZINC54979071
REMARK  14 active torsions:
REMARK  status: ('A' for Active; 'I' for Inactive)
REMARK    1  A    between atoms: C_1  and  C_2
REMARK    2  A    between atoms: C_2  and  O_3
REMARK    3  A    between atoms: O_3  and  C_4
REMARK    4  A    between atoms: C_4  and  C_6
REMARK    5  A    between atoms: C_7  and  C_22
REMARK    6  A    between atoms: C_12  and  C_14
REMARK    7  A    between atoms: C_16  and  C_21
REMARK    8  A    between atoms: C_19  and  C_20
REMARK    9  A    between atoms: C_22  and  N_23
REMARK   10  A    between atoms: N_23  and  C_24
REMARK   11  A    between atoms: C_24  and  C_25
REMARK   12  A    between atoms: C_25  and  C_26
REMARK   13  A    between atoms: C_29  and  S_32
REMARK   14  A    between atoms: S_32  and  N_35
REMARK                            x       y       z     vdW  Elec       q    Type
REMARK                         _______ _______ _______ _____ _____    ______ ____
ROOT
ATOM      1  C   UNL     1      -2.711  -2.877  -0.413  0.00  0.00    +0.079 C 
ATOM      2  C   UNL     1      -2.948  -4.203  -0.317  0.00  0.00    +0.038 C 
ATOM      3  N   UNL     1      -4.197  -4.676  -0.032  0.00  0.00    -0.271 N 
ATOM      4  C   UNL     1      -5.262  -3.890   0.169  0.00  0.00    +0.304 C 
ATOM      5  O   UNL     1      -6.335  -4.404   0.417  0.00  0.00    -0.252 OA
ATOM      6  N   UNL     1      -5.182  -2.546   0.106  0.00  0.00    -0.288 N 
ATOM      7  C   UNL     1      -3.876  -1.934  -0.190  0.00  0.00    +0.144 C 
ATOM      8  H   UNL     1      -4.320  -5.637   0.028  0.00  0.00    +0.156 HD
ATOM      9  H   UNL     1      -5.966  -1.994   0.254  0.00  0.00    +0.151 HD
ENDROOT
BRANCH   7  10
ATOM     10  C   UNL     1      -4.033  -1.088  -1.427  0.00  0.00    -0.019 A 
ATOM     11  C   UNL     1      -4.880  -1.497  -2.441  0.00  0.00    +0.009 A 
ATOM     12  C   UNL     1      -5.024  -0.722  -3.575  0.00  0.00    -0.050 A 
ATOM     13  C   UNL     1      -4.322   0.463  -3.697  0.00  0.00    +0.003 A 
ATOM     14  C   UNL     1      -3.476   0.872  -2.683  0.00  0.00    +0.004 A 
ATOM     15  C   UNL     1      -3.335   0.099  -1.546  0.00  0.00    -0.045 A 
ATOM     16  C   UNL     1      -2.417   0.547  -0.438  0.00  0.00    +0.044 C 
ATOM     17  C   UNL     1      -5.946  -1.168  -4.681  0.00  0.00    +0.044 C 
ENDBRANCH   7  10
BRANCH   1  18
ATOM     18  C   UNL     1      -1.418  -2.385  -0.707  0.00  0.00    +0.339 C 
ATOM     19  O   UNL     1      -0.713  -1.955   0.186  0.00  0.00    -0.245 OA
BRANCH  18  20
ATOM     20  O   UNL     1      -0.966  -2.393  -1.979  0.00  0.00    -0.462 OA
BRANCH  20  22
ATOM     21  C   UNL     1       0.747  -2.140  -3.665  0.00  0.00    +0.048 C 
ATOM     22  C   UNL     1       0.375  -1.949  -2.193  0.00  0.00    +0.229 C 
ENDBRANCH  20  22
ENDBRANCH  18  20
ENDBRANCH   1  18
BRANCH   2  23
ATOM     23  C   UNL     1      -1.817  -5.176  -0.526  0.00  0.00    +0.132 C 
BRANCH  23  24
ATOM     24  N   UNL     1      -1.540  -5.884   0.731  0.00  0.00    -0.310 NA
ATOM     25  H   UNL     1      -1.343  -5.233   1.476  0.00  0.00    +0.122 HD
BRANCH  24  26
ATOM     26  C   UNL     1      -0.440  -6.843   0.564  0.00  0.00    +0.086 C 
BRANCH  26  27
ATOM     27  C   UNL     1      -0.182  -7.559   1.891  0.00  0.00    +0.050 C 
BRANCH  27  28
ATOM     28  C   UNL     1       0.947  -8.543   1.719  0.00  0.00    -0.046 A 
ATOM     29  C   UNL     1       0.678  -9.842   1.330  0.00  0.00    +0.005 A 
ATOM     30  C   UNL     1       1.713 -10.745   1.173  0.00  0.00    +0.029 A 
ATOM     31  C   UNL     1       3.017 -10.348   1.404  0.00  0.00    +0.105 A 
ATOM     32  C   UNL     1       3.286  -9.049   1.793  0.00  0.00    +0.029 A 
ATOM     33  C   UNL     1       2.251  -8.145   1.946  0.00  0.00    +0.005 A 
BRANCH  31  34
ATOM     34  S   UNL     1       4.337 -11.499   1.205  0.00  0.00    +0.056 S 
ATOM     35  O   UNL     1       5.410 -11.030   2.010  0.00  0.00    -0.153 OA
ATOM     36  O   UNL     1       3.774 -12.794   1.365  0.00  0.00    -0.153 OA
BRANCH  34  37
ATOM     37  N   UNL     1       4.844 -11.395  -0.368  0.00  0.00    -0.204 NA
ATOM     38  H   UNL     1       4.413 -10.773  -0.976  0.00  0.00    +0.144 HD
ATOM     39  H   UNL     1       5.571 -11.955  -0.681  0.00  0.00    +0.144 HD
ENDBRANCH  34  37
ENDBRANCH  31  34
ENDBRANCH  27  28
ENDBRANCH  26  27
ENDBRANCH  24  26
ENDBRANCH  23  24
ENDBRANCH   2  23
TORSDOF 11
