REMARK  Name = ZINC00502609
REMARK  4 active torsions:
REMARK  status: ('A' for Active; 'I' for Inactive)
REMARK    1  A    between atoms: C_3  and  C_6
REMARK    2  A    between atoms: C_16  and  N_21
REMARK    3  A    between atoms: C_17  and  C_18
REMARK    4  A    between atoms: C_18  and  N_20
REMARK                            x       y       z     vdW  Elec       q    Type
REMARK                         _______ _______ _______ _____ _____    ______ ____
ROOT
ATOM      1  C   UNL     1       2.495   1.697   0.085  0.00  0.00    +0.099 C 
ATOM      2  C   UNL     1       3.589   2.644   0.510  0.00  0.00    +0.045 C 
ATOM      3  C   UNL     1       3.424   3.975   0.403  0.00  0.00    +0.115 C 
ATOM      4  C   UNL     1       4.509   4.924   0.855  0.00  0.00    +0.075 C 
ATOM      5  C   UNL     1       5.879   4.272   0.654  0.00  0.00    +0.016 C 
ATOM      6  C   UNL     1       5.920   2.970   1.460  0.00  0.00    +0.080 C 
ATOM      7  C   UNL     1       4.777   2.092   1.026  0.00  0.00    +0.163 C 
ATOM      8  O   UNL     1       4.883   0.886   1.121  0.00  0.00    -0.292 OA
ATOM      9  O   UNL     1       2.293   4.503  -0.102  0.00  0.00    -0.446 OA
ATOM     10  C   UNL     1       1.161   3.783  -0.097  0.00  0.00    +0.190 C 
ATOM     11  C   UNL     1       1.185   2.429  -0.014  0.00  0.00    +0.050 C 
ENDROOT
BRANCH   1  14
ATOM     12  C   UNL     1       3.353  -0.497  -2.909  0.00  0.00    +0.008 A 
ATOM     13  C   UNL     1       3.043  -0.187  -1.597  0.00  0.00    +0.012 A 
ATOM     14  C   UNL     1       2.842   1.110  -1.259  0.00  0.00    +0.002 A 
ATOM     15  S   UNL     1       3.103   1.943  -2.816  0.00  0.00    -0.101 S 
ATOM     16  C   UNL     1       3.456   0.506  -3.814  0.00  0.00    +0.045 A 
ENDBRANCH   1  14
BRANCH  10  17
ATOM     17  N   UNL     1      -0.046   4.429  -0.177  0.00  0.00    -0.329 N 
ATOM     18  H   UNL     1      -0.872   3.927  -0.092  0.00  0.00    +0.145 HD
ATOM     19  H   UNL     1      -0.074   5.388  -0.319  0.00  0.00    +0.145 HD
ENDBRANCH  10  17
BRANCH  11  20
ATOM     20  C   UNL     1      -0.020   1.707  -0.015  0.00  0.00    +0.079 C 
ATOM     21  S   UNL     1      -0.734   1.231   1.467  0.00  0.00    -0.035 S 
BRANCH  20  22
ATOM     22  N   UNL     1      -0.612   1.384  -1.182  0.00  0.00    -0.352 N 
ATOM     23  H   UNL     1      -1.478   0.948  -1.183  0.00  0.00    +0.143 HD
ATOM     24  H   UNL     1      -0.171   1.588  -2.022  0.00  0.00    +0.143 HD
ENDBRANCH  20  22
ENDBRANCH  11  20
TORSDOF 4
