REMARK  Name = ZINC11963680
REMARK  10 active torsions:
REMARK  status: ('A' for Active; 'I' for Inactive)
REMARK    1  A    between atoms: C_1  and  C_2
REMARK    2  A    between atoms: C_3  and  C_4
REMARK    3  A    between atoms: C_4  and  N_5
REMARK    4  A    between atoms: C_8  and  C_12
REMARK    5  A    between atoms: C_8  and  C_21
REMARK    6  A    between atoms: C_12  and  C_13
REMARK    7  A    between atoms: C_13  and  C_14
REMARK    8  A    between atoms: C_14  and  C_15
REMARK    9  A    between atoms: C_26  and  C_27
REMARK   10  A    between atoms: C_26  and  N_71
REMARK                            x       y       z     vdW  Elec       q    Type
REMARK                         _______ _______ _______ _____ _____    ______ ____
ROOT
ATOM      1  N   UNL     1      -1.683   3.238  -6.529  0.00  0.00    -0.212 N 
ATOM      2  C   UNL     1      -1.958   1.967  -6.174  0.00  0.00    +0.248 C 
ATOM      3  O   UNL     1      -1.623   0.956  -6.752  0.00  0.00    -0.273 OA
ATOM      4  C   UNL     1      -2.774   2.066  -4.900  0.00  0.00    +0.115 C 
ATOM      5  N   UNL     1      -2.872   3.517  -4.663  0.00  0.00    -0.285 N 
ATOM      6  C   UNL     1      -2.206   4.116  -5.666  0.00  0.00    +0.310 C 
ATOM      7  O   UNL     1      -2.091   5.321  -5.776  0.00  0.00    -0.252 OA
ATOM      8  H   UNL     1      -3.329   3.954  -3.928  0.00  0.00    +0.151 HD
ENDROOT
BRANCH   4   9
ATOM      9  C   UNL     1      -2.047   1.380  -3.741  0.00  0.00    +0.018 C 
ATOM     10  C   UNL     1      -0.641   1.970  -3.598  0.00  0.00    -0.013 C 
ATOM     11  C   UNL     1       0.058   1.323  -2.400  0.00  0.00    -0.078 C 
ATOM     12  C   UNL     1      -2.061   0.974  -1.278  0.00  0.00    -0.078 C 
ATOM     13  C   UNL     1      -2.824   1.611  -2.442  0.00  0.00    -0.013 C 
ATOM     14  N   UNL     1      -0.726   1.602  -1.178  0.00  0.00    +0.382 N 
ATOM     15  H   UNL     1      -0.842   2.618  -1.082  0.00  0.00    -0.081 HD
BRANCH  14  16
ATOM     16  C   UNL     1      -0.013   1.086   0.008  0.00  0.00    -0.043 C 
BRANCH  16  17
ATOM     17  C   UNL     1      -0.718   1.572   1.248  0.00  0.00    -0.063 A 
ATOM     18  C   UNL     1      -0.362   2.779   1.821  0.00  0.00    +0.005 A 
ATOM     19  C   UNL     1      -1.005   3.229   2.955  0.00  0.00    +0.046 A 
ATOM     20  C   UNL     1      -2.012   2.465   3.540  0.00  0.00    +0.124 A 
ATOM     21  C   UNL     1      -2.362   1.255   2.955  0.00  0.00    -0.002 A 
ATOM     22  C   UNL     1      -1.721   0.809   1.820  0.00  0.00    +0.009 A 
ATOM     23  C   UNL     1      -3.481   0.665   3.790  0.00  0.00    +0.080 C 
ATOM     24  C   UNL     1      -3.935   1.886   4.625  0.00  0.00    +0.234 C 
ATOM     25  O   UNL     1      -2.756   2.707   4.654  0.00  0.00    -0.491 OA
ENDBRANCH  16  17
ENDBRANCH  14  16
ENDBRANCH   4   9
BRANCH   1  26
ATOM     26  C   UNL     1      -0.907   3.611  -7.715  0.00  0.00    +0.206 C 
BRANCH  26  29
ATOM     27  C   UNL     1       3.084   3.840  -6.725  0.00  0.00    +0.106 C 
ATOM     28  C   UNL     1       1.658   3.758  -7.079  0.00  0.00    -0.104 C 
ATOM     29  C   UNL     1       0.520   3.693  -7.361  0.00  0.00    -0.083 C 
ENDBRANCH  26  29
ENDBRANCH   1  26
BRANCH   4  30
ATOM     30  C   UNL     1      -4.163   1.457  -5.098  0.00  0.00    +0.036 C 
BRANCH  30  31
ATOM     31  C   UNL     1      -4.867   2.160  -6.260  0.00  0.00    +0.007 C 
BRANCH  31  32
ATOM     32  C   UNL     1      -6.257   1.551  -6.458  0.00  0.00    +0.035 C 
BRANCH  32  33
ATOM     33  C   UNL     1      -6.950   2.243  -7.603  0.00  0.00    -0.047 A 
ATOM     34  C   UNL     1      -7.732   3.358  -7.365  0.00  0.00    +0.003 A 
ATOM     35  C   UNL     1      -8.364   3.996  -8.416  0.00  0.00    +0.000 A 
ATOM     36  C   UNL     1      -8.223   3.513  -9.703  0.00  0.00    +0.000 A 
ATOM     37  C   UNL     1      -7.446   2.395  -9.940  0.00  0.00    +0.000 A 
ATOM     38  C   UNL     1      -6.809   1.760  -8.890  0.00  0.00    +0.003 A 
ENDBRANCH  32  33
ENDBRANCH  31  32
ENDBRANCH  30  31
ENDBRANCH   4  30
TORSDOF 9
