REMARK  Name = ZINC14887766
REMARK  5 active torsions:
REMARK  status: ('A' for Active; 'I' for Inactive)
REMARK    1  A    between atoms: C_1  and  C_2
REMARK    2  A    between atoms: C_2  and  N_3
REMARK    3  A    between atoms: C_12  and  C_14
REMARK    4  A    between atoms: N_16  and  N_17
REMARK    5  A    between atoms: C_18  and  C_20
REMARK                            x       y       z     vdW  Elec       q    Type
REMARK                         _______ _______ _______ _____ _____    ______ ____
ROOT
ATOM      1  C   UNL     1      -1.187   1.624   0.017  0.00  0.00    +0.281 C 
ATOM      2  O   UNL     1      -1.204   2.840   0.023  0.00  0.00    -0.267 OA
ATOM      3  N   UNL     1      -0.011   0.966   0.007  0.00  0.00    -0.229 N 
ATOM      4  H   UNL     1       0.002  -0.004   0.002  0.00  0.00    +0.173 HD
ENDROOT
BRANCH   1  14
ATOM      5  N   UNL     1      -3.499  -1.170   0.013  0.00  0.00    -0.229 N 
ATOM      6  C   UNL     1      -4.752  -0.668   0.022  0.00  0.00    +0.275 A 
ATOM      7  O   UNL     1      -5.719  -1.407   0.022  0.00  0.00    -0.266 OA
ATOM      8  C   UNL     1      -4.921   0.792   0.031  0.00  0.00    +0.050 A 
ATOM      9  C   UNL     1      -6.168   1.408   0.041  0.00  0.00    +0.014 A 
ATOM     10  C   UNL     1      -6.241   2.785   0.049  0.00  0.00    +0.001 A 
ATOM     11  C   UNL     1      -5.087   3.557   0.048  0.00  0.00    +0.001 A 
ATOM     12  C   UNL     1      -3.841   2.965   0.038  0.00  0.00    +0.011 A 
ATOM     13  C   UNL     1      -3.745   1.578   0.035  0.00  0.00    +0.020 A 
ATOM     14  C   UNL     1      -2.456   0.868   0.018  0.00  0.00    +0.155 A 
ATOM     15  N   UNL     1      -2.447  -0.443   0.011  0.00  0.00    -0.163 NA
BRANCH   5  17
ATOM     16  C   UNL     1      -3.287  -3.125  -1.441  0.00  0.00    +0.029 C 
ATOM     17  C   UNL     1      -3.336  -2.626   0.004  0.00  0.00    +0.144 C 
ENDBRANCH   5  17
ENDBRANCH   1  14
BRANCH   3  18
ATOM     18  N   UNL     1       1.193   1.683  -0.000  0.00  0.00    -0.230 N 
ATOM     19  C   UNL     1       2.369   1.025  -0.015  0.00  0.00    +0.267 C 
ATOM     20  O   UNL     1       2.385  -0.192  -0.022  0.00  0.00    -0.268 OA
ATOM     21  H   UNL     1       1.179   2.653   0.005  0.00  0.00    +0.173 HD
BRANCH  19  22
ATOM     22  C   UNL     1       3.628   1.775  -0.023  0.00  0.00    +0.076 A 
ATOM     23  C   UNL     1       4.926   1.299  -0.038  0.00  0.00    +0.024 A 
ATOM     24  C   UNL     1       5.961   2.221  -0.044  0.00  0.00    -0.036 A 
ATOM     25  C   UNL     1       5.609   3.541  -0.034  0.00  0.00    -0.006 A 
ATOM     26  S   UNL     1       3.886   3.541  -0.024  0.00  0.00    -0.088 S 
ATOM     27  C   UNL     1       6.530   4.721  -0.036  0.00  0.00    +0.043 C 
ATOM     28  C   UNL     1       7.942   4.234   0.323  0.00  0.00    +0.005 C 
ATOM     29  C   UNL     1       8.269   3.003  -0.526  0.00  0.00    +0.005 C 
ATOM     30  C   UNL     1       7.431   1.811  -0.061  0.00  0.00    +0.036 C 
ENDBRANCH  19  22
ENDBRANCH   3  18
TORSDOF 4
