REMARK  Name = ZINC38984497
REMARK  6 active torsions:
REMARK  status: ('A' for Active; 'I' for Inactive)
REMARK    1  A    between atoms: C_1  and  O_2
REMARK    2  A    between atoms: O_2  and  C_3
REMARK    3  A    between atoms: C_6  and  S_9
REMARK    4  A    between atoms: S_9  and  N_12
REMARK    5  A    between atoms: C_14  and  N_24
REMARK    6  A    between atoms: N_24  and  C_25
REMARK                            x       y       z     vdW  Elec       q    Type
REMARK                         _______ _______ _______ _____ _____    ______ ____
ROOT
ATOM      1  N   UNL     1       1.308  -3.092   5.297  0.00  0.00    -0.110 NA
ATOM      2  C   UNL     1       1.768  -3.458   6.457  0.00  0.00    +0.192 C 
ATOM      3  C   UNL     1       0.841  -3.585   7.644  0.00  0.00    +0.237 C 
ATOM      4  N   UNL     1       1.423  -4.004   8.929  0.00  0.00    -0.359 N 
ATOM      5  C   UNL     1       2.703  -4.245   8.982  0.00  0.00    +0.063 A 
ATOM      6  C   UNL     1       3.334  -4.667  10.242  0.00  0.00    +0.027 A 
ATOM      7  C   UNL     1       4.663  -4.908  10.258  0.00  0.00    +0.002 A 
ATOM      8  C   UNL     1       5.454  -4.766   9.105  0.00  0.00    +0.002 A 
ATOM      9  C   UNL     1       4.946  -4.383   7.914  0.00  0.00    +0.030 A 
ATOM     10  C   UNL     1       3.562  -4.104   7.781  0.00  0.00    +0.089 A 
ATOM     11  N   UNL     1       3.072  -3.735   6.616  0.00  0.00    -0.226 NA
ATOM     12  H   UNL     1       0.867  -4.098   9.718  0.00  0.00    +0.162 HD
ENDROOT
BRANCH   1  13
ATOM     13  S   UNL     1       2.333  -2.964   4.002  0.00  0.00    +0.100 S 
ATOM     14  O   UNL     1       2.788  -4.279   3.714  0.00  0.00    -0.146 OA
ATOM     15  O   UNL     1       3.223  -1.896   4.294  0.00  0.00    -0.146 OA
BRANCH  13  19
ATOM     16  C   UNL     1      -0.151  -1.647   0.452  0.00  0.00    +0.120 A 
ATOM     17  C   UNL     1       0.440  -0.700   1.276  0.00  0.00    +0.047 A 
ATOM     18  C   UNL     1       1.197  -1.105   2.359  0.00  0.00    +0.032 A 
ATOM     19  C   UNL     1       1.366  -2.452   2.621  0.00  0.00    +0.113 A 
ATOM     20  C   UNL     1       0.779  -3.397   1.801  0.00  0.00    +0.032 A 
ATOM     21  C   UNL     1       0.016  -2.998   0.721  0.00  0.00    +0.047 A 
BRANCH  16  23
ATOM     22  C   UNL     1      -1.025   0.155  -0.829  0.00  0.00    +0.277 C 
ATOM     23  O   UNL     1      -0.896  -1.252  -0.613  0.00  0.00    -0.495 OA
ENDBRANCH  16  23
ENDBRANCH  13  19
ENDBRANCH   1  13
BRANCH   3  24
ATOM     24  N   UNL     1      -0.207  -4.547   7.294  0.00  0.00    -0.318 N 
ATOM     25  H   UNL     1       0.025  -5.372   6.839  0.00  0.00    +0.148 HD
BRANCH  24  26
ATOM     26  C   UNL     1      -1.539  -4.277   7.614  0.00  0.00    +0.030 A 
ATOM     27  C   UNL     1      -1.857  -3.173   8.396  0.00  0.00    +0.023 A 
ATOM     28  C   UNL     1      -3.175  -2.909   8.711  0.00  0.00    +0.003 A 
ATOM     29  C   UNL     1      -4.179  -3.742   8.251  0.00  0.00    +0.015 A 
ATOM     30  C   UNL     1      -3.866  -4.842   7.473  0.00  0.00    +0.020 A 
ATOM     31  C   UNL     1      -2.549  -5.109   7.149  0.00  0.00    +0.038 A 
ATOM     32 BR   UNL     1      -5.242  -5.978   6.846  0.00  0.00    -0.050 Br
ENDBRANCH  24  26
ENDBRANCH   3  24
TORSDOF 5
