REMARK  Name = ZINC32622388
REMARK  7 active torsions:
REMARK  status: ('A' for Active; 'I' for Inactive)
REMARK    1  A    between atoms: C_1  and  C_2
REMARK    2  A    between atoms: C_5  and  C_8
REMARK    3  A    between atoms: C_8  and  C_10
REMARK    4  A    between atoms: C_8  and  N_26
REMARK    5  A    between atoms: C_10  and  N_11
REMARK    6  A    between atoms: C_12  and  C_14
REMARK    7  A    between atoms: C_16  and  C_19
REMARK                            x       y       z     vdW  Elec       q    Type
REMARK                         _______ _______ _______ _____ _____    ______ ____
ROOT
ATOM      1  N   UNL     1      -2.923   3.283   1.463  0.00  0.00    -0.311 N 
ATOM      2  C   UNL     1      -3.443   3.713   2.630  0.00  0.00    +0.266 C 
ATOM      3  O   UNL     1      -2.905   3.422   3.679  0.00  0.00    -0.268 OA
ATOM      4  H   UNL     1      -3.410   3.546   0.513  0.00  0.00    +0.149 HD
ENDROOT
BRANCH   2   5
ATOM      5  C   UNL     1      -4.674   4.541   2.632  0.00  0.00    +0.168 A 
ATOM      6  C   UNL     1      -5.346   5.064   3.768  0.00  0.00    +0.086 A 
ATOM      7  C   UNL     1      -6.404   5.746   3.236  0.00  0.00    +0.168 A 
ATOM      8  O   UNL     1      -6.319   5.598   1.902  0.00  0.00    -0.354 OA
ATOM      9  N   UNL     1      -5.361   4.932   1.586  0.00  0.00    -0.073 NA
BRANCH   7  10
ATOM     10  C   UNL     1      -7.441   6.494   3.979  0.00  0.00    +0.020 A 
ATOM     11  C   UNL     1      -7.398   6.553   5.373  0.00  0.00    +0.013 A 
ATOM     12  C   UNL     1      -8.364   7.256   6.061  0.00  0.00    +0.016 A 
ATOM     13  C   UNL     1      -9.382   7.894   5.372  0.00  0.00    +0.018 A 
ATOM     14  C   UNL     1      -9.433   7.834   3.990  0.00  0.00    +0.016 A 
ATOM     15  C   UNL     1      -8.469   7.139   3.291  0.00  0.00    +0.013 A 
ATOM     16 BR   UNL     1     -10.708   8.849   6.323  0.00  0.00    -0.050 Br
ENDBRANCH   7  10
ENDBRANCH   2   5
BRANCH   1  17
ATOM     17  C   UNL     1      -1.708   2.465   1.461  0.00  0.00    +0.094 C 
BRANCH  17  18
ATOM     18  C   UNL     1      -1.332   2.114   0.020  0.00  0.00    -0.020 C 
BRANCH  18  23
ATOM     19  C   UNL     1       3.703  -0.721  -0.011  0.00  0.00    +0.044 C 
ATOM     20  C   UNL     1       2.391   0.019  -0.004  0.00  0.00    -0.050 A 
ATOM     21  C   UNL     1       2.189   1.060   0.883  0.00  0.00    +0.003 A 
ATOM     22  C   UNL     1       0.985   1.739   0.889  0.00  0.00    +0.002 A 
ATOM     23  C   UNL     1      -0.017   1.377   0.009  0.00  0.00    -0.059 A 
ATOM     24  C   UNL     1       0.185   0.337  -0.879  0.00  0.00    +0.002 A 
ATOM     25  C   UNL     1       1.389  -0.343  -0.884  0.00  0.00    +0.003 A 
ENDBRANCH  18  23
BRANCH  18  26
ATOM     26  N   UNL     1      -1.209   3.347  -0.768  0.00  0.00    +0.385 N 
ATOM     27  C   UNL     1      -0.044   4.152  -0.319  0.00  0.00    -0.078 C 
ATOM     28  C   UNL     1       0.239   5.073  -1.533  0.00  0.00    -0.020 C 
ATOM     29  C   UNL     1      -0.042   4.149  -2.740  0.00  0.00    -0.020 C 
ATOM     30  C   UNL     1      -0.963   3.043  -2.195  0.00  0.00    -0.078 C 
ATOM     31  H   UNL     1      -2.158   3.887  -0.629  0.00  0.00    -0.081 HD
ENDBRANCH  18  26
ENDBRANCH  17  18
ENDBRANCH   1  17
TORSDOF 6
