REMARK  Name = ZINC02272268
REMARK  10 active torsions:
REMARK  status: ('A' for Active; 'I' for Inactive)
REMARK    1  A    between atoms: C_1  and  C_2
REMARK    2  A    between atoms: C_2  and  C_3
REMARK    3  A    between atoms: C_3  and  C_4
REMARK    4  A    between atoms: C_4  and  C_5
REMARK    5  A    between atoms: C_5  and  C_6
REMARK    6  A    between atoms: C_15  and  C_17
REMARK    7  A    between atoms: C_15  and  C_18
REMARK    8  A    between atoms: N_21  and  N_22
REMARK    9  A    between atoms: C_23  and  C_25
REMARK   10  A    between atoms: C_28  and  N_31
REMARK                            x       y       z     vdW  Elec       q    Type
REMARK                         _______ _______ _______ _____ _____    ______ ____
ROOT
ATOM      1  C   UNL     1       1.476  -4.028  -2.532  0.00  0.00    +0.132 A 
ATOM      2  N   UNL     1       0.920  -4.682  -1.548  0.00  0.00    -0.225 NA
ATOM      3  C   UNL     1       0.921  -6.012  -1.524  0.00  0.00    +0.116 A 
ATOM      4  C   UNL     1       1.512  -6.775  -2.545  0.00  0.00    +0.077 A 
ATOM      5  C   UNL     1       1.435  -8.223  -2.383  0.00  0.00    -0.018 A 
ATOM      6  C   UNL     1       0.809  -8.686  -1.278  0.00  0.00    +0.021 A 
ATOM      7  S   UNL     1       0.293  -7.237  -0.402  0.00  0.00    -0.071 S 
ATOM      8  C   UNL     1       0.612 -10.124  -0.908  0.00  0.00    +0.203 C 
ATOM      9  O   UNL     1       0.913 -10.922  -2.063  0.00  0.00    -0.368 OA
ATOM     10  C   UNL     1       2.148 -10.572  -2.693  0.00  0.00    +0.068 C 
ATOM     11  C   UNL     1       2.021  -9.213  -3.386  0.00  0.00    +0.071 C 
ATOM     12  C   UNL     1       3.253 -10.501  -1.636  0.00  0.00    +0.041 C 
ATOM     13  C   UNL     1       2.510 -11.639  -3.728  0.00  0.00    +0.041 C 
ATOM     14  C   UNL     1       2.112  -6.025  -3.610  0.00  0.00    +0.280 A 
ATOM     15  O   UNL     1       2.650  -6.597  -4.542  0.00  0.00    -0.265 OA
ATOM     16  N   UNL     1       2.066  -4.681  -3.566  0.00  0.00    -0.209 N 
ENDROOT
BRANCH  16  17
ATOM     17  N   UNL     1       2.645  -3.940  -4.605  0.00  0.00    -0.215 N 
ATOM     18  C   UNL     1       3.985  -3.830  -4.688  0.00  0.00    +0.262 C 
ATOM     19  O   UNL     1       4.692  -4.373  -3.862  0.00  0.00    -0.268 OA
ATOM     20  H   UNL     1       2.080  -3.507  -5.264  0.00  0.00    +0.176 HD
BRANCH  18  21
ATOM     21  C   UNL     1       4.596  -3.048  -5.785  0.00  0.00    +0.038 A 
ATOM     22  C   UNL     1       3.786  -2.419  -6.732  0.00  0.00    +0.015 A 
ATOM     23  C   UNL     1       4.362  -1.691  -7.752  0.00  0.00    +0.033 A 
ATOM     24  C   UNL     1       5.739  -1.584  -7.838  0.00  0.00    +0.126 A 
ATOM     25  C   UNL     1       6.547  -2.206  -6.903  0.00  0.00    +0.033 A 
ATOM     26  C   UNL     1       5.984  -2.932  -5.874  0.00  0.00    +0.015 A 
BRANCH  24  27
ATOM     27  N   UNL     1       6.351  -0.802  -8.936  0.00  0.00    +0.056 N 
ATOM     28  O   UNL     1       5.647  -0.258  -9.755  0.00  0.00    -0.126 OA
ATOM     29  O   UNL     1       7.553  -0.707  -9.014  0.00  0.00    -0.126 OA
ENDBRANCH  24  27
ENDBRANCH  18  21
ENDBRANCH  16  17
BRANCH   1  30
ATOM     30  C   UNL     1       1.455  -2.521  -2.524  0.00  0.00    +0.076 C 
BRANCH  30  31
ATOM     31  C   UNL     1       0.739  -2.027  -1.265  0.00  0.00    +0.008 C 
BRANCH  31  32
ATOM     32  C   UNL     1       0.718  -0.497  -1.257  0.00  0.00    +0.000 C 
BRANCH  32  34
ATOM     33  C   UNL     1      -0.019   1.526   0.010  0.00  0.00    +0.004 C 
ATOM     34  C   UNL     1       0.002  -0.004   0.002  0.00  0.00    -0.003 C 
ENDBRANCH  32  34
ENDBRANCH  31  32
ENDBRANCH  30  31
ENDBRANCH   1  30
TORSDOF 7
