REMARK  Name = ZINC02247725
REMARK  4 active torsions:
REMARK  status: ('A' for Active; 'I' for Inactive)
REMARK    1  A    between atoms: C_1  and  S_2
REMARK    2  A    between atoms: S_2  and  C_3
REMARK    3  A    between atoms: C_6  and  C_29
REMARK    4  A    between atoms: C_17  and  C_19
REMARK                            x       y       z     vdW  Elec       q    Type
REMARK                         _______ _______ _______ _____ _____    ______ ____
ROOT
ATOM      1  C   UNL     1      -1.449  -2.274   0.062  0.00  0.00    +0.210 A 
ATOM      2  N   UNL     1      -2.272  -3.288   0.221  0.00  0.00    -0.141 NA
ATOM      3  N   UNL     1      -3.566  -2.770   0.157  0.00  0.00    -0.220 N 
ATOM      4  C   UNL     1      -4.850  -3.454   0.261  0.00  0.00    +0.172 C 
ATOM      5  C   UNL     1      -5.960  -2.450   0.453  0.00  0.00    +0.025 C 
ATOM      6  C   UNL     1      -5.779  -1.142   0.259  0.00  0.00    +0.050 C 
ATOM      7  C   UNL     1      -6.928  -0.231   0.480  0.00  0.00    +0.038 A 
ATOM      8  C   UNL     1      -6.932   1.067  -0.015  0.00  0.00    +0.013 A 
ATOM      9  C   UNL     1      -8.024   1.881   0.219  0.00  0.00    +0.001 A 
ATOM     10  C   UNL     1      -9.106   1.408   0.940  0.00  0.00    +0.004 A 
ATOM     11  C   UNL     1      -9.111   0.117   1.435  0.00  0.00    +0.046 A 
ATOM     12  C   UNL     1      -8.025  -0.709   1.209  0.00  0.00    +0.131 A 
ATOM     13  O   UNL     1      -7.992  -1.984   1.674  0.00  0.00    -0.479 OA
ATOM     14  C   UNL     1      -7.324  -2.953   0.866  0.00  0.00    +0.235 C 
ATOM     15  N   UNL     1      -4.547  -0.609  -0.134  0.00  0.00    -0.283 N 
ATOM     16  C   UNL     1      -3.437  -1.434  -0.037  0.00  0.00    +0.220 A 
ATOM     17  N   UNL     1      -2.165  -1.150  -0.090  0.00  0.00    -0.187 NA
ATOM     18  H   UNL     1      -4.472   0.301  -0.461  0.00  0.00    +0.155 HD
ENDROOT
BRANCH  14  19
ATOM     19  C   UNL     1      -8.148  -3.225  -0.366  0.00  0.00    +0.015 A 
ATOM     20  C   UNL     1      -8.667  -2.173  -1.097  0.00  0.00    +0.009 A 
ATOM     21  C   UNL     1      -9.422  -2.423  -2.228  0.00  0.00    +0.000 A 
ATOM     22  C   UNL     1      -9.659  -3.725  -2.627  0.00  0.00    +0.001 A 
ATOM     23  C   UNL     1      -9.141  -4.778  -1.897  0.00  0.00    +0.020 A 
ATOM     24  C   UNL     1      -8.380  -4.528  -0.769  0.00  0.00    +0.048 A 
ATOM     25 CL   UNL     1      -7.722  -5.849   0.145  0.00  0.00    -0.083 Cl
ENDBRANCH  14  19
BRANCH   4  26
ATOM     26  C   UNL     1      -5.102  -4.238  -1.000  0.00  0.00    -0.019 A 
ATOM     27  C   UNL     1      -5.270  -3.578  -2.203  0.00  0.00    +0.009 A 
ATOM     28  C   UNL     1      -5.501  -4.296  -3.361  0.00  0.00    +0.039 A 
ATOM     29  C   UNL     1      -5.564  -5.679  -3.315  0.00  0.00    +0.123 A 
ATOM     30  C   UNL     1      -5.396  -6.339  -2.110  0.00  0.00    +0.039 A 
ATOM     31  C   UNL     1      -5.160  -5.619  -0.955  0.00  0.00    +0.009 A 
ATOM     32  F   UNL     1      -5.790  -6.382  -4.446  0.00  0.00    -0.205 F 
ENDBRANCH   4  26
BRANCH   1  34
ATOM     33  C   UNL     1       0.848  -0.662  -0.193  0.00  0.00    +0.093 C 
ATOM     34  S   UNL     1       0.310  -2.376   0.057  0.00  0.00    -0.088 S 
ENDBRANCH   1  34
TORSDOF 3
