REMARK  Name = ZINC13075765
REMARK  10 active torsions:
REMARK  status: ('A' for Active; 'I' for Inactive)
REMARK    1  A    between atoms: C_1  and  C_2
REMARK    2  A    between atoms: C_4  and  C_40
REMARK    3  A    between atoms: C_6  and  S_8
REMARK    4  A    between atoms: S_8  and  C_9
REMARK    5  A    between atoms: C_9  and  C_10
REMARK    6  A    between atoms: C_10  and  O_12
REMARK    7  A    between atoms: O_12  and  C_13
REMARK    8  A    between atoms: C_13  and  C_14
REMARK    9  A    between atoms: C_17  and  C_34
REMARK   10  A    between atoms: C_25  and  C_26
REMARK                            x       y       z     vdW  Elec       q    Type
REMARK                         _______ _______ _______ _____ _____    ______ ____
ROOT
ATOM      1  C   UNL     1      -5.236   9.669   1.102  0.00  0.00    +0.273 C 
ATOM      2  O   UNL     1      -6.077   8.799   1.191  0.00  0.00    -0.270 OA
ATOM      3  N   UNL     1      -5.592  10.915   0.729  0.00  0.00    -0.182 N 
ATOM      4  C   UNL     1      -6.961  11.368   0.392  0.00  0.00    +0.140 C 
ATOM      5  C   UNL     1      -6.675  12.612  -0.464  0.00  0.00    +0.066 C 
ATOM      6  C   UNL     1      -7.602  13.780  -0.122  0.00  0.00    +0.012 C 
ATOM      7  C   UNL     1      -7.132  15.007  -0.900  0.00  0.00    +0.005 C 
ATOM      8  C   UNL     1      -5.736  15.461  -0.524  0.00  0.00    +0.037 C 
ATOM      9  C   UNL     1      -4.812  14.351  -0.133  0.00  0.00    -0.024 C 
ATOM     10  C   UNL     1      -3.504  14.615   0.064  0.00  0.00    +0.013 C 
ATOM     11  C   UNL     1      -5.287  13.024   0.013  0.00  0.00    +0.068 C 
ATOM     12  N   UNL     1      -4.735  12.011   0.585  0.00  0.00    -0.181 NA
ENDROOT
BRANCH  10  13
ATOM     13  C   UNL     1      -3.028  16.008   0.071  0.00  0.00    -0.025 A 
ATOM     14  C   UNL     1      -1.837  16.346  -0.579  0.00  0.00    +0.008 A 
ATOM     15  C   UNL     1      -1.401  17.654  -0.572  0.00  0.00    +0.001 A 
ATOM     16  C   UNL     1      -2.131  18.628   0.086  0.00  0.00    +0.000 A 
ATOM     17  C   UNL     1      -3.308  18.300   0.737  0.00  0.00    +0.001 A 
ATOM     18  C   UNL     1      -3.760  16.997   0.734  0.00  0.00    +0.008 A 
ENDBRANCH  10  13
BRANCH   4  19
ATOM     19  C   UNL     1      -7.696  10.321  -0.405  0.00  0.00    -0.024 A 
ATOM     20  C   UNL     1      -7.027   9.590  -1.368  0.00  0.00    +0.005 A 
ATOM     21  C   UNL     1      -7.700   8.626  -2.095  0.00  0.00    +0.000 A 
ATOM     22  C   UNL     1      -9.045   8.401  -1.866  0.00  0.00    +0.000 A 
ATOM     23  C   UNL     1      -9.715   9.137  -0.907  0.00  0.00    +0.000 A 
ATOM     24  C   UNL     1      -9.041  10.097  -0.176  0.00  0.00    +0.005 A 
ENDBRANCH   4  19
BRANCH   1  25
ATOM     25  C   UNL     1      -3.794   9.358   1.408  0.00  0.00    +0.329 C 
BRANCH  25  26
ATOM     26  O   UNL     1      -3.669   7.961   1.783  0.00  0.00    -0.455 OA
BRANCH  26  27
ATOM     27  C   UNL     1      -2.439   7.519   2.090  0.00  0.00    +0.318 C 
ATOM     28  O   UNL     1      -1.498   8.275   2.046  0.00  0.00    -0.250 OA
BRANCH  27  29
ATOM     29  C   UNL     1      -2.232   6.081   2.488  0.00  0.00    +0.197 C 
BRANCH  29  30
ATOM     30  S   UNL     1      -0.479   5.797   2.837  0.00  0.00    -0.075 S 
BRANCH  30  36
ATOM     31  C   UNL     1       1.888   1.503   4.301  0.00  0.00    +0.066 C 
ATOM     32  C   UNL     1       0.603   2.193   3.924  0.00  0.00    +0.043 A 
ATOM     33  C   UNL     1      -0.594   1.492   3.914  0.00  0.00    +0.046 A 
ATOM     34  C   UNL     1      -1.752   2.163   3.554  0.00  0.00    +0.043 A 
ATOM     35  N   UNL     1      -1.684   3.447   3.244  0.00  0.00    -0.227 NA
ATOM     36  C   UNL     1      -0.524   4.089   3.264  0.00  0.00    +0.189 A 
ATOM     37  N   UNL     1       0.602   3.475   3.598  0.00  0.00    -0.227 NA
ATOM     38  C   UNL     1      -3.074   1.440   3.523  0.00  0.00    +0.066 C 
ENDBRANCH  30  36
ENDBRANCH  29  30
ENDBRANCH  27  29
ENDBRANCH  26  27
ENDBRANCH  25  26
ENDBRANCH   1  25
TORSDOF 8
