REMARK  Name = ZINC32095078
REMARK  5 active torsions:
REMARK  status: ('A' for Active; 'I' for Inactive)
REMARK    1  A    between atoms: C_1  and  C_2
REMARK    2  A    between atoms: C_6  and  C_30
REMARK    3  A    between atoms: C_7  and  N_8
REMARK    4  A    between atoms: C_9  and  C_10
REMARK    5  A    between atoms: C_23  and  C_24
REMARK                            x       y       z     vdW  Elec       q    Type
REMARK                         _______ _______ _______ _____ _____    ______ ____
ROOT
ATOM      1  C   UNL     1      -1.345   9.370  -2.445  0.00  0.00    +0.013 C 
ATOM      2  C   UNL     1      -0.936  10.130  -1.181  0.00  0.00    -0.011 C 
ATOM      3  C   UNL     1       0.600  10.347  -1.146  0.00  0.00    -0.066 C 
ATOM      4  N   UNL     1       0.945  11.106   0.066  0.00  0.00    +0.394 N 
ATOM      5  C   UNL     1       0.605  10.339   1.274  0.00  0.00    -0.066 C 
ATOM      6  C   UNL     1      -0.912  10.117   1.312  0.00  0.00    -0.011 C 
ATOM      7  C   UNL     1      -1.325   9.325   0.065  0.00  0.00    +0.116 C 
ATOM      8  C   UNL     1      -1.623  11.475   1.290  0.00  0.00    +0.089 C 
ATOM      9  N   UNL     1      -1.188  12.207   0.073  0.00  0.00    -0.310 NA
ATOM     10  C   UNL     1      -1.613  11.489  -1.138  0.00  0.00    +0.089 C 
ATOM     11  C   UNL     1       0.268  12.411   0.070  0.00  0.00    +0.033 C 
ATOM     12  C   UNL     1      -1.297   9.344   2.575  0.00  0.00    +0.013 C 
ATOM     13  H   UNL     1       2.031  11.281   0.066  0.00  0.00    -0.079 HD
ENDROOT
BRANCH  11  14
ATOM     14  C   UNL     1       0.664  13.186  -1.159  0.00  0.00    -0.047 A 
ATOM     15  C   UNL     1       1.912  12.997  -1.724  0.00  0.00    +0.003 A 
ATOM     16  C   UNL     1       2.273  13.705  -2.855  0.00  0.00    +0.000 A 
ATOM     17  C   UNL     1       1.391  14.610  -3.415  0.00  0.00    +0.000 A 
ATOM     18  C   UNL     1       0.145  14.803  -2.847  0.00  0.00    +0.000 A 
ATOM     19  C   UNL     1      -0.218  14.091  -1.720  0.00  0.00    +0.003 A 
ENDBRANCH  11  14
BRANCH   7  20
ATOM     20  N   UNL     1      -0.634   8.033   0.051  0.00  0.00    -0.287 NA
ATOM     21  C   UNL     1      -1.316   6.934   0.052  0.00  0.00    +0.113 C 
BRANCH  21  22
ATOM     22  C   UNL     1      -0.621   5.633   0.038  0.00  0.00    -0.007 A 
ATOM     23  C   UNL     1       0.781   5.589   0.025  0.00  0.00    +0.011 A 
ATOM     24  C   UNL     1       1.438   4.394   0.012  0.00  0.00    +0.027 A 
ATOM     25  C   UNL     1       0.722   3.199   0.012  0.00  0.00    +0.046 A 
ATOM     26  C   UNL     1      -0.686   3.230   0.026  0.00  0.00    +0.000 A 
ATOM     27  C   UNL     1      -1.356   4.452   0.038  0.00  0.00    +0.019 A 
ATOM     28  C   UNL     1      -1.122   1.831   0.017  0.00  0.00    +0.027 A 
ATOM     29  C   UNL     1      -0.013   1.076   0.008  0.00  0.00    +0.083 A 
ATOM     30  N   UNL     1       1.097   1.876   0.002  0.00  0.00    -0.361 N 
ATOM     31  H   UNL     1       2.164   1.607  -0.010  0.00  0.00    +0.165 HD
ENDBRANCH  21  22
ENDBRANCH   7  20
TORSDOF 3
