REMARK  Name = ZINC39920808
REMARK  4 active torsions:
REMARK  status: ('A' for Active; 'I' for Inactive)
REMARK    1  A    between atoms: C_1  and  C_2
REMARK    2  A    between atoms: C_7  and  N_8
REMARK    3  A    between atoms: N_8  and  C_9
REMARK    4  A    between atoms: C_10  and  C_23
REMARK                            x       y       z     vdW  Elec       q    Type
REMARK                         _______ _______ _______ _____ _____    ______ ____
ROOT
ATOM      1  C   UNL     1      -0.059  -0.716   3.610  0.00  0.00    +0.200 A 
ATOM      2  C   UNL     1      -0.169  -0.149   4.854  0.00  0.00    +0.059 A 
ATOM      3  C   UNL     1      -0.224  -1.263   5.784  0.00  0.00    +0.115 A 
ATOM      4  C   UNL     1      -0.137  -2.428   4.997  0.00  0.00    +0.155 A 
ATOM      5  O   UNL     1      -0.051  -2.060   3.728  0.00  0.00    -0.440 OA
ATOM      6  C   UNL     1      -0.162  -3.724   5.685  0.00  0.00    +0.060 A 
ATOM      7  C   UNL     1       0.119  -4.920   5.031  0.00  0.00    +0.015 A 
ATOM      8  C   UNL     1       0.095  -6.104   5.737  0.00  0.00    +0.001 A 
ATOM      9  C   UNL     1      -0.207  -6.100   7.090  0.00  0.00    +0.004 A 
ATOM     10  C   UNL     1      -0.493  -4.922   7.748  0.00  0.00    +0.047 A 
ATOM     11  C   UNL     1      -0.482  -3.716   7.059  0.00  0.00    +0.143 A 
ATOM     12  O   UNL     1      -0.802  -2.567   7.703  0.00  0.00    -0.422 OA
ATOM     13  C   UNL     1      -0.342  -1.376   7.237  0.00  0.00    +0.349 A 
ATOM     14  O   UNL     1      -0.047  -0.461   7.983  0.00  0.00    -0.244 OA
ENDROOT
BRANCH   2  15
ATOM     15  C   UNL     1      -0.220   1.295   5.181  0.00  0.00    +0.006 A 
ATOM     16  C   UNL     1      -1.448   1.955   5.245  0.00  0.00    +0.011 A 
ATOM     17  C   UNL     1      -1.490   3.299   5.550  0.00  0.00    +0.021 A 
ATOM     18  C   UNL     1      -0.317   3.995   5.792  0.00  0.00    +0.042 A 
ATOM     19  C   UNL     1       0.904   3.346   5.729  0.00  0.00    +0.040 A 
ATOM     20  C   UNL     1       0.959   1.999   5.431  0.00  0.00    +0.050 A 
ATOM     21 CL   UNL     1       2.490   1.185   5.361  0.00  0.00    -0.083 Cl
ATOM     22 CL   UNL     1      -0.379   5.687   6.174  0.00  0.00    -0.083 Cl
ENDBRANCH   2  15
BRANCH   1  23
ATOM     23  N   UNL     1       0.025  -0.016   2.416  0.00  0.00    -0.285 N 
ATOM     24  H   UNL     1       0.112   0.950   2.425  0.00  0.00    +0.155 HD
BRANCH  23  31
ATOM     25  C   UNL     1       0.566   1.441   0.033  0.00  0.00    +0.045 C 
ATOM     26  C   UNL     1       0.242  -0.031   0.012  0.00  0.00    -0.029 A 
ATOM     27  C   UNL     1       0.207  -0.714  -1.188  0.00  0.00    +0.005 A 
ATOM     28  C   UNL     1      -0.090  -2.064  -1.208  0.00  0.00    +0.000 A 
ATOM     29  C   UNL     1      -0.353  -2.735  -0.028  0.00  0.00    +0.002 A 
ATOM     30  C   UNL     1      -0.319  -2.059   1.175  0.00  0.00    +0.023 A 
ATOM     31  C   UNL     1      -0.016  -0.703   1.200  0.00  0.00    +0.036 A 
ENDBRANCH  23  31
ENDBRANCH   1  23
TORSDOF 3
