REMARK  Name = ZINC06077654
REMARK  12 active torsions:
REMARK  status: ('A' for Active; 'I' for Inactive)
REMARK    1  A    between atoms: C_1  and  C_2
REMARK    2  A    between atoms: C_2  and  C_3
REMARK    3  A    between atoms: C_3  and  C_4
REMARK    4  A    between atoms: C_3  and  C_5
REMARK    5  A    between atoms: C_3  and  N_6
REMARK    6  A    between atoms: C_7  and  C_11
REMARK    7  A    between atoms: C_11  and  C_13
REMARK    8  A    between atoms: C_11  and  N_74
REMARK    9  A    between atoms: C_16  and  C_26
REMARK   10  A    between atoms: C_19  and  C_25
REMARK   11  A    between atoms: N_29  and  C_32
REMARK   12  A    between atoms: C_37  and  C_38
REMARK                            x       y       z     vdW  Elec       q    Type
REMARK                         _______ _______ _______ _____ _____    ______ ____
ROOT
ATOM      1  C   UNL     1       3.390   0.515  -0.552  0.00  0.00    +0.039 C 
ENDROOT
BRANCH   1   2
ATOM      2  C   UNL     1       3.600   0.247  -2.019  0.00  0.00    +0.011 A 
ATOM      3  C   UNL     1       2.545   0.277  -2.870  0.00  0.00    +0.018 A 
ATOM      4  C   UNL     1       2.784   0.017  -4.291  0.00  0.00    +0.002 A 
ATOM      5  C   UNL     1       1.735   0.038  -5.217  0.00  0.00    -0.041 A 
ATOM      6  C   UNL     1       1.991  -0.213  -6.535  0.00  0.00    +0.004 A 
ATOM      7  C   UNL     1       3.281  -0.491  -6.964  0.00  0.00    +0.005 A 
ATOM      8  C   UNL     1       4.329  -0.519  -6.069  0.00  0.00    -0.026 A 
ATOM      9  C   UNL     1       4.093  -0.265  -4.722  0.00  0.00    +0.052 A 
ATOM     10  N   UNL     1       5.123  -0.286  -3.805  0.00  0.00    -0.322 N 
ATOM     11  H   UNL     1       6.053  -0.486  -4.113  0.00  0.00    +0.169 HD
ATOM     12  C   UNL     1       4.895  -0.041  -2.503  0.00  0.00    +0.251 A 
ATOM     13  O   UNL     1       5.829  -0.068  -1.721  0.00  0.00    -0.268 OA
ATOM     14  C   UNL     1       5.725  -0.823  -6.549  0.00  0.00    +0.046 C 
ATOM     15  C   UNL     1       0.330   0.338  -4.762  0.00  0.00    +0.044 C 
ENDBRANCH   1   2
BRANCH   1  21
ATOM     16  C   UNL     1       3.287  -1.873  -0.163  0.00  0.00    -0.058 C 
ATOM     17  C   UNL     1       3.922  -3.026   0.618  0.00  0.00    +0.086 C 
ATOM     18  N   UNL     1       3.760  -2.786   2.059  0.00  0.00    -0.333 N 
ATOM     19  C   UNL     1       4.394  -1.521   2.454  0.00  0.00    +0.086 C 
ATOM     20  C   UNL     1       3.758  -0.368   1.673  0.00  0.00    -0.058 C 
ATOM     21  N   UNL     1       3.949  -0.611   0.227  0.00  0.00    +0.391 N 
ATOM     22  H   UNL     1       4.953  -0.686   0.031  0.00  0.00    -0.080 HD
BRANCH  18  23
ATOM     23  C   UNL     1       4.265  -3.854   2.804  0.00  0.00    +0.034 A 
ATOM     24  C   UNL     1       5.602  -4.213   2.687  0.00  0.00    +0.043 A 
ATOM     25  C   UNL     1       6.099  -5.268   3.429  0.00  0.00    +0.043 A 
ATOM     26  C   UNL     1       5.264  -5.971   4.281  0.00  0.00    +0.020 A 
ATOM     27  C   UNL     1       3.933  -5.618   4.395  0.00  0.00    +0.006 A 
ATOM     28  C   UNL     1       3.431  -4.562   3.660  0.00  0.00    -0.029 A 
ATOM     29  C   UNL     1       1.979  -4.178   3.785  0.00  0.00    +0.045 C 
ATOM     30 CL   UNL     1       7.771  -5.715   3.288  0.00  0.00    -0.083 Cl
ENDBRANCH  18  23
ENDBRANCH   1  21
BRANCH   1  32
ATOM     31  N   UNL     1       1.275   1.802   0.063  0.00  0.00    -0.225 N 
ATOM     32  C   UNL     1       1.916   0.667  -0.275  0.00  0.00    +0.143 A 
ATOM     33  N   UNL     1       1.010  -0.279  -0.318  0.00  0.00    -0.115 NA
ATOM     34  N   UNL     1      -0.129   0.247  -0.022  0.00  0.00    -0.023 NA
ATOM     35  N   UNL     1       0.028   1.504   0.209  0.00  0.00    -0.043 NA
BRANCH  31  36
ATOM     36  C   UNL     1       1.880   3.125   0.233  0.00  0.00    +0.061 C 
ATOM     37  C   UNL     1       2.893   3.080   1.379  0.00  0.00    +0.036 C 
ATOM     38  C   UNL     1       2.590   3.531  -1.060  0.00  0.00    +0.036 C 
BRANCH  36  40
ATOM     39  C   UNL     1       1.419   5.529   0.736  0.00  0.00    +0.006 C 
ATOM     40  C   UNL     1       0.788   4.146   0.558  0.00  0.00    +0.026 C 
ENDBRANCH  36  40
ENDBRANCH  31  36
ENDBRANCH   1  32
TORSDOF 6
