REMARK  Name = ZINC40345661
REMARK  14 active torsions:
REMARK  status: ('A' for Active; 'I' for Inactive)
REMARK    1  A    between atoms: C_1  and  C_2
REMARK    2  A    between atoms: C_2  and  C_3
REMARK    3  A    between atoms: C_2  and  C_4
REMARK    4  A    between atoms: C_4  and  C_5
REMARK    5  A    between atoms: C_5  and  O_6
REMARK    6  A    between atoms: O_6  and  C_7
REMARK    7  A    between atoms: C_10  and  C_13
REMARK    8  A    between atoms: C_16  and  C_33
REMARK    9  A    between atoms: N_23  and  C_24
REMARK   10  A    between atoms: C_24  and  C_25
REMARK   11  A    between atoms: C_28  and  O_31
REMARK   12  A    between atoms: O_31  and  C_32
REMARK   13  A    between atoms: C_36  and  O_39
REMARK   14  A    between atoms: O_39  and  C_40
REMARK                            x       y       z     vdW  Elec       q    Type
REMARK                         _______ _______ _______ _____ _____    ______ ____
ROOT
ATOM      1  C   UNL     1      -1.698   0.491   8.658  0.00  0.00    +0.142 C 
ATOM      2  C   UNL     1      -1.015   1.663   9.306  0.00  0.00    +0.035 A 
ATOM      3  C   UNL     1      -0.681   3.020   9.238  0.00  0.00    +0.099 A 
ATOM      4  N   UNL     1       0.006   3.313  10.324  0.00  0.00    -0.173 NA
ATOM      5  N   UNL     1       0.139   2.276  11.072  0.00  0.00    -0.272 N 
ATOM      6  H   UNL     1       0.607   2.258  11.921  0.00  0.00    +0.189 HD
ATOM      7  C   UNL     1      -0.478   1.203  10.494  0.00  0.00    +0.126 A 
ATOM      8  C   UNL     1      -0.795  -0.223  10.627  0.00  0.00    +0.266 C 
ATOM      9  O   UNL     1      -0.463  -0.923  11.565  0.00  0.00    -0.268 OA
ATOM     10  N   UNL     1      -1.505  -0.648   9.565  0.00  0.00    -0.281 N 
ENDROOT
BRANCH   1  14
ATOM     11  C   UNL     1       0.083  -0.335   4.862  0.00  0.00    +0.121 A 
ATOM     12  C   UNL     1      -1.116   0.359   4.931  0.00  0.00    +0.046 A 
ATOM     13  C   UNL     1      -1.690   0.625   6.159  0.00  0.00    +0.009 A 
ATOM     14  C   UNL     1      -1.070   0.200   7.319  0.00  0.00    -0.022 A 
ATOM     15  C   UNL     1       0.125  -0.492   7.254  0.00  0.00    +0.009 A 
ATOM     16  C   UNL     1       0.700  -0.765   6.028  0.00  0.00    +0.046 A 
BRANCH  11  17
ATOM     17  O   UNL     1       0.650  -0.597   3.655  0.00  0.00    -0.492 OA
BRANCH  17  18
ATOM     18  C   UNL     1      -0.042  -0.124   2.497  0.00  0.00    +0.229 C 
BRANCH  18  19
ATOM     19  C   UNL     1       0.742  -0.511   1.242  0.00  0.00    +0.044 C 
BRANCH  19  21
ATOM     20  C   UNL     1      -0.019   1.526   0.010  0.00  0.00    +0.007 C 
ATOM     21  C   UNL     1       0.002  -0.004   0.002  0.00  0.00    -0.014 C 
ATOM     22  C   UNL     1       0.718  -0.497  -1.257  0.00  0.00    +0.007 C 
ENDBRANCH  19  21
ENDBRANCH  18  19
ENDBRANCH  17  18
ENDBRANCH  11  17
ENDBRANCH   1  14
BRANCH   3  23
ATOM     23  C   UNL     1      -1.035   3.957   8.142  0.00  0.00    +0.003 A 
ATOM     24  C   UNL     1      -1.084   3.504   6.825  0.00  0.00    +0.013 A 
ATOM     25  C   UNL     1      -1.413   4.377   5.809  0.00  0.00    +0.046 A 
ATOM     26  C   UNL     1      -1.695   5.706   6.098  0.00  0.00    +0.120 A 
ATOM     27  C   UNL     1      -1.646   6.159   7.409  0.00  0.00    +0.046 A 
ATOM     28  C   UNL     1      -1.323   5.289   8.429  0.00  0.00    +0.013 A 
BRANCH  26  29
ATOM     29  O   UNL     1      -2.019   6.564   5.095  0.00  0.00    -0.495 OA
ATOM     30  C   UNL     1      -2.297   7.916   5.463  0.00  0.00    +0.277 C 
ENDBRANCH  26  29
ENDBRANCH   3  23
BRANCH  10  31
ATOM     31  C   UNL     1      -2.000  -2.010   9.350  0.00  0.00    +0.144 C 
BRANCH  31  32
ATOM     32  C   UNL     1      -0.963  -2.809   8.604  0.00  0.00    -0.030 A 
ATOM     33  C   UNL     1      -0.971  -2.829   7.221  0.00  0.00    +0.009 A 
ATOM     34  C   UNL     1      -0.022  -3.561   6.534  0.00  0.00    +0.046 A 
ATOM     35  C   UNL     1       0.941  -4.276   7.233  0.00  0.00    +0.120 A 
ATOM     36  C   UNL     1       0.947  -4.253   8.620  0.00  0.00    +0.046 A 
ATOM     37  C   UNL     1      -0.001  -3.515   9.302  0.00  0.00    +0.009 A 
BRANCH  35  38
ATOM     38  O   UNL     1       1.875  -4.997   6.559  0.00  0.00    -0.495 OA
ATOM     39  C   UNL     1       2.835  -5.707   7.343  0.00  0.00    +0.277 C 
ENDBRANCH  35  38
ENDBRANCH  31  32
ENDBRANCH  10  31
TORSDOF 10
