REMARK  Name = ZINC01710180
REMARK  2 active torsions:
REMARK  status: ('A' for Active; 'I' for Inactive)
REMARK    1  A    between atoms: N_14  and  N_15
REMARK    2  A    between atoms: C_16  and  C_17
REMARK                            x       y       z     vdW  Elec       q    Type
REMARK                         _______ _______ _______ _____ _____    ______ ____
ROOT
ATOM      1  C   UNL     1       1.149   1.786   0.559  0.00  0.00    +0.001 A 
ATOM      2  C   UNL     1      -0.041   1.081   0.482  0.00  0.00    +0.001 A 
ATOM      3  C   UNL     1      -1.240   1.750   0.343  0.00  0.00    +0.011 A 
ATOM      4  C   UNL     1      -1.257   3.143   0.290  0.00  0.00    +0.010 A 
ATOM      5  C   UNL     1      -0.048   3.860   0.368  0.00  0.00    -0.008 A 
ATOM      6  C   UNL     1       1.152   3.166   0.503  0.00  0.00    +0.009 A 
ATOM      7  C   UNL     1      -0.351   5.305   0.282  0.00  0.00    -0.008 A 
ATOM      8  C   UNL     1       0.468   6.432   0.308  0.00  0.00    +0.009 A 
ATOM      9  C   UNL     1      -0.089   7.691   0.208  0.00  0.00    +0.001 A 
ATOM     10  C   UNL     1      -1.459   7.847   0.080  0.00  0.00    +0.001 A 
ATOM     11  C   UNL     1      -2.287   6.744   0.051  0.00  0.00    +0.011 A 
ATOM     12  C   UNL     1      -1.743   5.464   0.152  0.00  0.00    +0.010 A 
ATOM     13  C   UNL     1      -2.354   4.120   0.152  0.00  0.00    +0.102 C 
ATOM     14  N   UNL     1      -3.639   3.845   0.049  0.00  0.00    -0.149 NA
ENDROOT
BRANCH  14  15
ATOM     15  N   UNL     1      -4.031   2.619  -0.042  0.00  0.00    -0.156 NA
ATOM     16  C   UNL     1      -5.047   2.197   0.681  0.00  0.00    +0.145 C 
BRANCH  16  17
ATOM     17  C   UNL     1      -5.418   0.832   0.651  0.00  0.00    +0.020 A 
ATOM     18  C   UNL     1      -6.388   0.219   1.420  0.00  0.00    +0.093 A 
ATOM     19  N   UNL     1      -6.450  -1.096   1.105  0.00  0.00    -0.360 N 
ATOM     20  H   UNL     1      -7.057  -1.734   1.512  0.00  0.00    +0.165 HD
ATOM     21  C   UNL     1      -5.531  -1.404   0.121  0.00  0.00    +0.047 A 
ATOM     22  C   UNL     1      -4.850  -0.222  -0.212  0.00  0.00    +0.009 A 
ATOM     23  C   UNL     1      -3.852  -0.241  -1.182  0.00  0.00    +0.026 A 
ATOM     24  C   UNL     1      -3.542  -1.423  -1.821  0.00  0.00    +0.019 A 
ATOM     25  C   UNL     1      -4.218  -2.591  -1.497  0.00  0.00    +0.017 A 
ATOM     26  C   UNL     1      -5.205  -2.586  -0.534  0.00  0.00    +0.027 A 
ATOM     27 BR   UNL     1      -2.192  -1.453  -3.144  0.00  0.00    -0.050 Br
ENDBRANCH  16  17
ENDBRANCH  14  15
TORSDOF 2
