REMARK  Name = ZINC43608122
REMARK  7 active torsions:
REMARK  status: ('A' for Active; 'I' for Inactive)
REMARK    1  A    between atoms: C_1  and  C_2
REMARK    2  A    between atoms: C_2  and  C_36
REMARK    3  A    between atoms: C_7  and  C_11
REMARK    4  A    between atoms: C_11  and  N_12
REMARK    5  A    between atoms: C_15  and  C_18
REMARK    6  A    between atoms: C_15  and  O_35
REMARK    7  A    between atoms: C_25  and  C_27
REMARK                            x       y       z     vdW  Elec       q    Type
REMARK                         _______ _______ _______ _____ _____    ______ ____
ROOT
ATOM      1  N   UNL     1       1.515  -3.133   3.116  0.00  0.00    +0.382 N 
ATOM      2  C   UNL     1       2.042  -4.342   2.472  0.00  0.00    -0.075 C 
ATOM      3  C   UNL     1       3.379  -4.724   3.112  0.00  0.00    +0.021 C 
ATOM      4  C   UNL     1       3.167  -4.990   4.605  0.00  0.00    +0.088 C 
ATOM      5  C   UNL     1       2.548  -3.748   5.252  0.00  0.00    +0.021 C 
ATOM      6  C   UNL     1       1.242  -3.403   4.533  0.00  0.00    -0.075 C 
ATOM      7  H   UNL     1       2.195  -2.391   3.041  0.00  0.00    -0.081 HD
ENDROOT
BRANCH   4   8
ATOM      8  C   UNL     1       4.492  -5.290   5.256  0.00  0.00    -0.015 A 
ATOM      9  C   UNL     1       5.653  -4.718   4.754  0.00  0.00    +0.010 A 
ATOM     10  C   UNL     1       6.875  -4.978   5.334  0.00  0.00    +0.047 A 
ATOM     11  C   UNL     1       6.953  -5.823   6.436  0.00  0.00    +0.136 A 
ATOM     12  C   UNL     1       5.773  -6.401   6.941  0.00  0.00    +0.021 A 
ATOM     13  C   UNL     1       4.543  -6.120   6.341  0.00  0.00    +0.018 A 
ATOM     14  C   UNL     1       6.189  -7.221   8.078  0.00  0.00    +0.063 A 
ATOM     15  C   UNL     1       7.536  -7.081   8.170  0.00  0.00    +0.191 A 
ATOM     16  O   UNL     1       7.976  -6.255   7.197  0.00  0.00    -0.450 OA
BRANCH  15  17
ATOM     17  C   UNL     1       8.387  -7.731   9.177  0.00  0.00    +0.282 C 
ATOM     18  O   UNL     1       7.916  -8.568   9.923  0.00  0.00    -0.267 OA
ATOM     19  N   UNL     1       9.690  -7.399   9.273  0.00  0.00    -0.295 N 
ATOM     20  C   UNL     1      10.235  -6.274   8.502  0.00  0.00    +0.108 C 
ATOM     21  C   UNL     1      10.946  -5.316   9.463  0.00  0.00    +0.019 C 
ATOM     22  C   UNL     1      11.992  -6.090  10.269  0.00  0.00    +0.003 C 
ATOM     23  C   UNL     1      11.299  -7.177  11.094  0.00  0.00    +0.019 C 
ATOM     24  C   UNL     1      10.591  -8.152  10.156  0.00  0.00    +0.108 C 
ENDBRANCH  15  17
ENDBRANCH   4   8
BRANCH   4  25
ATOM     25  O   UNL     1       2.288  -6.104   4.771  0.00  0.00    -0.384 OA
ATOM     26  H   UNL     1       2.109  -6.330   5.694  0.00  0.00    +0.211 HD
ENDBRANCH   4  25
BRANCH   1  27
ATOM     27  C   UNL     1       0.272  -2.727   2.448  0.00  0.00    -0.047 C 
BRANCH  27  33
ATOM     28  C   UNL     1       0.502   1.102  -0.832  0.00  0.00    +0.012 C 
ATOM     29  C   UNL     1       0.301  -0.391  -0.567  0.00  0.00    -0.025 C 
ATOM     30  C   UNL     1       1.254  -1.301  -1.369  0.00  0.00    -0.000 C 
ATOM     31  C   UNL     1       0.748  -2.751  -1.374  0.00  0.00    +0.031 C 
ATOM     32  C   UNL     1       0.445  -3.189   0.038  0.00  0.00    -0.029 C 
ATOM     33  C   UNL     1       0.572  -2.332   1.025  0.00  0.00    -0.086 C 
ATOM     34  C   UNL     1       1.049  -0.910   0.675  0.00  0.00    +0.019 C 
ATOM     35  C   UNL     1       2.279  -1.010  -0.260  0.00  0.00    +0.012 C 
ATOM     36  C   UNL     1      -1.167  -0.818  -0.629  0.00  0.00    +0.012 C 
ENDBRANCH  27  33
ENDBRANCH   1  27
TORSDOF 5
