REMARK  Name = ZINC13565789
REMARK  6 active torsions:
REMARK  status: ('A' for Active; 'I' for Inactive)
REMARK    1  A    between atoms: C_1  and  N_61
REMARK    2  A    between atoms: C_2  and  C_3
REMARK    3  A    between atoms: C_2  and  N_61
REMARK    4  A    between atoms: C_8  and  C_11
REMARK    5  A    between atoms: C_20  and  C_22
REMARK    6  A    between atoms: C_25  and  N_61
REMARK                            x       y       z     vdW  Elec       q    Type
REMARK                         _______ _______ _______ _____ _____    ______ ____
ROOT
ATOM      1  C   UNL     1       0.765   4.225   1.682  0.00  0.00    +0.202 C 
ATOM      2  O   UNL     1      -0.414   4.383   1.449  0.00  0.00    -0.277 OA
ATOM      3  N   UNL     1       1.165   3.848   2.913  0.00  0.00    -0.266 N 
ATOM      4  C   UNL     1       0.225   3.641   3.915  0.00  0.00    +0.165 A 
ATOM      5  N   UNL     1       0.409   3.275   5.170  0.00  0.00    -0.225 NA
ATOM      6  C   UNL     1      -0.613   3.123   5.999  0.00  0.00    +0.080 A 
ATOM      7  C   UNL     1      -1.883   3.350   5.547  0.00  0.00    +0.076 A 
ATOM      8  S   UNL     1      -1.554   3.808   3.850  0.00  0.00    -0.060 S 
ATOM      9  H   UNL     1       2.108   3.721   3.099  0.00  0.00    +0.157 HD
ENDROOT
BRANCH   6  10
ATOM     10  C   UNL     1      -0.381   2.710   7.404  0.00  0.00    +0.001 A 
ATOM     11  C   UNL     1      -1.458   2.556   8.277  0.00  0.00    +0.012 A 
ATOM     12  C   UNL     1      -1.240   2.167   9.579  0.00  0.00    +0.024 A 
ATOM     13  C   UNL     1       0.058   1.934  10.041  0.00  0.00    +0.040 A 
ATOM     14  C   UNL     1       1.126   2.095   9.171  0.00  0.00    -0.024 A 
ATOM     15  C   UNL     1       0.914   2.479   7.863  0.00  0.00    +0.015 A 
ATOM     16  C   UNL     1       2.405   1.784   9.917  0.00  0.00    +0.056 C 
ATOM     17  C   UNL     1       1.946   1.421  11.338  0.00  0.00    +0.118 C 
ATOM     18  N   UNL     1       0.486   1.543  11.314  0.00  0.00    -0.271 N 
ATOM     19  C   UNL     1      -0.326   1.311  12.365  0.00  0.00    +0.223 C 
ATOM     20  O   UNL     1      -1.516   1.529  12.271  0.00  0.00    -0.275 OA
BRANCH  19  21
ATOM     21  C   UNL     1       0.244   0.782  13.655  0.00  0.00    +0.076 C 
ATOM     22  C   UNL     1      -0.564  -0.282  14.401  0.00  0.00    +0.013 C 
ATOM     23  C   UNL     1      -0.485   1.145  14.951  0.00  0.00    +0.013 C 
ENDBRANCH  19  21
ENDBRANCH   6  10
BRANCH   1  24
ATOM     24  C   UNL     1       1.784   4.449   0.595  0.00  0.00    +0.019 C 
BRANCH  24  26
ATOM     25  C   UNL     1       0.270   3.756  -1.163  0.00  0.00    -0.095 C 
ATOM     26  N   UNL     1       1.083   4.872  -0.636  0.00  0.00    +0.385 N 
ATOM     27  H   UNL     1       0.464   5.660  -0.413  0.00  0.00    -0.081 HD
BRANCH  26  28
ATOM     28  C   UNL     1       2.065   5.306  -1.653  0.00  0.00    -0.068 C 
ATOM     29  C   UNL     1       2.843   6.506  -1.111  0.00  0.00    -0.015 C 
ATOM     30  C   UNL     1       3.847   6.981  -2.163  0.00  0.00    -0.002 C 
ATOM     31  C   UNL     1       3.099   7.389  -3.434  0.00  0.00    -0.000 C 
ATOM     32  C   UNL     1       2.321   6.188  -3.976  0.00  0.00    -0.002 C 
ATOM     33  C   UNL     1       1.317   5.714  -2.924  0.00  0.00    -0.015 C 
ENDBRANCH  26  28
ENDBRANCH  24  26
ENDBRANCH   1  24
TORSDOF 5
