REMARK  Name = ZINC10209044
REMARK  11 active torsions:
REMARK  status: ('A' for Active; 'I' for Inactive)
REMARK    1  A    between atoms: C_1  and  C_2
REMARK    2  A    between atoms: C_4  and  N_9
REMARK    3  A    between atoms: C_10  and  C_12
REMARK    4  A    between atoms: C_12  and  O_13
REMARK    5  A    between atoms: O_13  and  C_14
REMARK    6  A    between atoms: C_14  and  C_16
REMARK    7  A    between atoms: C_18  and  O_29
REMARK    8  A    between atoms: C_19  and  O_25
REMARK    9  A    between atoms: C_21  and  N_22
REMARK   10  A    between atoms: O_25  and  C_26
REMARK   11  A    between atoms: O_29  and  C_30
REMARK                            x       y       z     vdW  Elec       q    Type
REMARK                         _______ _______ _______ _____ _____    ______ ____
ROOT
ATOM      1  C   UNL     1       1.594  -0.009   6.011  0.00  0.00    +0.342 C 
ATOM      2  O   UNL     1       2.689  -0.528   5.934  0.00  0.00    -0.245 OA
ENDROOT
BRANCH   1   3
ATOM      3  C   UNL     1       0.725   0.058   4.821  0.00  0.00    +0.093 A 
ATOM      4  C   UNL     1      -0.564  -0.484   4.863  0.00  0.00    +0.066 A 
ATOM      5  C   UNL     1      -1.373  -0.419   3.746  0.00  0.00    +0.163 A 
ATOM      6  C   UNL     1      -0.905   0.185   2.580  0.00  0.00    +0.170 A 
ATOM      7  C   UNL     1       0.376   0.717   2.536  0.00  0.00    +0.083 A 
ATOM      8  C   UNL     1       1.187   0.661   3.649  0.00  0.00    +0.144 A 
BRANCH   8   9
ATOM      9  N   UNL     1       2.550   1.236   3.600  0.00  0.00    +0.057 N 
ATOM     10  O   UNL     1       2.999   1.653   2.547  0.00  0.00    -0.126 OA
ATOM     11  O   UNL     1       3.224   1.292   4.614  0.00  0.00    -0.126 OA
ENDBRANCH   8   9
BRANCH   5  12
ATOM     12  O   UNL     1      -2.627  -0.944   3.784  0.00  0.00    -0.491 OA
ATOM     13  C   UNL     1      -3.041  -1.548   5.012  0.00  0.00    +0.277 C 
ENDBRANCH   5  12
BRANCH   6  14
ATOM     14  O   UNL     1      -1.703   0.248   1.483  0.00  0.00    -0.430 OA
BRANCH  14  15
ATOM     15  C   UNL     1      -1.160   0.880   0.322  0.00  0.00    +0.541 C 
ATOM     16  F   UNL     1      -0.010   0.196  -0.088  0.00  0.00    -0.166 F 
ATOM     17  F   UNL     1      -0.831   2.206   0.624  0.00  0.00    -0.166 F 
ENDBRANCH  14  15
ENDBRANCH   6  14
ENDBRANCH   1   3
BRANCH   1  18
ATOM     18  O   UNL     1       1.173   0.506   7.182  0.00  0.00    -0.452 OA
BRANCH  18  19
ATOM     19  C   UNL     1       2.080   0.405   8.311  0.00  0.00    +0.328 C 
BRANCH  19  21
ATOM     20  N   UNL     1       2.107   1.052  10.698  0.00  0.00    -0.283 N 
ATOM     21  C   UNL     1       1.443   1.030   9.525  0.00  0.00    +0.255 C 
ATOM     22  O   UNL     1       0.334   1.513   9.447  0.00  0.00    -0.272 OA
ATOM     23  H   UNL     1       3.018   0.724  10.746  0.00  0.00    +0.155 HD
BRANCH  20  27
ATOM     24  C   UNL     1       1.345   0.794  15.549  0.00  0.00    +0.045 C 
ATOM     25  C   UNL     1       1.093   1.442  14.212  0.00  0.00    -0.035 A 
ATOM     26  C   UNL     1       1.713   0.950  13.079  0.00  0.00    +0.027 A 
ATOM     27  C   UNL     1       1.480   1.548  11.848  0.00  0.00    +0.034 A 
ATOM     28  C   UNL     1       0.630   2.642  11.759  0.00  0.00    +0.024 A 
ATOM     29  C   UNL     1       0.009   3.126  12.893  0.00  0.00    +0.017 A 
ATOM     30  C   UNL     1       0.242   2.529  14.120  0.00  0.00    +0.021 A 
ATOM     31 BR   UNL     1      -0.605   3.199  15.672  0.00  0.00    -0.050 Br
ENDBRANCH  20  27
ENDBRANCH  19  21
ENDBRANCH  18  19
ENDBRANCH   1  18
TORSDOF 9
