REMARK  Name = ZINC63486421
REMARK  9 active torsions:
REMARK  status: ('A' for Active; 'I' for Inactive)
REMARK    1  A    between atoms: C_1  and  O_2
REMARK    2  A    between atoms: O_2  and  C_3
REMARK    3  A    between atoms: C_6  and  C_9
REMARK    4  A    between atoms: C_18  and  O_20
REMARK    5  A    between atoms: O_20  and  C_21
REMARK    6  A    between atoms: C_21  and  C_22
REMARK    7  A    between atoms: N_24  and  C_25
REMARK    8  A    between atoms: C_25  and  C_26
REMARK    9  A    between atoms: C_26  and  C_27
REMARK                            x       y       z     vdW  Elec       q    Type
REMARK                         _______ _______ _______ _____ _____    ______ ____
ROOT
ATOM      1  C   UNL     1       2.574  -2.538   4.291  0.00  0.00    -0.000 A 
ATOM      2  C   UNL     1       2.081  -2.439   5.579  0.00  0.00    +0.101 A 
ATOM      3  C   UNL     1       2.751  -3.087   6.628  0.00  0.00    +0.338 A 
ATOM      4  O   UNL     1       2.309  -2.995   7.760  0.00  0.00    -0.245 OA
ATOM      5  O   UNL     1       3.865  -3.807   6.420  0.00  0.00    -0.422 OA
ATOM      6  C   UNL     1       4.404  -3.947   5.190  0.00  0.00    +0.143 A 
ATOM      7  C   UNL     1       3.794  -3.336   4.081  0.00  0.00    +0.026 A 
ATOM      8  C   UNL     1       4.346  -3.484   2.807  0.00  0.00    +0.016 A 
ATOM      9  C   UNL     1       5.479  -4.230   2.640  0.00  0.00    +0.046 A 
ATOM     10  C   UNL     1       6.085  -4.843   3.733  0.00  0.00    +0.125 A 
ATOM     11  C   UNL     1       5.557  -4.697   5.005  0.00  0.00    +0.092 A 
ENDROOT
BRANCH   1  15
ATOM     12  C   UNL     1       0.625  -0.618   1.040  0.00  0.00    +0.120 A 
ATOM     13  C   UNL     1       1.202   0.143   2.050  0.00  0.00    +0.046 A 
ATOM     14  C   UNL     1       1.834  -0.476   3.106  0.00  0.00    +0.012 A 
ATOM     15  C   UNL     1       1.896  -1.870   3.160  0.00  0.00    -0.017 A 
ATOM     16  C   UNL     1       1.315  -2.632   2.143  0.00  0.00    +0.012 A 
ATOM     17  C   UNL     1       0.680  -2.005   1.094  0.00  0.00    +0.046 A 
BRANCH  12  19
ATOM     18  C   UNL     1      -0.017   1.425   0.010  0.00  0.00    +0.277 C 
ATOM     19  O   UNL     1       0.002  -0.004   0.002  0.00  0.00    -0.495 OA
ENDBRANCH  12  19
ENDBRANCH   1  15
BRANCH  10  20
ATOM     20  O   UNL     1       7.210  -5.582   3.552  0.00  0.00    -0.483 OA
BRANCH  20  21
ATOM     21  C   UNL     1       7.711  -5.685   2.218  0.00  0.00    +0.324 C 
BRANCH  21  22
ATOM     22  C   UNL     1       8.954  -6.537   2.212  0.00  0.00    +0.251 C 
ATOM     23  O   UNL     1       9.370  -7.010   3.249  0.00  0.00    -0.272 OA
ATOM     24  N   UNL     1       9.604  -6.774   1.055  0.00  0.00    -0.312 N 
ATOM     25  H   UNL     1       9.271  -6.396   0.226  0.00  0.00    +0.149 HD
BRANCH  24  26
ATOM     26  C   UNL     1      10.812  -7.602   1.050  0.00  0.00    +0.108 C 
BRANCH  26  27
ATOM     27  C   UNL     1      11.349  -7.713  -0.379  0.00  0.00    +0.052 C 
BRANCH  27  28
ATOM     28  C   UNL     1      12.592  -8.564  -0.384  0.00  0.00    -0.040 C 
ATOM     29  C   UNL     1      12.668  -9.889  -0.644  0.00  0.00    +0.002 A 
ATOM     30  C   UNL     1      11.655 -10.895  -0.986  0.00  0.00    +0.048 A 
ATOM     31  C   UNL     1      12.045 -12.175  -1.194  0.00  0.00    +0.124 A 
ATOM     32  C   UNL     1      13.391 -12.562  -1.090  0.00  0.00    +0.040 A 
ATOM     33  C   UNL     1      14.377 -11.694  -0.780  0.00  0.00    +0.029 A 
ATOM     34  C   UNL     1      14.080 -10.323  -0.541  0.00  0.00    +0.043 A 
ATOM     35  N   UNL     1      14.846  -9.306  -0.230  0.00  0.00    -0.380 N 
ATOM     36  C   UNL     1      14.007  -8.109  -0.106  0.00  0.00    +0.144 C 
ATOM     37  F   UNL     1      11.116 -13.104  -1.508  0.00  0.00    -0.205 F 
ATOM     38  H   UNL     1      15.808  -9.339  -0.106  0.00  0.00    +0.160 HD
ENDBRANCH  27  28
ENDBRANCH  26  27
ENDBRANCH  24  26
ENDBRANCH  21  22
ENDBRANCH  20  21
ENDBRANCH  10  20
TORSDOF 8
