REMARK  Name = ZINC39672650
REMARK  10 active torsions:
REMARK  status: ('A' for Active; 'I' for Inactive)
REMARK    1  A    between atoms: C_1  and  C_2
REMARK    2  A    between atoms: C_5  and  C_7
REMARK    3  A    between atoms: C_7  and  N_8
REMARK    4  A    between atoms: C_9  and  C_11
REMARK    5  A    between atoms: C_22  and  C_24
REMARK    6  A    between atoms: C_24  and  C_26
REMARK    7  A    between atoms: C_24  and  O_29
REMARK    8  A    between atoms: C_26  and  C_27
REMARK    9  A    between atoms: C_26  and  C_28
REMARK   10  A    between atoms: O_29  and  C_30
REMARK                            x       y       z     vdW  Elec       q    Type
REMARK                         _______ _______ _______ _____ _____    ______ ____
ROOT
ATOM      1  C   UNL     1      -2.529  -4.446   4.108  0.00  0.00    +0.100 C 
ATOM      2  C   UNL     1      -3.377  -4.991   2.938  0.00  0.00    +0.121 C 
ATOM      3  N   UNL     1      -3.372  -6.461   3.126  0.00  0.00    -0.297 N 
ATOM      4  C   UNL     1      -3.488  -6.646   4.592  0.00  0.00    +0.115 C 
ATOM      5  C   UNL     1      -2.607  -5.532   5.193  0.00  0.00    -0.004 C 
ATOM      6  C   UNL     1      -3.253  -4.972   6.457  0.00  0.00    -0.010 C 
ATOM      7  C   UNL     1      -3.266  -6.054   7.540  0.00  0.00    -0.082 C 
ATOM      8  N   UNL     1      -1.892  -6.487   7.820  0.00  0.00    +0.379 N 
ATOM      9  C   UNL     1      -1.310  -7.109   6.624  0.00  0.00    -0.082 C 
ATOM     10  C   UNL     1      -1.214  -6.072   5.502  0.00  0.00    -0.010 C 
ATOM     11  C   UNL     1      -3.284  -7.415   2.177  0.00  0.00    +0.257 C 
ATOM     12  O   UNL     1      -3.377  -8.585   2.483  0.00  0.00    -0.272 OA
ATOM     13  H   UNL     1      -1.336  -5.687   8.085  0.00  0.00    -0.086 HD
ATOM     14  H   UNL     1      -1.898  -7.155   8.576  0.00  0.00    -0.086 HD
ENDROOT
BRANCH   1  16
ATOM     15  N   UNL     1      -0.354  -3.274   4.237  0.00  0.00    -0.309 N 
ATOM     16  C   UNL     1      -1.101  -4.242   3.671  0.00  0.00    +0.219 C 
ATOM     17  O   UNL     1      -0.624  -4.950   2.809  0.00  0.00    -0.275 OA
ATOM     18  H   UNL     1      -0.735  -2.708   4.926  0.00  0.00    +0.149 HD
BRANCH  15  19
ATOM     19  C   UNL     1       1.034  -3.076   3.813  0.00  0.00    +0.167 C 
BRANCH  19  24
ATOM     20  C   UNL     1       3.503  -0.952   7.612  0.00  0.00    +0.066 C 
ATOM     21  C   UNL     1       2.763  -0.899   6.300  0.00  0.00    +0.046 A 
ATOM     22  C   UNL     1       2.558   0.273   5.647  0.00  0.00    +0.070 A 
ATOM     23  S   UNL     1       1.660  -0.301   4.214  0.00  0.00    -0.079 S 
ATOM     24  C   UNL     1       1.642  -1.940   4.595  0.00  0.00    +0.096 A 
ATOM     25  N   UNL     1       2.289  -1.990   5.732  0.00  0.00    -0.248 NA
ENDBRANCH  19  24
ENDBRANCH  15  19
ENDBRANCH   1  16
BRANCH  11  26
ATOM     26  C   UNL     1      -3.068  -7.028   0.737  0.00  0.00    +0.261 C 
BRANCH  26  27
ATOM     27  C   UNL     1      -4.421  -6.780   0.067  0.00  0.00    +0.033 C 
ATOM     28  C   UNL     1      -5.202  -5.734   0.865  0.00  0.00    +0.011 C 
ATOM     29  C   UNL     1      -4.199  -6.273  -1.359  0.00  0.00    +0.011 C 
ENDBRANCH  26  27
BRANCH  26  30
ATOM     30  O   UNL     1      -2.386  -8.083   0.057  0.00  0.00    -0.479 OA
BRANCH  30  31
ATOM     31  C   UNL     1      -1.517  -7.725  -0.924  0.00  0.00    +0.122 A 
ATOM     32  C   UNL     1      -1.254  -6.384  -1.164  0.00  0.00    +0.045 A 
ATOM     33  C   UNL     1      -0.370  -6.022  -2.162  0.00  0.00    +0.004 A 
ATOM     34  C   UNL     1       0.252  -6.995  -2.922  0.00  0.00    +0.000 A 
ATOM     35  C   UNL     1      -0.009  -8.332  -2.686  0.00  0.00    +0.004 A 
ATOM     36  C   UNL     1      -0.887  -8.699  -1.685  0.00  0.00    +0.045 A 
ENDBRANCH  30  31
ENDBRANCH  26  30
ENDBRANCH  11  26
TORSDOF 7
