REMARK  Name = ZINC59463214
REMARK  10 active torsions:
REMARK  status: ('A' for Active; 'I' for Inactive)
REMARK    1  A    between atoms: C_1  and  C_2
REMARK    2  A    between atoms: C_2  and  N_3
REMARK    3  A    between atoms: N_3  and  C_4
REMARK    4  A    between atoms: C_4  and  C_5
REMARK    5  A    between atoms: C_6  and  C_8
REMARK    6  A    between atoms: N_13  and  C_15
REMARK    7  A    between atoms: C_18  and  C_34
REMARK    8  A    between atoms: C_20  and  N_21
REMARK    9  A    between atoms: C_22  and  C_23
REMARK   10  A    between atoms: C_32  and  O_33
REMARK                            x       y       z     vdW  Elec       q    Type
REMARK                         _______ _______ _______ _____ _____    ______ ____
ROOT
ATOM      1  C   UNL     1       0.106  -2.559  -5.811  0.00  0.00    +0.055 A 
ATOM      2  C   UNL     1       0.664  -3.797  -5.533  0.00  0.00    +0.026 A 
ATOM      3  C   UNL     1       0.320  -4.899  -6.293  0.00  0.00    +0.014 A 
ATOM      4  C   UNL     1      -0.582  -4.775  -7.337  0.00  0.00    +0.057 A 
ATOM      5  C   UNL     1      -1.146  -3.551  -7.628  0.00  0.00    +0.042 A 
ATOM      6  C   UNL     1      -0.813  -2.431  -6.864  0.00  0.00    +0.085 A 
ENDROOT
BRANCH   1  11
ATOM      7  C   UNL     1       0.662  -0.972  -2.660  0.00  0.00    +0.092 C 
ATOM      8  C   UNL     1       1.758   0.034  -3.018  0.00  0.00    +0.016 C 
ATOM      9  C   UNL     1       2.537  -0.470  -4.235  0.00  0.00    +0.020 C 
ATOM     10  C   UNL     1       1.586  -0.594  -5.429  0.00  0.00    +0.105 C 
ATOM     11  N   UNL     1       0.452  -1.446  -5.044  0.00  0.00    -0.328 N 
ATOM     12  C   UNL     1      -0.311  -1.103  -3.836  0.00  0.00    +0.118 C 
BRANCH   7  14
ATOM     13  N   UNL     1       0.493  -0.561  -0.226  0.00  0.00    -0.302 N 
ATOM     14  C   UNL     1      -0.084  -0.490  -1.442  0.00  0.00    +0.220 C 
ATOM     15  O   UNL     1      -1.204  -0.039  -1.556  0.00  0.00    -0.275 OA
BRANCH  13  17
ATOM     16  C   UNL     1      -0.081   1.303   1.250  0.00  0.00    +0.024 C 
ATOM     17  C   UNL     1      -0.268  -0.190   0.969  0.00  0.00    +0.104 C 
ENDBRANCH  13  17
BRANCH  13  18
ATOM     18  C   UNL     1       1.883  -1.008  -0.100  0.00  0.00    +0.104 C 
ATOM     19  C   UNL     1       1.909  -2.506   0.213  0.00  0.00    +0.024 C 
ENDBRANCH  13  18
ENDBRANCH   7  14
ENDBRANCH   1  11
BRANCH   4  20
ATOM     20  C   UNL     1      -0.947  -5.984  -8.159  0.00  0.00    +0.417 C 
ATOM     21  F   UNL     1      -0.254  -7.101  -7.680  0.00  0.00    -0.166 F 
ATOM     22  F   UNL     1      -2.324  -6.214  -8.063  0.00  0.00    -0.166 F 
ATOM     23  F   UNL     1      -0.604  -5.761  -9.496  0.00  0.00    -0.166 F 
ENDBRANCH   4  20
BRANCH   6  24
ATOM     24  N   UNL     1      -1.373  -1.216  -7.144  0.00  0.00    -0.253 NA
ATOM     25  C   UNL     1      -2.615  -1.146  -7.543  0.00  0.00    +0.123 C 
BRANCH  25  26
ATOM     26  C   UNL     1      -3.182   0.142  -7.951  0.00  0.00    +0.042 A 
ATOM     27  C   UNL     1      -4.573   0.239  -8.395  0.00  0.00    -0.006 A 
ATOM     28  C   UNL     1      -5.404  -0.885  -8.445  0.00  0.00    +0.009 A 
ATOM     29  C   UNL     1      -6.695  -0.752  -8.865  0.00  0.00    +0.001 A 
ATOM     30  C   UNL     1      -7.198   0.490  -9.245  0.00  0.00    +0.001 A 
ATOM     31  C   UNL     1      -6.416   1.604  -9.209  0.00  0.00    +0.008 A 
ATOM     32  C   UNL     1      -5.081   1.503  -8.780  0.00  0.00    -0.017 A 
ATOM     33  C   UNL     1      -4.245   2.633  -8.728  0.00  0.00    +0.012 A 
ATOM     34  C   UNL     1      -2.955   2.526  -8.313  0.00  0.00    +0.046 A 
ATOM     35  C   UNL     1      -2.409   1.305  -7.919  0.00  0.00    +0.126 A 
BRANCH  35  36
ATOM     36  O   UNL     1      -1.119   1.246  -7.506  0.00  0.00    -0.506 OA
ATOM     37  H   UNL     1      -0.485   1.079  -8.217  0.00  0.00    +0.292 HD
ENDBRANCH  35  36
ENDBRANCH  25  26
ENDBRANCH   6  24
TORSDOF 8
