REMARK  Name = ZINC12244452
REMARK  11 active torsions:
REMARK  status: ('A' for Active; 'I' for Inactive)
REMARK    1  A    between atoms: C_1  and  C_2
REMARK    2  A    between atoms: C_4  and  C_10
REMARK    3  A    between atoms: C_7  and  O_8
REMARK    4  A    between atoms: O_8  and  C_9
REMARK    5  A    between atoms: C_10  and  N_66
REMARK    6  A    between atoms: C_12  and  S_28
REMARK    7  A    between atoms: C_15  and  C_17
REMARK    8  A    between atoms: N_19  and  C_20
REMARK    9  A    between atoms: S_28  and  C_29
REMARK   10  A    between atoms: C_32  and  O_35
REMARK   11  A    between atoms: O_35  and  C_36
REMARK                            x       y       z     vdW  Elec       q    Type
REMARK                         _______ _______ _______ _____ _____    ______ ____
ROOT
ATOM      1  C   UNL     1      -4.044   1.957   1.425  0.00  0.00    -0.063 C 
ATOM      2  C   UNL     1      -4.017   2.679   0.054  0.00  0.00    +0.034 C 
ATOM      3  C   UNL     1      -5.442   3.268  -0.055  0.00  0.00    +0.006 C 
ATOM      4  C   UNL     1      -6.303   2.417   0.896  0.00  0.00    +0.021 C 
ATOM      5  N   UNL     1      -5.404   1.405   1.462  0.00  0.00    +0.391 N 
ATOM      6  H   UNL     1      -5.445   0.549   0.898  0.00  0.00    -0.080 HD
ENDROOT
BRANCH   4   7
ATOM      7  C   UNL     1      -7.418   1.756   0.128  0.00  0.00    +0.200 C 
ATOM      8  O   UNL     1      -7.487   0.546   0.081  0.00  0.00    -0.278 OA
ATOM      9  N   UNL     1      -8.337   2.509  -0.508  0.00  0.00    -0.312 N 
ATOM     10  H   UNL     1      -8.281   3.477  -0.470  0.00  0.00    +0.149 HD
BRANCH   9  11
ATOM     11  C   UNL     1      -9.421   1.867  -1.256  0.00  0.00    +0.095 C 
ATOM     12  C   UNL     1     -10.625   2.818  -1.345  0.00  0.00    +0.046 C 
ATOM     13  C   UNL     1     -11.638   2.290  -2.389  0.00  0.00    +0.168 C 
ATOM     14  S   UNL     1     -10.566   1.355  -3.555  0.00  0.00    -0.029 S 
ATOM     15  O   UNL     1     -10.941  -0.016  -3.529  0.00  0.00    -0.174 OA
ATOM     16  O   UNL     1     -10.523   2.045  -4.797  0.00  0.00    -0.174 OA
ATOM     17  C   UNL     1      -8.945   1.550  -2.702  0.00  0.00    +0.188 C 
ENDBRANCH   9  11
ENDBRANCH   4   7
BRANCH   5  18
ATOM     18  C   UNL     1      -5.803   1.086   2.866  0.00  0.00    -0.042 C 
BRANCH  18  22
ATOM     19  C   UNL     1      -3.950  -3.440   3.926  0.00  0.00    +0.047 C 
ATOM     20  C   UNL     1      -3.857  -1.938   4.014  0.00  0.00    -0.009 A 
ATOM     21  C   UNL     1      -4.830  -1.149   3.432  0.00  0.00    +0.008 A 
ATOM     22  C   UNL     1      -4.743   0.228   3.508  0.00  0.00    -0.063 A 
ATOM     23  C   UNL     1      -3.687   0.820   4.177  0.00  0.00    +0.005 A 
ATOM     24  C   UNL     1      -2.714   0.036   4.765  0.00  0.00    +0.046 A 
ATOM     25  C   UNL     1      -2.797  -1.347   4.685  0.00  0.00    +0.123 A 
BRANCH  25  26
ATOM     26  O   UNL     1      -1.841  -2.121   5.263  0.00  0.00    -0.495 OA
ATOM     27  C   UNL     1      -0.778  -1.444   5.937  0.00  0.00    +0.277 C 
ENDBRANCH  25  26
ENDBRANCH  18  22
ENDBRANCH   5  18
BRANCH   2  28
ATOM     28  S   UNL     1      -2.773   4.000   0.049  0.00  0.00    -0.124 S 
BRANCH  28  29
ATOM     29  C   UNL     1      -1.236   3.139   0.030  0.00  0.00    +0.008 A 
ATOM     30  C   UNL     1      -1.218   1.750   0.017  0.00  0.00    +0.018 A 
ATOM     31  C   UNL     1      -0.013   1.076   0.008  0.00  0.00    +0.047 A 
ATOM     32  C   UNL     1       1.179   1.785   0.000  0.00  0.00    +0.120 A 
ATOM     33  C   UNL     1       1.162   3.172   0.007  0.00  0.00    +0.047 A 
ATOM     34  C   UNL     1      -0.042   3.848   0.022  0.00  0.00    +0.018 A 
BRANCH  32  35
ATOM     35  O   UNL     1       2.366   1.121  -0.015  0.00  0.00    -0.495 OA
ATOM     36  C   UNL     1       3.554   1.915  -0.022  0.00  0.00    +0.277 C 
ENDBRANCH  32  35
ENDBRANCH  28  29
ENDBRANCH   2  28
TORSDOF 8
