REMARK  Name = ZINC33302149
REMARK  4 active torsions:
REMARK  status: ('A' for Active; 'I' for Inactive)
REMARK    1  A    between atoms: C_1  and  C_2
REMARK    2  A    between atoms: C_3  and  C_15
REMARK    3  A    between atoms: N_6  and  C_7
REMARK    4  A    between atoms: N_20  and  C_21
REMARK                            x       y       z     vdW  Elec       q    Type
REMARK                         _______ _______ _______ _____ _____    ______ ____
ROOT
ATOM      1  C   UNL     1      -1.642   8.264   0.904  0.00  0.00    +0.068 C 
ATOM      2  C   UNL     1      -3.021   7.686   0.718  0.00  0.00    +0.073 A 
ATOM      3  C   UNL     1      -3.332   6.380   0.493  0.00  0.00    +0.153 A 
ATOM      4  N   UNL     1      -4.663   6.269   0.377  0.00  0.00    -0.126 NA
ATOM      5  N   UNL     1      -5.212   7.425   0.525  0.00  0.00    -0.060 NA
ATOM      6  N   UNL     1      -4.198   8.369   0.743  0.00  0.00    -0.214 N 
ENDROOT
BRANCH   6   7
ATOM      7  C   UNL     1      -4.364   9.747   0.945  0.00  0.00    +0.105 A 
ATOM      8  C   UNL     1      -3.586  10.653   0.237  0.00  0.00    +0.069 A 
ATOM      9  C   UNL     1      -3.753  12.011   0.439  0.00  0.00    +0.126 A 
ATOM     10  C   UNL     1      -4.694  12.468   1.346  0.00  0.00    +0.041 A 
ATOM     11  C   UNL     1      -5.471  11.568   2.052  0.00  0.00    +0.043 A 
ATOM     12  C   UNL     1      -5.313  10.209   1.850  0.00  0.00    +0.149 A 
ATOM     13  F   UNL     1      -6.076   9.330   2.537  0.00  0.00    -0.203 F 
ATOM     14  F   UNL     1      -2.995  12.893  -0.249  0.00  0.00    -0.205 F 
ENDBRANCH   6   7
BRANCH   3  15
ATOM     15  C   UNL     1      -2.359   5.264   0.387  0.00  0.00    +0.192 A 
ATOM     16  N   UNL     1      -2.779   4.034   0.161  0.00  0.00    -0.202 NA
ATOM     17  C   UNL     1      -1.882   3.063   0.078  0.00  0.00    +0.183 A 
ATOM     18  S   UNL     1      -0.399   3.931   0.315  0.00  0.00    +0.050 S 
ATOM     19  N   UNL     1      -1.066   5.495   0.512  0.00  0.00    -0.186 NA
ATOM     20  N   UNL     1      -2.077   1.711  -0.146  0.00  0.00    -0.293 N 
ATOM     21  H   UNL     1      -3.083   1.331  -0.374  0.00  0.00    +0.154 HD
BRANCH  20  22
ATOM     22  C   UNL     1      -0.994   0.829  -0.081  0.00  0.00    +0.033 A 
ATOM     23  C   UNL     1      -0.964  -0.297  -0.895  0.00  0.00    +0.025 A 
ATOM     24  C   UNL     1       0.104  -1.169  -0.825  0.00  0.00    +0.022 A 
ATOM     25  C   UNL     1       1.144  -0.924   0.054  0.00  0.00    +0.041 A 
ATOM     26  C   UNL     1       1.117   0.197   0.866  0.00  0.00    +0.022 A 
ATOM     27  C   UNL     1       0.051   1.073   0.801  0.00  0.00    +0.025 A 
ATOM     28 CL   UNL     1       2.485  -2.023   0.140  0.00  0.00    -0.084 Cl
ENDBRANCH  20  22
ENDBRANCH   3  15
TORSDOF 3
