REMARK  Name = ZINC39694103
REMARK  8 active torsions:
REMARK  status: ('A' for Active; 'I' for Inactive)
REMARK    1  A    between atoms: C_1  and  C_2
REMARK    2  A    between atoms: C_2  and  C_4
REMARK    3  A    between atoms: C_2  and  O_32
REMARK    4  A    between atoms: C_8  and  C_17
REMARK    5  A    between atoms: N_19  and  C_20
REMARK    6  A    between atoms: C_20  and  C_21
REMARK    7  A    between atoms: C_25  and  N_27
REMARK    8  A    between atoms: O_32  and  C_33
REMARK                            x       y       z     vdW  Elec       q    Type
REMARK                         _______ _______ _______ _____ _____    ______ ____
ROOT
ATOM      1  C   UNL     1       0.863  -0.302  -1.688  0.00  0.00    +0.256 C 
ATOM      2  O   UNL     1       0.294  -0.756  -2.658  0.00  0.00    -0.272 OA
ATOM      3  N   UNL     1       2.173   0.008  -1.758  0.00  0.00    -0.297 N 
ATOM      4  C   UNL     1       3.034   0.562  -0.687  0.00  0.00    +0.121 C 
ATOM      5  C   UNL     1       4.385  -0.169  -0.855  0.00  0.00    +0.100 C 
ATOM      6  C   UNL     1       4.408  -0.618  -2.326  0.00  0.00    -0.004 C 
ATOM      7  C   UNL     1       3.079  -0.134  -2.923  0.00  0.00    +0.115 C 
ATOM      8  C   UNL     1       4.496  -2.139  -2.413  0.00  0.00    -0.010 C 
ATOM      9  C   UNL     1       4.575  -2.557  -3.884  0.00  0.00    -0.082 C 
ATOM     10  N   UNL     1       5.754  -1.942  -4.507  0.00  0.00    +0.379 N 
ATOM     11  C   UNL     1       5.618  -0.480  -4.502  0.00  0.00    -0.082 C 
ATOM     12  C   UNL     1       5.582   0.026  -3.057  0.00  0.00    -0.010 C 
ATOM     13  H   UNL     1       6.580  -2.203  -3.990  0.00  0.00    -0.086 HD
ATOM     14  H   UNL     1       5.838  -2.267  -5.458  0.00  0.00    -0.086 HD
ENDROOT
BRANCH   5  15
ATOM     15  C   UNL     1       4.453  -1.363   0.061  0.00  0.00    +0.218 C 
ATOM     16  O   UNL     1       3.438  -1.955   0.362  0.00  0.00    -0.275 OA
ATOM     17  N   UNL     1       5.641  -1.774   0.546  0.00  0.00    -0.311 N 
ATOM     18  H   UNL     1       6.453  -1.301   0.306  0.00  0.00    +0.149 HD
BRANCH  17  19
ATOM     19  C   UNL     1       5.707  -2.935   1.438  0.00  0.00    +0.139 C 
BRANCH  19  20
ATOM     20  C   UNL     1       7.139  -3.183   1.835  0.00  0.00    -0.028 A 
ATOM     21  C   UNL     1       7.936  -4.012   1.066  0.00  0.00    +0.005 A 
ATOM     22  C   UNL     1       9.251  -4.241   1.427  0.00  0.00    +0.002 A 
ATOM     23  C   UNL     1       9.773  -3.643   2.557  0.00  0.00    +0.026 A 
ATOM     24  C   UNL     1       8.976  -2.811   3.331  0.00  0.00    +0.046 A 
ATOM     25  C   UNL     1       7.657  -2.578   2.963  0.00  0.00    +0.031 A 
BRANCH  24  26
ATOM     26  N   UNL     1       9.502  -2.203   4.479  0.00  0.00    -0.323 N 
ATOM     27  C   UNL     1       8.822  -1.372   5.324  0.00  0.00    +0.091 A 
ATOM     28  C   UNL     1       9.662  -0.992   6.308  0.00  0.00    +0.019 A 
ATOM     29  C   UNL     1      10.906  -1.609   6.064  0.00  0.00    +0.019 A 
ATOM     30  C   UNL     1      10.778  -2.348   4.943  0.00  0.00    +0.091 A 
ENDBRANCH  24  26
ENDBRANCH  19  20
ENDBRANCH  17  19
ENDBRANCH   5  15
BRANCH   1  32
ATOM     31  C   UNL     1       0.049   1.413  -0.093  0.00  0.00    +0.062 C 
ATOM     32  C   UNL     1       0.105  -0.084  -0.404  0.00  0.00    +0.256 C 
BRANCH  32  33
ATOM     33  O   UNL     1      -1.223  -0.593  -0.542  0.00  0.00    -0.480 OA
BRANCH  33  34
ATOM     34  C   UNL     1      -1.862  -0.966   0.598  0.00  0.00    +0.122 A 
ATOM     35  C   UNL     1      -3.108  -1.573   0.528  0.00  0.00    +0.045 A 
ATOM     36  C   UNL     1      -3.756  -1.952   1.688  0.00  0.00    +0.004 A 
ATOM     37  C   UNL     1      -3.164  -1.727   2.917  0.00  0.00    +0.000 A 
ATOM     38  C   UNL     1      -1.923  -1.121   2.989  0.00  0.00    +0.004 A 
ATOM     39  C   UNL     1      -1.268  -0.746   1.832  0.00  0.00    +0.045 A 
ENDBRANCH  33  34
ENDBRANCH  32  33
ENDBRANCH   1  32
TORSDOF 7
