REMARK  Name = ZINC38137446
REMARK  4 active torsions:
REMARK  status: ('A' for Active; 'I' for Inactive)
REMARK    1  A    between atoms: C_3  and  O_18
REMARK    2  A    between atoms: C_4  and  N_8
REMARK    3  A    between atoms: N_8  and  S_9
REMARK    4  A    between atoms: S_9  and  C_12
REMARK                            x       y       z     vdW  Elec       q    Type
REMARK                         _______ _______ _______ _____ _____    ______ ____
ROOT
ATOM      1  N   UNL     1       3.622  -0.658  -0.037  0.00  0.00    -0.217 N 
ATOM      2  H   UNL     1       4.388  -0.289   0.430  0.00  0.00    +0.173 HD
ENDROOT
BRANCH   1   6
ATOM      3  C   UNL     1       0.054   1.494  -0.215  0.00  0.00    +0.024 A 
ATOM      4  C   UNL     1       1.264   2.163  -0.262  0.00  0.00    +0.049 A 
ATOM      5  C   UNL     1       2.451   1.453  -0.203  0.00  0.00    +0.139 A 
ATOM      6  C   UNL     1       2.424   0.064  -0.096  0.00  0.00    +0.090 A 
ATOM      7  C   UNL     1       1.208  -0.601  -0.049  0.00  0.00    +0.048 A 
ATOM      8  C   UNL     1       0.026   0.115  -0.108  0.00  0.00    +0.043 A 
ATOM      9 CL   UNL     1      -1.496  -0.719  -0.050  0.00  0.00    -0.083 Cl
BRANCH   5  10
ATOM     10  O   UNL     1       3.641   2.110  -0.250  0.00  0.00    -0.505 OA
ATOM     11  H   UNL     1       3.982   2.368   0.618  0.00  0.00    +0.292 HD
ENDBRANCH   5  10
ENDBRANCH   1   6
BRANCH   1  12
ATOM     12  S   UNL     1       3.730  -2.143  -0.763  0.00  0.00    +0.046 S 
ATOM     13  O   UNL     1       5.045  -2.595  -0.469  0.00  0.00    -0.155 OA
ATOM     14  O   UNL     1       2.596  -2.859  -0.294  0.00  0.00    -0.155 OA
BRANCH  12  15
ATOM     15  C   UNL     1       3.568  -1.806  -2.538  0.00  0.00    +0.151 C 
ATOM     16  C   UNL     1       2.274  -1.030  -2.793  0.00  0.00    +0.028 C 
ATOM     17  C   UNL     1       2.137  -0.746  -4.291  0.00  0.00    +0.002 C 
ATOM     18  C   UNL     1       2.099  -2.069  -5.059  0.00  0.00    +0.000 C 
ATOM     19  C   UNL     1       3.392  -2.845  -4.803  0.00  0.00    +0.002 C 
ATOM     20  C   UNL     1       3.529  -3.129  -3.306  0.00  0.00    +0.028 C 
ENDBRANCH  12  15
ENDBRANCH   1  12
TORSDOF 4
