REMARK  Name = ZINC04761293
REMARK  12 active torsions:
REMARK  status: ('A' for Active; 'I' for Inactive)
REMARK    1  A    between atoms: C_1  and  C_2
REMARK    2  A    between atoms: C_7  and  C_23
REMARK    3  A    between atoms: C_9  and  C_13
REMARK    4  A    between atoms: C_10  and  C_12
REMARK    5  A    between atoms: C_13  and  O_15
REMARK    6  A    between atoms: O_15  and  C_16
REMARK    7  A    between atoms: C_26  and  N_29
REMARK    8  A    between atoms: N_29  and  C_30
REMARK    9  A    between atoms: N_29  and  C_31
REMARK   10  A    between atoms: C_34  and  C_36
REMARK   11  A    between atoms: C_36  and  O_38
REMARK   12  A    between atoms: O_38  and  C_39
REMARK                            x       y       z     vdW  Elec       q    Type
REMARK                         _______ _______ _______ _____ _____    ______ ____
ROOT
ATOM      1  C   UNL     1       1.389   1.659   4.927  0.00  0.00    +0.009 C 
ATOM      2  C   UNL     1      -0.025   1.073   4.905  0.00  0.00    +0.013 C 
ATOM      3  C   UNL     1      -0.767   1.473   6.183  0.00  0.00    +0.055 C 
ATOM      4  C   UNL     1      -2.177   0.939   6.138  0.00  0.00    +0.016 C 
ATOM      5  C   UNL     1      -2.825   0.784   4.963  0.00  0.00    +0.025 C 
ATOM      6  C   UNL     1      -4.234   0.247   4.926  0.00  0.00    +0.092 C 
ATOM      7  C   UNL     1      -4.883   0.344   6.275  0.00  0.00    +0.065 C 
ATOM      8  C   UNL     1      -4.152   0.516   7.390  0.00  0.00    +0.016 C 
ATOM      9  N   UNL     1      -2.791   0.615   7.318  0.00  0.00    -0.321 N 
ATOM     10  C   UNL     1      -4.838   0.599   8.729  0.00  0.00    +0.061 C 
ATOM     11  C   UNL     1      -2.207   1.114   3.745  0.00  0.00    +0.176 C 
ATOM     12  O   UNL     1      -2.825   0.982   2.707  0.00  0.00    -0.291 OA
ATOM     13  C   UNL     1      -0.794   1.629   3.702  0.00  0.00    +0.171 C 
ATOM     14  H   UNL     1      -2.187   0.431   8.219  0.00  0.00    +0.152 HD
ENDROOT
BRANCH   6  15
ATOM     15  C   UNL     1      -4.202  -1.196   4.495  0.00  0.00    -0.035 A 
ATOM     16  C   UNL     1      -3.499  -2.124   5.242  0.00  0.00    +0.006 A 
ATOM     17  C   UNL     1      -3.473  -3.449   4.852  0.00  0.00    +0.023 A 
ATOM     18  C   UNL     1      -4.143  -3.847   3.702  0.00  0.00    +0.029 A 
ATOM     19  C   UNL     1      -4.843  -2.911   2.951  0.00  0.00    +0.023 A 
ATOM     20  C   UNL     1      -4.870  -1.589   3.349  0.00  0.00    +0.006 A 
BRANCH  18  21
ATOM     21  N   UNL     1      -4.114  -5.185   3.303  0.00  0.00    -0.336 N 
ATOM     22  C   UNL     1      -4.922  -5.627   2.163  0.00  0.00    +0.129 C 
ATOM     23  C   UNL     1      -3.275  -6.146   4.023  0.00  0.00    +0.129 C 
ENDBRANCH  18  21
ENDBRANCH   6  15
BRANCH   7  24
ATOM     24  C   UNL     1      -6.291   0.252   6.376  0.00  0.00    +0.338 C 
ATOM     25  O   UNL     1      -6.829   0.328   7.465  0.00  0.00    -0.245 OA
BRANCH  24  26
ATOM     26  O   UNL     1      -7.037   0.079   5.265  0.00  0.00    -0.458 OA
BRANCH  26  27
ATOM     27  C   UNL     1      -8.452  -0.005   5.441  0.00  0.00    +0.177 C 
ATOM     28  C   UNL     1      -8.838  -1.478   5.691  0.00  0.00    +0.044 C 
ATOM     29  C   UNL     1     -10.182  -1.511   6.367  0.00  0.00    +0.004 C 
ATOM     30  C   UNL     1     -11.340  -1.679   5.365  0.00  0.00    +0.000 C 
ATOM     31  C   UNL     1     -11.158  -0.828   4.094  0.00  0.00    +0.000 C 
ATOM     32  C   UNL     1     -10.644   0.554   4.395  0.00  0.00    +0.004 C 
ATOM     33  C   UNL     1      -9.107   0.544   4.263  0.00  0.00    +0.044 C 
ENDBRANCH  26  27
ENDBRANCH  24  26
ENDBRANCH   7  24
BRANCH  13  34
ATOM     34  C   UNL     1      -0.130   1.178   2.427  0.00  0.00    +0.318 C 
ATOM     35  O   UNL     1       0.862   0.490   2.473  0.00  0.00    -0.250 OA
BRANCH  34  36
ATOM     36  O   UNL     1      -0.641   1.540   1.240  0.00  0.00    -0.467 OA
ATOM     37  C   UNL     1       0.050   1.068   0.053  0.00  0.00    +0.280 C 
ENDBRANCH  34  36
ENDBRANCH  13  34
TORSDOF 7
