REMARK  Name = ZINC28632534
REMARK  11 active torsions:
REMARK  status: ('A' for Active; 'I' for Inactive)
REMARK    1  A    between atoms: C_1  and  O_2
REMARK    2  A    between atoms: O_2  and  C_3
REMARK    3  A    between atoms: C_8  and  N_9
REMARK    4  A    between atoms: N_9  and  S_10
REMARK    5  A    between atoms: S_10  and  C_13
REMARK    6  A    between atoms: C_16  and  C_19
REMARK    7  A    between atoms: C_20  and  C_21
REMARK    8  A    between atoms: N_23  and  N_24
REMARK    9  A    between atoms: N_24  and  C_25
REMARK   10  A    between atoms: C_25  and  N_27
REMARK   11  A    between atoms: N_27  and  C_28
REMARK                            x       y       z     vdW  Elec       q    Type
REMARK                         _______ _______ _______ _____ _____    ______ ____
ROOT
ATOM      1  C   UNL     1      -0.186  -4.004  -2.475  0.00  0.00    +0.109 A 
ATOM      2  C   UNL     1      -1.436  -3.958  -3.067  0.00  0.00    +0.029 A 
ATOM      3  C   UNL     1      -1.552  -3.751  -4.426  0.00  0.00    +0.010 A 
ATOM      4  C   UNL     1      -0.403  -3.587  -5.205  0.00  0.00    -0.025 A 
ATOM      5  C   UNL     1       0.857  -3.635  -4.599  0.00  0.00    +0.010 A 
ATOM      6  C   UNL     1       0.956  -3.838  -3.238  0.00  0.00    +0.029 A 
ENDROOT
BRANCH   1   7
ATOM      7  S   UNL     1      -0.049  -4.268  -0.738  0.00  0.00    +0.072 S 
ATOM      8  O   UNL     1       1.246  -4.808  -0.511  0.00  0.00    -0.150 OA
ATOM      9  O   UNL     1      -1.235  -4.938  -0.334  0.00  0.00    -0.150 OA
BRANCH   7  10
ATOM     10  N   UNL     1      -0.075  -2.780  -0.013  0.00  0.00    -0.213 N 
ATOM     11  H   UNL     1       0.681  -2.486   0.519  0.00  0.00    +0.174 HD
BRANCH  10  17
ATOM     12  C   UNL     1      -1.022  -0.566  -0.250  0.00  0.00    +0.142 A 
ATOM     13  C   UNL     1      -2.128   0.254  -0.408  0.00  0.00    +0.047 A 
ATOM     14  C   UNL     1      -3.394  -0.298  -0.476  0.00  0.00    +0.004 A 
ATOM     15  C   UNL     1      -3.561  -1.667  -0.388  0.00  0.00    +0.002 A 
ATOM     16  C   UNL     1      -2.463  -2.492  -0.230  0.00  0.00    +0.028 A 
ATOM     17  C   UNL     1      -1.189  -1.946  -0.166  0.00  0.00    +0.090 A 
BRANCH  12  19
ATOM     18  C   UNL     1       0.318   1.399  -0.274  0.00  0.00    +0.277 C 
ATOM     19  O   UNL     1       0.223  -0.024  -0.182  0.00  0.00    -0.493 OA
ENDBRANCH  12  19
ENDBRANCH  10  17
ENDBRANCH   7  10
ENDBRANCH   1   7
BRANCH   4  20
ATOM     20  C   UNL     1      -0.518  -3.367  -6.656  0.00  0.00    +0.013 C 
ATOM     21  C   UNL     1       0.593  -3.209  -7.404  0.00  0.00    +0.069 C 
BRANCH  21  22
ATOM     22  C   UNL     1       0.478  -2.990  -8.847  0.00  0.00    +0.253 C 
ATOM     23  O   UNL     1      -0.619  -2.949  -9.371  0.00  0.00    -0.269 OA
ATOM     24  N   UNL     1       1.589  -2.833  -9.595  0.00  0.00    -0.232 N 
ATOM     25  H   UNL     1       2.463  -2.865  -9.177  0.00  0.00    +0.173 HD
BRANCH  24  26
ATOM     26  N   UNL     1       1.479  -2.623 -10.975  0.00  0.00    -0.246 N 
ATOM     27  H   UNL     1       0.605  -2.590 -11.393  0.00  0.00    +0.172 HD
BRANCH  26  28
ATOM     28  C   UNL     1       2.590  -2.466 -11.723  0.00  0.00    +0.147 C 
ATOM     29  S   UNL     1       2.456  -2.209 -13.410  0.00  0.00    -0.017 S 
BRANCH  28  30
ATOM     30  N   UNL     1       3.805  -2.510 -11.143  0.00  0.00    -0.323 N 
ATOM     31  H   UNL     1       3.881  -2.656 -10.187  0.00  0.00    +0.148 HD
BRANCH  30  32
ATOM     32  C   UNL     1       5.012  -2.340 -11.955  0.00  0.00    +0.072 C 
ATOM     33  C   UNL     1       5.413  -3.686 -12.561  0.00  0.00    +0.022 C 
ATOM     34  C   UNL     1       6.674  -3.508 -13.410  0.00  0.00    +0.002 C 
ATOM     35  C   UNL     1       7.811  -2.985 -12.531  0.00  0.00    +0.000 C 
ATOM     36  C   UNL     1       7.410  -1.638 -11.925  0.00  0.00    +0.002 C 
ATOM     37  C   UNL     1       6.149  -1.817 -11.076  0.00  0.00    +0.022 C 
ENDBRANCH  30  32
ENDBRANCH  28  30
ENDBRANCH  26  28
ENDBRANCH  24  26
ENDBRANCH  21  22
ENDBRANCH   4  20
TORSDOF 10
