REMARK  Name = ZINC21223996
REMARK  9 active torsions:
REMARK  status: ('A' for Active; 'I' for Inactive)
REMARK    1  A    between atoms: C_1  and  C_2
REMARK    2  A    between atoms: C_2  and  C_3
REMARK    3  A    between atoms: C_2  and  C_4
REMARK    4  A    between atoms: C_4  and  O_5
REMARK    5  A    between atoms: O_5  and  C_6
REMARK    6  A    between atoms: C_9  and  C_12
REMARK    7  A    between atoms: C_17  and  C_23
REMARK    8  A    between atoms: C_27  and  O_29
REMARK    9  A    between atoms: O_29  and  C_30
REMARK                            x       y       z     vdW  Elec       q    Type
REMARK                         _______ _______ _______ _____ _____    ______ ____
ROOT
ATOM      1  C   UNL     1       2.256   4.022   1.563  0.00  0.00    +0.032 C 
ATOM      2  C   UNL     1       2.111   4.573   0.142  0.00  0.00    +0.059 C 
ATOM      3  C   UNL     1       3.384   5.274  -0.262  0.00  0.00    +0.018 C 
ATOM      4  C   UNL     1       4.159   5.886   0.659  0.00  0.00    +0.020 C 
ATOM      5  C   UNL     1       5.423   6.593   0.229  0.00  0.00    +0.063 C 
ATOM      6  C   UNL     1       5.210   7.222  -1.149  0.00  0.00    +0.109 C 
ATOM      7  C   UNL     1       4.598   6.197  -2.070  0.00  0.00    +0.218 C 
ATOM      8  O   UNL     1       4.880   6.199  -3.249  0.00  0.00    -0.275 OA
ATOM      9  N   UNL     1       3.741   5.282  -1.586  0.00  0.00    -0.289 N 
ATOM     10  C   UNL     1       3.816   5.884   2.021  0.00  0.00    +0.162 C 
ATOM     11  O   UNL     1       4.532   6.456   2.819  0.00  0.00    -0.292 OA
ATOM     12  C   UNL     1       2.575   5.186   2.508  0.00  0.00    +0.088 C 
ATOM     13  H   UNL     1       3.325   4.530  -2.272  0.00  0.00    +0.155 HD
ENDROOT
BRANCH   1  17
ATOM     14  C   UNL     1      -1.403   2.162   2.754  0.00  0.00    +0.121 A 
ATOM     15  C   UNL     1      -0.226   1.428   2.729  0.00  0.00    +0.046 A 
ATOM     16  C   UNL     1       0.955   2.031   2.342  0.00  0.00    +0.007 A 
ATOM     17  C   UNL     1       0.966   3.367   1.985  0.00  0.00    -0.043 A 
ATOM     18  C   UNL     1      -0.205   4.102   2.014  0.00  0.00    +0.007 A 
ATOM     19  C   UNL     1      -1.389   3.503   2.400  0.00  0.00    +0.046 A 
BRANCH  14  20
ATOM     20  O   UNL     1      -2.567   1.569   3.129  0.00  0.00    -0.492 OA
BRANCH  20  21
ATOM     21  C   UNL     1      -3.739   2.386   3.131  0.00  0.00    +0.232 C 
BRANCH  21  23
ATOM     22  C   UNL     1      -4.748   1.117   5.032  0.00  0.00    +0.010 C 
ATOM     23  C   UNL     1      -4.941   1.552   3.578  0.00  0.00    +0.020 C 
ATOM     24  C   UNL     1      -6.216   2.390   3.461  0.00  0.00    +0.010 C 
ENDBRANCH  21  23
ENDBRANCH  20  21
ENDBRANCH  14  20
ENDBRANCH   1  17
BRANCH   5  25
ATOM     25  C   UNL     1       6.554   5.600   0.159  0.00  0.00    -0.036 A 
ATOM     26  C   UNL     1       6.468   4.513  -0.692  0.00  0.00    +0.004 A 
ATOM     27  C   UNL     1       7.507   3.603  -0.762  0.00  0.00    +0.004 A 
ATOM     28  C   UNL     1       8.630   3.773   0.025  0.00  0.00    +0.046 A 
ATOM     29  C   UNL     1       8.716   4.859   0.883  0.00  0.00    +0.129 A 
ATOM     30  C   UNL     1       7.675   5.774   0.948  0.00  0.00    +0.050 A 
BRANCH  29  31
ATOM     31  O   UNL     1       9.819   5.028   1.659  0.00  0.00    -0.456 OA
BRANCH  31  32
ATOM     32  C   UNL     1      10.819   4.114   1.553  0.00  0.00    +0.128 A 
ATOM     33  C   UNL     1      10.824   2.992   2.370  0.00  0.00    +0.046 A 
ATOM     34  C   UNL     1      11.838   2.061   2.256  0.00  0.00    +0.004 A 
ATOM     35  C   UNL     1      12.854   2.253   1.339  0.00  0.00    +0.000 A 
ATOM     36  C   UNL     1      12.855   3.372   0.527  0.00  0.00    +0.004 A 
ATOM     37  C   UNL     1      11.840   4.303   0.632  0.00  0.00    +0.046 A 
ENDBRANCH  31  32
ENDBRANCH  29  31
ENDBRANCH   5  25
TORSDOF 7
