REMARK  Name = ZINC13051994
REMARK  16 active torsions:
REMARK  status: ('A' for Active; 'I' for Inactive)
REMARK    1  A    between atoms: C_1  and  C_2
REMARK    2  A    between atoms: C_4  and  C_13
REMARK    3  A    between atoms: C_5  and  C_12
REMARK    4  A    between atoms: N_6  and  C_7
REMARK    5  A    between atoms: C_7  and  C_8
REMARK    6  A    between atoms: C_8  and  C_9
REMARK    7  A    between atoms: C_9  and  O_10
REMARK    8  A    between atoms: O_10  and  C_11
REMARK    9  A    between atoms: C_13  and  C_15
REMARK   10  A    between atoms: C_15  and  S_16
REMARK   11  A    between atoms: S_16  and  C_17
REMARK   12  A    between atoms: C_21  and  C_33
REMARK   13  A    between atoms: N_27  and  C_28
REMARK   14  A    between atoms: C_28  and  C_29
REMARK   15  A    between atoms: C_29  and  C_31
REMARK   16  A    between atoms: C_29  and  O_32
REMARK                            x       y       z     vdW  Elec       q    Type
REMARK                         _______ _______ _______ _____ _____    ______ ____
ROOT
ATOM      1  C   UNL     1      -0.368  -0.105   3.007  0.00  0.00    +0.173 A 
ATOM      2  N   UNL     1       0.225  -0.603   4.064  0.00  0.00    -0.223 NA
ATOM      3  C   UNL     1       1.228   0.056   4.690  0.00  0.00    +0.080 A 
ATOM      4  C   UNL     1       1.856  -0.475   5.821  0.00  0.00    +0.043 A 
ATOM      5  C   UNL     1       2.881   0.236   6.430  0.00  0.00    +0.065 A 
ATOM      6  C   UNL     1       3.287   1.476   5.919  0.00  0.00    +0.016 A 
ATOM      7  C   UNL     1       2.681   2.005   4.815  0.00  0.00    +0.016 A 
ATOM      8  C   UNL     1       1.649   1.308   4.188  0.00  0.00    +0.065 A 
ATOM      9  C   UNL     1       0.969   1.840   2.996  0.00  0.00    +0.262 A 
ATOM     10  O   UNL     1       1.286   2.912   2.516  0.00  0.00    -0.267 OA
ATOM     11  N   UNL     1      -0.020   1.094   2.454  0.00  0.00    -0.285 N 
ENDROOT
BRANCH   5  12
ATOM     12  C   UNL     1       3.551  -0.319   7.627  0.00  0.00    +0.387 C 
ATOM     13  O   UNL     1       3.203  -1.393   8.073  0.00  0.00    -0.241 OA
ATOM     14  O   UNL     1       4.545   0.367   8.221  0.00  0.00    -0.241 OA
ENDBRANCH   5  12
BRANCH   1  15
ATOM     15  S   UNL     1      -1.670  -1.029   2.260  0.00  0.00    -0.080 S 
BRANCH  15  16
ATOM     16  C   UNL     1      -1.704  -2.467   3.358  0.00  0.00    +0.157 C 
BRANCH  16  17
ATOM     17  C   UNL     1      -2.775  -3.424   2.900  0.00  0.00    +0.175 C 
ATOM     18  O   UNL     1      -3.448  -3.159   1.926  0.00  0.00    -0.291 OA
BRANCH  17  22
ATOM     19  C   UNL     1      -2.403  -7.200   6.300  0.00  0.00    +0.063 C 
ATOM     20  C   UNL     1      -2.823  -6.334   5.141  0.00  0.00    +0.017 A 
ATOM     21  C   UNL     1      -2.278  -5.150   4.815  0.00  0.00    +0.034 A 
ATOM     22  C   UNL     1      -3.002  -4.673   3.629  0.00  0.00    +0.039 A 
ATOM     23  C   UNL     1      -3.937  -5.649   3.340  0.00  0.00    +0.026 A 
ATOM     24  N   UNL     1      -3.815  -6.630   4.251  0.00  0.00    -0.347 N 
ATOM     25  C   UNL     1      -4.922  -5.618   2.200  0.00  0.00    +0.064 C 
BRANCH  24  26
ATOM     26  C   UNL     1      -4.632  -7.846   4.285  0.00  0.00    +0.124 C 
BRANCH  26  27
ATOM     27  C   UNL     1      -3.958  -8.936   3.450  0.00  0.00    +0.049 C 
BRANCH  27  28
ATOM     28  C   UNL     1      -4.811 -10.206   3.485  0.00  0.00    +0.161 C 
BRANCH  28  29
ATOM     29  O   UNL     1      -4.182 -11.225   2.705  0.00  0.00    -0.383 OA
ATOM     30  C   UNL     1      -4.901 -12.459   2.672  0.00  0.00    +0.193 C 
ENDBRANCH  28  29
ENDBRANCH  27  28
ENDBRANCH  26  27
ENDBRANCH  24  26
ENDBRANCH  17  22
ENDBRANCH  16  17
ENDBRANCH  15  16
ENDBRANCH   1  15
BRANCH  11  31
ATOM     31  C   UNL     1      -0.729   1.579   1.267  0.00  0.00    +0.158 C 
BRANCH  31  32
ATOM     32  C   UNL     1      -0.013   1.086   0.008  0.00  0.00    +0.131 C 
ATOM     33  C   UNL     1      -0.753   1.593  -1.232  0.00  0.00    +0.039 C 
BRANCH  32  34
ATOM     34  O   UNL     1       1.328   1.580  -0.002  0.00  0.00    -0.390 OA
ATOM     35  H   UNL     1       1.391   2.545   0.002  0.00  0.00    +0.210 HD
ENDBRANCH  32  34
ENDBRANCH  31  32
ENDBRANCH  11  31
TORSDOF 12
