REMARK  Name = ZINC34992621
REMARK  11 active torsions:
REMARK  status: ('A' for Active; 'I' for Inactive)
REMARK    1  A    between atoms: C_1  and  C_2
REMARK    2  A    between atoms: C_2  and  O_3
REMARK    3  A    between atoms: O_3  and  C_4
REMARK    4  A    between atoms: C_5  and  C_12
REMARK    5  A    between atoms: C_12  and  N_13
REMARK    6  A    between atoms: N_13  and  C_14
REMARK    7  A    between atoms: C_14  and  C_15
REMARK    8  A    between atoms: C_15  and  N_16
REMARK    9  A    between atoms: C_17  and  C_19
REMARK   10  A    between atoms: C_19  and  C_20
REMARK   11  A    between atoms: C_19  and  C_21
REMARK                            x       y       z     vdW  Elec       q    Type
REMARK                         _______ _______ _______ _____ _____    ______ ____
ROOT
ATOM      1  C   UNL     1      -1.405  -1.983  -2.390  0.00  0.00    -0.043 C 
ENDROOT
BRANCH   1   3
ATOM      2  C   UNL     1      -1.343  -1.854   0.113  0.00  0.00    +0.136 A 
ATOM      3  C   UNL     1      -1.534  -2.618  -1.029  0.00  0.00    -0.021 A 
ATOM      4  C   UNL     1      -1.844  -3.959  -0.919  0.00  0.00    +0.020 A 
ATOM      5  C   UNL     1      -1.963  -4.543   0.330  0.00  0.00    +0.019 A 
ATOM      6  C   UNL     1      -1.774  -3.784   1.471  0.00  0.00    +0.034 A 
ATOM      7  C   UNL     1      -1.458  -2.442   1.365  0.00  0.00    +0.061 A 
ATOM      8 BR   UNL     1      -1.191  -1.407   2.925  0.00  0.00    -0.046 Br
ATOM      9 BR   UNL     1      -2.386  -6.380   0.478  0.00  0.00    -0.050 Br
BRANCH   2  10
ATOM     10  O   UNL     1      -1.039  -0.534   0.007  0.00  0.00    -0.491 OA
BRANCH  10  12
ATOM     11  C   UNL     1      -1.591   1.819   0.018  0.00  0.00    +0.048 C 
ATOM     12  C   UNL     1      -2.131   0.388   0.024  0.00  0.00    +0.226 C 
ENDBRANCH  10  12
ENDBRANCH   2  10
ENDBRANCH   1   3
BRANCH   1  13
ATOM     13  N   UNL     1       0.017  -1.819  -2.721  0.00  0.00    +0.383 N 
ATOM     14  H   UNL     1       0.440  -1.169  -2.076  0.00  0.00    -0.085 HD
ATOM     15  H   UNL     1       0.483  -2.712  -2.653  0.00  0.00    -0.085 HD
BRANCH  13  16
ATOM     16  C   UNL     1       0.144  -1.304  -4.090  0.00  0.00    -0.063 C 
BRANCH  16  17
ATOM     17  C   UNL     1       1.625  -1.133  -4.435  0.00  0.00    +0.085 C 
BRANCH  17  18
ATOM     18  N   UNL     1       1.753  -0.618  -5.801  0.00  0.00    -0.317 N 
ATOM     19  C   UNL     1       2.974  -0.389  -6.323  0.00  0.00    +0.216 C 
ATOM     20  O   UNL     1       3.967  -0.608  -5.662  0.00  0.00    -0.276 OA
ATOM     21  H   UNL     1       0.958  -0.443  -6.329  0.00  0.00    +0.149 HD
BRANCH  19  22
ATOM     22  C   UNL     1       3.105   0.141  -7.728  0.00  0.00    +0.069 C 
ATOM     23  C   UNL     1       2.398   1.494  -7.831  0.00  0.00    +0.017 C 
ATOM     24  C   UNL     1       4.586   0.311  -8.073  0.00  0.00    +0.017 C 
ENDBRANCH  19  22
ENDBRANCH  17  18
ENDBRANCH  16  17
ENDBRANCH  13  16
ENDBRANCH   1  13
TORSDOF 8
