REMARK  Name = ZINC38547820
REMARK  8 active torsions:
REMARK  status: ('A' for Active; 'I' for Inactive)
REMARK    1  A    between atoms: C_1  and  C_2
REMARK    2  A    between atoms: C_2  and  C_3
REMARK    3  A    between atoms: C_5  and  C_16
REMARK    4  A    between atoms: C_6  and  N_8
REMARK    5  A    between atoms: C_9  and  C_11
REMARK    6  A    between atoms: C_16  and  C_18
REMARK    7  A    between atoms: C_16  and  N_24
REMARK    8  A    between atoms: C_27  and  C_31
REMARK                            x       y       z     vdW  Elec       q    Type
REMARK                         _______ _______ _______ _____ _____    ______ ____
ROOT
ATOM      1  C   UNL     1      -4.422  -1.629  -1.927  0.00  0.00    +0.136 C 
ENDROOT
BRANCH   1   2
ATOM      2  N   UNL     1      -4.037  -0.862  -3.113  0.00  0.00    -0.320 N 
ATOM      3  C   UNL     1      -5.001  -0.493  -4.045  0.00  0.00    +0.097 A 
ATOM      4  C   UNL     1      -6.330  -0.852  -3.842  0.00  0.00    +0.045 A 
ATOM      5  C   UNL     1      -7.277  -0.479  -4.778  0.00  0.00    -0.046 A 
ATOM      6  C   UNL     1      -6.864   0.243  -5.889  0.00  0.00    +0.021 A 
ATOM      7  C   UNL     1      -5.529   0.565  -6.027  0.00  0.00    +0.084 A 
ATOM      8  N   UNL     1      -4.646   0.201  -5.116  0.00  0.00    -0.350 N 
ATOM      9  C   UNL     1      -8.727  -0.849  -4.595  0.00  0.00    +0.044 C 
ATOM     10  H   UNL     1      -3.111  -0.610  -3.249  0.00  0.00    +0.148 HD
ATOM     11  H   UNL     1      -3.715   0.444  -5.235  0.00  0.00    +0.166 HD
ENDBRANCH   1   2
BRANCH   1  12
ATOM     12  C   UNL     1      -4.455  -3.097  -2.267  0.00  0.00    -0.005 A 
ATOM     13  C   UNL     1      -5.461  -3.911  -1.769  0.00  0.00    +0.009 A 
ATOM     14  C   UNL     1      -5.450  -5.255  -2.108  0.00  0.00    +0.020 A 
ATOM     15  C   UNL     1      -4.444  -5.736  -2.925  0.00  0.00    +0.111 A 
ATOM     16  N   UNL     1      -3.503  -4.933  -3.380  0.00  0.00    -0.263 NA
ATOM     17  C   UNL     1      -3.485  -3.648  -3.083  0.00  0.00    +0.116 A 
ENDBRANCH   1  12
BRANCH   1  20
ATOM     18  C   UNL     1      -1.239  -0.840  -0.114  0.00  0.00    -0.008 A 
ATOM     19  C   UNL     1      -2.114  -1.048  -1.127  0.00  0.00    +0.019 A 
ATOM     20  C   UNL     1      -3.420  -1.390  -0.827  0.00  0.00    +0.006 A 
ATOM     21  C   UNL     1      -3.784  -1.507   0.481  0.00  0.00    +0.078 A 
ATOM     22  S   UNL     1      -2.255  -1.135   1.324  0.00  0.00    -0.078 S 
BRANCH  21  23
ATOM     23  N   UNL     1      -5.029  -1.837   1.021  0.00  0.00    -0.273 N 
ATOM     24  C   UNL     1      -5.187  -1.902   2.358  0.00  0.00    +0.284 C 
ATOM     25  O   UNL     1      -4.245  -1.671   3.095  0.00  0.00    -0.266 OA
ATOM     26  H   UNL     1      -5.779  -2.021   0.435  0.00  0.00    +0.156 HD
BRANCH  24  27
ATOM     27  C   UNL     1      -6.494  -2.248   2.926  0.00  0.00    +0.189 A 
ATOM     28  C   UNL     1      -6.792  -2.343   4.255  0.00  0.00    +0.054 A 
ATOM     29  C   UNL     1      -8.148  -2.696   4.341  0.00  0.00    +0.042 A 
ATOM     30  C   UNL     1      -8.612  -2.800   3.076  0.00  0.00    +0.196 A 
ATOM     31  O   UNL     1      -7.614  -2.525   2.226  0.00  0.00    -0.458 OA
ENDBRANCH  24  27
ENDBRANCH  21  23
BRANCH  18  33
ATOM     32  C   UNL     1       0.352   1.061  -0.175  0.00  0.00    +0.009 C 
ATOM     33  C   UNL     1       0.218  -0.463  -0.183  0.00  0.00    +0.039 C 
ENDBRANCH  18  33
ENDBRANCH   1  20
TORSDOF 6
