REMARK  Name = ZINC01382647
REMARK  7 active torsions:
REMARK  status: ('A' for Active; 'I' for Inactive)
REMARK    1  A    between atoms: C_1  and  C_2
REMARK    2  A    between atoms: C_5  and  N_8
REMARK    3  A    between atoms: N_8  and  C_9
REMARK    4  A    between atoms: C_9  and  C_11
REMARK    5  A    between atoms: C_9  and  C_18
REMARK    6  A    between atoms: N_20  and  C_21
REMARK    7  A    between atoms: C_26  and  C_28
REMARK                            x       y       z     vdW  Elec       q    Type
REMARK                         _______ _______ _______ _____ _____    ______ ____
ROOT
ATOM      1  N   UNL     1       3.868  -2.066   0.368  0.00  0.00    -0.251 N 
ATOM      2  C   UNL     1       3.820  -0.726   0.508  0.00  0.00    +0.252 C 
ATOM      3  O   UNL     1       3.039  -0.225   1.293  0.00  0.00    -0.270 OA
ENDROOT
BRANCH   2   4
ATOM      4  C   UNL     1       4.716   0.132  -0.291  0.00  0.00    +0.041 A 
ATOM      5  C   UNL     1       5.921  -0.378  -0.782  0.00  0.00    +0.017 A 
ATOM      6  C   UNL     1       6.755   0.426  -1.526  0.00  0.00    +0.050 A 
ATOM      7  C   UNL     1       6.405   1.745  -1.792  0.00  0.00    +0.162 A 
ATOM      8  C   UNL     1       5.204   2.258  -1.308  0.00  0.00    +0.163 A 
ATOM      9  C   UNL     1       4.362   1.457  -0.559  0.00  0.00    +0.062 A 
ATOM     10  O   UNL     1       4.843   3.545  -1.567  0.00  0.00    -0.485 OA
ATOM     11  C   UNL     1       5.880   4.429  -2.003  0.00  0.00    +0.270 C 
ATOM     12  C   UNL     1       6.695   3.715  -3.090  0.00  0.00    +0.270 C 
ATOM     13  O   UNL     1       7.248   2.522  -2.522  0.00  0.00    -0.485 OA
ENDBRANCH   2   4
BRANCH   1  18
ATOM     14  C   UNL     1      -0.241  -5.298   2.569  0.00  0.00    +0.044 C 
ATOM     15  C   UNL     1       0.851  -4.439   1.984  0.00  0.00    -0.050 A 
ATOM     16  C   UNL     1       2.100  -4.415   2.576  0.00  0.00    +0.005 A 
ATOM     17  C   UNL     1       3.103  -3.629   2.042  0.00  0.00    +0.024 A 
ATOM     18  C   UNL     1       2.855  -2.862   0.911  0.00  0.00    +0.038 A 
ATOM     19  C   UNL     1       1.597  -2.884   0.323  0.00  0.00    +0.024 A 
ATOM     20  C   UNL     1       0.600  -3.676   0.858  0.00  0.00    +0.005 A 
ENDBRANCH   1  18
BRANCH   1  21
ATOM     21  C   UNL     1       4.982  -2.687  -0.353  0.00  0.00    +0.197 C 
BRANCH  21  22
ATOM     22  C   UNL     1       4.771  -4.178  -0.414  0.00  0.00    -0.018 A 
ATOM     23  C   UNL     1       3.735  -4.699  -1.166  0.00  0.00    +0.009 A 
ATOM     24  C   UNL     1       3.544  -6.066  -1.228  0.00  0.00    +0.038 A 
ATOM     25  C   UNL     1       4.384  -6.914  -0.525  0.00  0.00    +0.123 A 
ATOM     26  C   UNL     1       5.418  -6.391   0.232  0.00  0.00    +0.038 A 
ATOM     27  C   UNL     1       5.610  -5.024   0.287  0.00  0.00    +0.009 A 
ATOM     28  F   UNL     1       4.194  -8.251  -0.580  0.00  0.00    -0.205 F 
ENDBRANCH  21  22
BRANCH  21  29
ATOM     29  C   UNL     1       5.047  -2.131  -1.752  0.00  0.00    +0.239 C 
ATOM     30  O   UNL     1       4.243  -1.298  -2.112  0.00  0.00    -0.273 OA
ATOM     31  N   UNL     1       5.999  -2.560  -2.604  0.00  0.00    -0.311 N 
ATOM     32  H   UNL     1       6.643  -3.227  -2.316  0.00  0.00    +0.149 HD
BRANCH  31  33
ATOM     33  C   UNL     1       6.063  -2.020  -3.964  0.00  0.00    +0.073 C 
ATOM     34  C   UNL     1       5.158  -2.845  -4.903  0.00  0.00    +0.022 C 
ATOM     35  C   UNL     1       5.942  -2.895  -6.238  0.00  0.00    +0.002 C 
ATOM     36  C   UNL     1       7.411  -3.038  -5.767  0.00  0.00    +0.002 C 
ATOM     37  C   UNL     1       7.495  -2.143  -4.514  0.00  0.00    +0.022 C 
ENDBRANCH  31  33
ENDBRANCH  21  29
ENDBRANCH   1  21
TORSDOF 6
