REMARK  Name = ZINC02840472
REMARK  11 active torsions:
REMARK  status: ('A' for Active; 'I' for Inactive)
REMARK    1  A    between atoms: C_1  and  C_2
REMARK    2  A    between atoms: C_2  and  C_3
REMARK    3  A    between atoms: C_4  and  C_33
REMARK    4  A    between atoms: C_6  and  N_10
REMARK    5  A    between atoms: C_7  and  C_8
REMARK    6  A    between atoms: C_11  and  C_13
REMARK    7  A    between atoms: C_13  and  C_15
REMARK    8  A    between atoms: C_13  and  S_16
REMARK    9  A    between atoms: S_16  and  C_17
REMARK   10  A    between atoms: C_19  and  C_27
REMARK   11  A    between atoms: C_21  and  C_23
REMARK                            x       y       z     vdW  Elec       q    Type
REMARK                         _______ _______ _______ _____ _____    ______ ____
ROOT
ATOM      1  S   UNL     1      -2.642   0.843  -0.565  0.00  0.00    -0.074 S 
ENDROOT
BRANCH   1   2
ATOM      2  C   UNL     1      -3.996   1.969  -0.596  0.00  0.00    +0.190 A 
ATOM      3  N   UNL     1      -5.187   1.537  -0.982  0.00  0.00    -0.222 NA
ATOM      4  C   UNL     1      -6.229   2.363  -1.016  0.00  0.00    +0.076 A 
ATOM      5  C   UNL     1      -6.050   3.696  -0.638  0.00  0.00    +0.060 A 
ATOM      6  C   UNL     1      -4.789   4.105  -0.242  0.00  0.00    +0.148 A 
ATOM      7  N   UNL     1      -3.798   3.227  -0.227  0.00  0.00    -0.218 NA
BRANCH   4   8
ATOM      8  C   UNL     1      -7.561   1.876  -1.450  0.00  0.00    +0.000 A 
ATOM      9  C   UNL     1      -8.649   2.747  -1.477  0.00  0.00    +0.010 A 
ATOM     10  C   UNL     1      -9.886   2.290  -1.886  0.00  0.00    +0.001 A 
ATOM     11  C   UNL     1     -10.049   0.967  -2.258  0.00  0.00    +0.000 A 
ATOM     12  C   UNL     1      -8.974   0.097  -2.228  0.00  0.00    +0.001 A 
ATOM     13  C   UNL     1      -7.732   0.545  -1.826  0.00  0.00    +0.010 A 
ENDBRANCH   4   8
BRANCH   6  14
ATOM     14  C   UNL     1      -4.547   5.533   0.174  0.00  0.00    +0.434 C 
ATOM     15  F   UNL     1      -4.763   5.661   1.551  0.00  0.00    -0.164 F 
ATOM     16  F   UNL     1      -3.228   5.889  -0.126  0.00  0.00    -0.164 F 
ATOM     17  F   UNL     1      -5.426   6.375  -0.516  0.00  0.00    -0.164 F 
ENDBRANCH   6  14
ENDBRANCH   1   2
BRANCH   1  18
ATOM     18  C   UNL     1      -1.330   1.944   0.019  0.00  0.00    +0.137 C 
ATOM     19  C   UNL     1      -1.646   2.404   1.444  0.00  0.00    +0.029 C 
BRANCH  18  21
ATOM     20  N   UNL     1       1.143   1.898   0.001  0.00  0.00    -0.278 N 
ATOM     21  C   UNL     1      -0.014   1.209   0.009  0.00  0.00    +0.231 C 
ATOM     22  O   UNL     1       0.002  -0.004   0.002  0.00  0.00    -0.274 OA
ATOM     23  H   UNL     1       1.130   2.868   0.007  0.00  0.00    +0.155 HD
BRANCH  20  27
ATOM     24  C   UNL     1       4.731   0.806  -0.039  0.00  0.00    -0.018 A 
ATOM     25  C   UNL     1       4.412  -0.502  -0.043  0.00  0.00    -0.007 A 
ATOM     26  S   UNL     1       2.631  -0.489  -0.018  0.00  0.00    -0.077 S 
ATOM     27  C   UNL     1       2.355   1.221  -0.014  0.00  0.00    +0.090 A 
ATOM     28  C   UNL     1       3.639   1.750  -0.023  0.00  0.00    +0.084 A 
ATOM     29  C   UNL     1       5.338  -1.690  -0.057  0.00  0.00    +0.052 C 
BRANCH  24  31
ATOM     30  C   UNL     1       6.666   1.412   1.388  0.00  0.00    +0.009 C 
ATOM     31  C   UNL     1       6.166   1.264  -0.051  0.00  0.00    +0.034 C 
ENDBRANCH  24  31
BRANCH  28  32
ATOM     32  C   UNL     1       3.869   3.163  -0.017  0.00  0.00    +0.102 C 
ATOM     33  N   UNL     1       4.051   4.284  -0.013  0.00  0.00    -0.191 NA
ENDBRANCH  28  32
ENDBRANCH  20  27
ENDBRANCH  18  21
ENDBRANCH   1  18
TORSDOF 8
