REMARK  Name = ZINC59385516
REMARK  8 active torsions:
REMARK  status: ('A' for Active; 'I' for Inactive)
REMARK    1  A    between atoms: C_1  and  C_2
REMARK    2  A    between atoms: C_2  and  O_3
REMARK    3  A    between atoms: O_3  and  C_4
REMARK    4  A    between atoms: C_7  and  C_10
REMARK    5  A    between atoms: N_11  and  N_12
REMARK    6  A    between atoms: C_13  and  C_15
REMARK    7  A    between atoms: C_16  and  C_30
REMARK    8  A    between atoms: C_21  and  C_23
REMARK                            x       y       z     vdW  Elec       q    Type
REMARK                         _______ _______ _______ _____ _____    ______ ____
ROOT
ATOM      1  C   UNL     1      -4.969  -9.992  -0.050  0.00  0.00    +0.057 C 
ATOM      2  C   UNL     1      -6.181 -10.585  -0.021  0.00  0.00    +0.019 C 
ATOM      3  N   UNL     1      -6.299 -11.942   0.092  0.00  0.00    -0.273 N 
ATOM      4  C   UNL     1      -5.253 -12.774   0.182  0.00  0.00    +0.304 C 
ATOM      5  O   UNL     1      -5.458 -13.968   0.280  0.00  0.00    -0.252 OA
ATOM      6  N   UNL     1      -3.981 -12.330   0.167  0.00  0.00    -0.288 N 
ATOM      7  C   UNL     1      -3.745 -10.881   0.042  0.00  0.00    +0.142 C 
ATOM      8  C   UNL     1      -7.423  -9.738  -0.116  0.00  0.00    +0.061 C 
ATOM      9  H   UNL     1      -7.191 -12.324   0.108  0.00  0.00    +0.156 HD
ATOM     10  H   UNL     1      -3.238 -12.950   0.233  0.00  0.00    +0.151 HD
ENDROOT
BRANCH   7  11
ATOM     11  C   UNL     1      -2.908 -10.647  -1.189  0.00  0.00    -0.022 A 
ATOM     12  C   UNL     1      -3.260 -11.237  -2.388  0.00  0.00    +0.007 A 
ATOM     13  C   UNL     1      -2.493 -11.022  -3.517  0.00  0.00    +0.015 A 
ATOM     14  C   UNL     1      -1.371 -10.216  -3.446  0.00  0.00    +0.018 A 
ATOM     15  C   UNL     1      -1.018  -9.626  -2.246  0.00  0.00    +0.015 A 
ATOM     16  C   UNL     1      -1.789  -9.837  -1.119  0.00  0.00    +0.007 A 
ATOM     17 BR   UNL     1      -0.319  -9.922  -4.990  0.00  0.00    -0.050 Br
ENDBRANCH   7  11
BRANCH   1  19
ATOM     18  N   UNL     1      -4.981  -7.995  -1.371  0.00  0.00    -0.203 N 
ATOM     19  C   UNL     1      -4.845  -8.586  -0.167  0.00  0.00    +0.263 C 
ATOM     20  O   UNL     1      -4.614  -7.910   0.820  0.00  0.00    -0.269 OA
ATOM     21  H   UNL     1      -5.093  -8.537  -2.167  0.00  0.00    +0.178 HD
BRANCH  18  23
ATOM     22  C   UNL     1      -5.095  -6.029  -2.631  0.00  0.00    +0.138 C 
ATOM     23  N   UNL     1      -4.963  -6.598  -1.472  0.00  0.00    -0.187 NA
BRANCH  22  27
ATOM     24  C   UNL     1      -5.039  -1.795  -2.937  0.00  0.00    +0.121 A 
ATOM     25  C   UNL     1      -5.198  -2.570  -4.079  0.00  0.00    +0.046 A 
ATOM     26  C   UNL     1      -5.217  -3.945  -3.985  0.00  0.00    +0.013 A 
ATOM     27  C   UNL     1      -5.075  -4.559  -2.738  0.00  0.00    -0.005 A 
ATOM     28  C   UNL     1      -4.915  -3.776  -1.592  0.00  0.00    +0.013 A 
ATOM     29  C   UNL     1      -4.892  -2.402  -1.696  0.00  0.00    +0.046 A 
BRANCH  24  30
ATOM     30  O   UNL     1      -5.021  -0.440  -3.035  0.00  0.00    -0.492 OA
BRANCH  30  32
ATOM     31  C   UNL     1      -5.133   1.645  -4.252  0.00  0.00    +0.048 C 
ATOM     32  C   UNL     1      -5.178   0.118  -4.341  0.00  0.00    +0.225 C 
ENDBRANCH  30  32
ENDBRANCH  24  30
ENDBRANCH  22  27
ENDBRANCH  18  23
ENDBRANCH   1  19
TORSDOF 6
