REMARK  Name = ZINC63318901
REMARK  9 active torsions:
REMARK  status: ('A' for Active; 'I' for Inactive)
REMARK    1  A    between atoms: C_1  and  C_2
REMARK    2  A    between atoms: C_2  and  C_3
REMARK    3  A    between atoms: C_3  and  C_4
REMARK    4  A    between atoms: C_4  and  O_5
REMARK    5  A    between atoms: O_5  and  C_6
REMARK    6  A    between atoms: C_9  and  C_12
REMARK    7  A    between atoms: N_13  and  N_14
REMARK    8  A    between atoms: C_15  and  C_17
REMARK    9  A    between atoms: C_19  and  C_28
REMARK                            x       y       z     vdW  Elec       q    Type
REMARK                         _______ _______ _______ _____ _____    ______ ____
ROOT
ATOM      1  N   UNL     1       2.541  -9.964   4.212  0.00  0.00    -0.205 N 
ATOM      2  C   UNL     1       3.241 -10.473   5.244  0.00  0.00    +0.259 C 
ATOM      3  O   UNL     1       3.841  -9.732   5.994  0.00  0.00    -0.271 OA
ATOM      4  H   UNL     1       2.112 -10.559   3.576  0.00  0.00    +0.177 HD
ENDROOT
BRANCH   2   5
ATOM      5  C   UNL     1       3.280 -11.963   5.468  0.00  0.00    +0.199 C 
ATOM      6  C   UNL     1       4.437 -12.574   4.708  0.00  0.00    -0.000 C 
ATOM      7  C   UNL     1       5.248 -13.156   5.667  0.00  0.00    +0.005 A 
ATOM      8  C   UNL     1       6.466 -13.873   5.582  0.00  0.00    +0.025 A 
ATOM      9  C   UNL     1       7.052 -14.339   6.712  0.00  0.00    +0.019 A 
ATOM     10  C   UNL     1       6.483 -14.130   7.975  0.00  0.00    +0.017 A 
ATOM     11  C   UNL     1       5.321 -13.454   8.133  0.00  0.00    +0.027 A 
ATOM     12  C   UNL     1       4.645 -12.934   6.995  0.00  0.00    +0.044 A 
ATOM     13  N   UNL     1       3.523 -12.255   6.883  0.00  0.00    -0.370 N 
ATOM     14 BR   UNL     1       8.678 -15.295   6.582  0.00  0.00    -0.050 Br
ATOM     15  H   UNL     1       2.950 -11.990   7.619  0.00  0.00    +0.161 HD
BRANCH   6  16
ATOM     16  C   UNL     1       4.653 -12.554   3.260  0.00  0.00    -0.019 A 
ATOM     17  C   UNL     1       5.947 -12.693   2.738  0.00  0.00    +0.008 A 
ATOM     18  C   UNL     1       6.141 -12.673   1.375  0.00  0.00    +0.001 A 
ATOM     19  C   UNL     1       5.063 -12.517   0.520  0.00  0.00    +0.000 A 
ATOM     20  C   UNL     1       3.781 -12.379   1.026  0.00  0.00    +0.001 A 
ATOM     21  C   UNL     1       3.567 -12.402   2.386  0.00  0.00    +0.008 A 
ENDBRANCH   6  16
ENDBRANCH   2   5
BRANCH   1  23
ATOM     22  C   UNL     1       1.757  -8.086   3.061  0.00  0.00    +0.138 C 
ATOM     23  N   UNL     1       2.432  -8.576   4.056  0.00  0.00    -0.188 NA
BRANCH  22  27
ATOM     24  C   UNL     1       1.426  -3.880   2.588  0.00  0.00    +0.121 A 
ATOM     25  C   UNL     1       0.811  -4.729   1.677  0.00  0.00    +0.046 A 
ATOM     26  C   UNL     1       0.916  -6.095   1.827  0.00  0.00    +0.013 A 
ATOM     27  C   UNL     1       1.642  -6.625   2.897  0.00  0.00    -0.005 A 
ATOM     28  C   UNL     1       2.259  -5.767   3.811  0.00  0.00    +0.013 A 
ATOM     29  C   UNL     1       2.153  -4.402   3.651  0.00  0.00    +0.046 A 
BRANCH  24  30
ATOM     30  O   UNL     1       1.320  -2.534   2.437  0.00  0.00    -0.492 OA
BRANCH  30  31
ATOM     31  C   UNL     1       0.558  -2.064   1.323  0.00  0.00    +0.229 C 
BRANCH  31  32
ATOM     32  C   UNL     1       0.552  -0.534   1.318  0.00  0.00    +0.041 C 
BRANCH  32  34
ATOM     33  C   UNL     1      -0.270   1.499   0.121  0.00  0.00    +0.004 C 
ATOM     34  C   UNL     1      -0.264  -0.031   0.126  0.00  0.00    -0.000 C 
ENDBRANCH  32  34
ENDBRANCH  31  32
ENDBRANCH  30  31
ENDBRANCH  24  30
ENDBRANCH  22  27
ENDBRANCH   1  23
TORSDOF 8
