REMARK  Name = ZINC12637687
REMARK  8 active torsions:
REMARK  status: ('A' for Active; 'I' for Inactive)
REMARK    1  A    between atoms: C_1  and  C_2
REMARK    2  A    between atoms: C_5  and  N_8
REMARK    3  A    between atoms: N_8  and  C_9
REMARK    4  A    between atoms: C_9  and  C_11
REMARK    5  A    between atoms: C_9  and  C_18
REMARK    6  A    between atoms: C_14  and  O_17
REMARK    7  A    between atoms: N_20  and  C_21
REMARK    8  A    between atoms: C_26  and  C_28
REMARK                            x       y       z     vdW  Elec       q    Type
REMARK                         _______ _______ _______ _____ _____    ______ ____
ROOT
ATOM      1  N   UNL     1       3.869  -2.066   0.369  0.00  0.00    -0.251 N 
ATOM      2  C   UNL     1       3.821  -0.726   0.509  0.00  0.00    +0.252 C 
ATOM      3  O   UNL     1       3.040  -0.224   1.294  0.00  0.00    -0.270 OA
ENDROOT
BRANCH   2   4
ATOM      4  C   UNL     1       4.716   0.132  -0.291  0.00  0.00    +0.041 A 
ATOM      5  C   UNL     1       5.920  -0.378  -0.783  0.00  0.00    +0.017 A 
ATOM      6  C   UNL     1       6.755   0.425  -1.528  0.00  0.00    +0.050 A 
ATOM      7  C   UNL     1       6.404   1.744  -1.794  0.00  0.00    +0.162 A 
ATOM      8  C   UNL     1       5.204   2.257  -1.310  0.00  0.00    +0.163 A 
ATOM      9  C   UNL     1       4.362   1.456  -0.559  0.00  0.00    +0.062 A 
ATOM     10  O   UNL     1       4.842   3.544  -1.569  0.00  0.00    -0.485 OA
ATOM     11  C   UNL     1       5.879   4.428  -2.006  0.00  0.00    +0.270 C 
ATOM     12  C   UNL     1       6.694   3.713  -3.093  0.00  0.00    +0.270 C 
ATOM     13  O   UNL     1       7.247   2.521  -2.525  0.00  0.00    -0.485 OA
ENDBRANCH   2   4
BRANCH   1  18
ATOM     14  C   UNL     1      -0.238  -5.297   2.576  0.00  0.00    +0.044 C 
ATOM     15  C   UNL     1       0.853  -4.439   1.990  0.00  0.00    -0.050 A 
ATOM     16  C   UNL     1       2.104  -4.414   2.580  0.00  0.00    +0.005 A 
ATOM     17  C   UNL     1       3.106  -3.628   2.045  0.00  0.00    +0.024 A 
ATOM     18  C   UNL     1       2.856  -2.862   0.913  0.00  0.00    +0.038 A 
ATOM     19  C   UNL     1       1.597  -2.884   0.327  0.00  0.00    +0.024 A 
ATOM     20  C   UNL     1       0.601  -3.676   0.864  0.00  0.00    +0.005 A 
ENDBRANCH   1  18
BRANCH   1  21
ATOM     21  C   UNL     1       4.982  -2.688  -0.353  0.00  0.00    +0.197 C 
BRANCH  21  22
ATOM     22  C   UNL     1       4.771  -4.178  -0.413  0.00  0.00    -0.018 A 
ATOM     23  C   UNL     1       3.734  -4.699  -1.166  0.00  0.00    +0.009 A 
ATOM     24  C   UNL     1       3.542  -6.065  -1.228  0.00  0.00    +0.046 A 
ATOM     25  C   UNL     1       4.383  -6.915  -0.524  0.00  0.00    +0.117 A 
ATOM     26  C   UNL     1       5.419  -6.391   0.235  0.00  0.00    +0.046 A 
ATOM     27  C   UNL     1       5.610  -5.024   0.288  0.00  0.00    +0.009 A 
BRANCH  25  28
ATOM     28  O   UNL     1       4.192  -8.260  -0.578  0.00  0.00    -0.507 OA
ATOM     29  H   UNL     1       3.599  -8.601   0.106  0.00  0.00    +0.292 HD
ENDBRANCH  25  28
ENDBRANCH  21  22
BRANCH  21  30
ATOM     30  C   UNL     1       5.046  -2.132  -1.752  0.00  0.00    +0.239 C 
ATOM     31  O   UNL     1       4.241  -1.298  -2.111  0.00  0.00    -0.273 OA
ATOM     32  N   UNL     1       5.997  -2.561  -2.604  0.00  0.00    -0.311 N 
ATOM     33  H   UNL     1       6.641  -3.228  -2.317  0.00  0.00    +0.149 HD
BRANCH  32  34
ATOM     34  C   UNL     1       6.060  -2.021  -3.965  0.00  0.00    +0.073 C 
ATOM     35  C   UNL     1       5.154  -2.845  -4.903  0.00  0.00    +0.022 C 
ATOM     36  C   UNL     1       5.937  -2.896  -6.239  0.00  0.00    +0.002 C 
ATOM     37  C   UNL     1       7.406  -3.039  -5.769  0.00  0.00    +0.002 C 
ATOM     38  C   UNL     1       7.491  -2.144  -4.516  0.00  0.00    +0.022 C 
ENDBRANCH  32  34
ENDBRANCH  21  30
ENDBRANCH   1  21
TORSDOF 7
