REMARK  Name = ZINC08868221
REMARK  5 active torsions:
REMARK  status: ('A' for Active; 'I' for Inactive)
REMARK    1  A    between atoms: C_4  and  N_11
REMARK    2  A    between atoms: C_5  and  C_7
REMARK    3  A    between atoms: N_14  and  C_15
REMARK    4  A    between atoms: C_15  and  C_16
REMARK    5  A    between atoms: N_19  and  C_23
REMARK                            x       y       z     vdW  Elec       q    Type
REMARK                         _______ _______ _______ _____ _____    ______ ____
ROOT
ATOM      1  N   UNL     1      -1.191   1.870   0.018  0.00  0.00    -0.269 N 
ATOM      2  C   UNL     1      -0.014   1.212   0.005  0.00  0.00    +0.304 C 
ATOM      3  O   UNL     1       0.003  -0.004   0.006  0.00  0.00    -0.253 OA
ATOM      4  N   UNL     1       1.143   1.902  -0.015  0.00  0.00    -0.296 N 
ATOM      5  H   UNL     1      -1.205   2.836   0.099  0.00  0.00    +0.156 HD
ATOM      6  H   UNL     1       1.130   2.872  -0.016  0.00  0.00    +0.150 HD
ENDROOT
BRANCH   1  10
ATOM      7  C   UNL     1      -4.765  -0.249  -0.291  0.00  0.00    +0.001 A 
ATOM      8  C   UNL     1      -3.597  -0.788  -0.799  0.00  0.00    +0.002 A 
ATOM      9  C   UNL     1      -2.411  -0.088  -0.699  0.00  0.00    +0.024 A 
ATOM     10  C   UNL     1      -2.391   1.158  -0.086  0.00  0.00    +0.046 A 
ATOM     11  C   UNL     1      -3.564   1.694   0.428  0.00  0.00    +0.076 A 
ATOM     12  C   UNL     1      -4.748   0.991   0.320  0.00  0.00    +0.014 A 
BRANCH  11  13
ATOM     13  C   UNL     1      -3.546   3.043   1.100  0.00  0.00    +0.419 C 
ATOM     14  F   UNL     1      -4.837   3.366   1.532  0.00  0.00    -0.166 F 
ATOM     15  F   UNL     1      -2.682   3.006   2.199  0.00  0.00    -0.166 F 
ATOM     16  F   UNL     1      -3.104   4.010   0.191  0.00  0.00    -0.166 F 
ENDBRANCH  11  13
ENDBRANCH   1  10
BRANCH   4  17
ATOM     17  C   UNL     1       2.422   1.187  -0.036  0.00  0.00    +0.152 C 
BRANCH  17  18
ATOM     18  C   UNL     1       3.571   2.197  -0.056  0.00  0.00    +0.213 C 
ATOM     19  C   UNL     1       4.926   1.472  -0.155  0.00  0.00    +0.163 C 
ATOM     20  N   UNL     1       5.623   1.861   1.081  0.00  0.00    -0.234 N 
ATOM     21  C   UNL     1       4.827   2.673   1.790  0.00  0.00    +0.408 C 
ATOM     22  O   UNL     1       5.150   3.149   2.860  0.00  0.00    -0.226 OA
ATOM     23  O   UNL     1       3.643   2.915   1.210  0.00  0.00    -0.444 OA
BRANCH  20  24
ATOM     24  C   UNL     1       6.910   1.450   1.455  0.00  0.00    +0.043 A 
ATOM     25  C   UNL     1       7.634   0.599   0.631  0.00  0.00    +0.027 A 
ATOM     26  C   UNL     1       8.905   0.198   0.996  0.00  0.00    +0.051 A 
ATOM     27  C   UNL     1       9.456   0.635   2.189  0.00  0.00    +0.166 A 
ATOM     28  C   UNL     1       8.730   1.484   3.021  0.00  0.00    +0.168 A 
ATOM     29  C   UNL     1       7.458   1.890   2.651  0.00  0.00    +0.073 A 
ATOM     30  O   UNL     1       9.485   1.767   4.122  0.00  0.00    -0.453 OA
ATOM     31  C   UNL     1      10.513   0.759   4.153  0.00  0.00    +0.466 C 
ATOM     32  O   UNL     1      10.666   0.385   2.771  0.00  0.00    -0.453 OA
ENDBRANCH  20  24
ENDBRANCH  17  18
ENDBRANCH   4  17
TORSDOF 5
