REMARK  Name = ZINC00673943
REMARK  5 active torsions:
REMARK  status: ('A' for Active; 'I' for Inactive)
REMARK    1  A    between atoms: C_1  and  N_2
REMARK    2  A    between atoms: N_2  and  C_3
REMARK    3  A    between atoms: C_9  and  C_11
REMARK    4  A    between atoms: C_16  and  C_27
REMARK    5  A    between atoms: C_19  and  C_22
REMARK                            x       y       z     vdW  Elec       q    Type
REMARK                         _______ _______ _______ _____ _____    ______ ____
ROOT
ATOM      1  C   UNL     1      -0.124   0.068  -2.441  0.00  0.00    +0.167 A 
ATOM      2  C   UNL     1      -0.333  -0.493  -3.721  0.00  0.00    +0.112 A 
ATOM      3  C   UNL     1      -0.280   0.512  -4.619  0.00  0.00    +0.137 A 
ATOM      4  N   UNL     1      -0.044   1.675  -3.942  0.00  0.00    -0.237 N 
ATOM      5  N   UNL     1       0.042   1.372  -2.584  0.00  0.00    -0.163 NA
ATOM      6  C   UNL     1       0.082   2.983  -4.593  0.00  0.00    +0.215 C 
ATOM      7  C   UNL     1       0.392   2.770  -6.079  0.00  0.00    +0.063 C 
ATOM      8  C   UNL     1      -0.604   1.772  -6.682  0.00  0.00    +0.111 C 
ATOM      9  N   UNL     1      -0.429   0.470  -6.009  0.00  0.00    -0.321 N 
ATOM     10 CL   UNL     1      -0.607  -2.170  -4.074  0.00  0.00    -0.078 Cl
ATOM     11  H   UNL     1      -0.418  -0.365  -6.502  0.00  0.00    +0.148 HD
ENDROOT
BRANCH   8  12
ATOM     12  C   UNL     1      -2.010   2.271  -6.471  0.00  0.00    +0.010 A 
ATOM     13  C   UNL     1      -2.831   2.905  -7.344  0.00  0.00    +0.013 A 
ATOM     14  C   UNL     1      -4.096   3.274  -6.928  0.00  0.00    +0.008 A 
ATOM     15  C   UNL     1      -4.478   2.991  -5.659  0.00  0.00    +0.045 A 
ATOM     16  S   UNL     1      -3.030   2.173  -5.010  0.00  0.00    -0.100 S 
ENDBRANCH   8  12
BRANCH   1  19
ATOM     17  C   UNL     1      -0.037   1.461   0.011  0.00  0.00    +0.132 C 
ATOM     18  N   UNL     1      -0.003  -0.004   0.002  0.00  0.00    -0.296 N 
ATOM     19  C   UNL     1      -0.102  -0.673  -1.163  0.00  0.00    +0.268 C 
ATOM     20  O   UNL     1      -0.172  -1.887  -1.163  0.00  0.00    -0.268 OA
BRANCH  18  21
ATOM     21  C   UNL     1       0.138  -0.741   1.260  0.00  0.00    +0.076 C 
ATOM     22  C   UNL     1      -1.036  -0.404   2.183  0.00  0.00    +0.022 C 
ATOM     23  C   UNL     1      -0.888  -1.174   3.497  0.00  0.00    +0.002 C 
ATOM     24  C   UNL     1       0.424  -0.778   4.176  0.00  0.00    +0.000 C 
ATOM     25  C   UNL     1       1.598  -1.115   3.253  0.00  0.00    +0.002 C 
ATOM     26  C   UNL     1       1.450  -0.345   1.939  0.00  0.00    +0.022 C 
ENDBRANCH  18  21
ENDBRANCH   1  19
BRANCH   6  27
ATOM     27  C   UNL     1       1.217   3.773  -3.938  0.00  0.00    +0.412 C 
ATOM     28  F   UNL     1       2.417   3.067  -4.076  0.00  0.00    -0.168 F 
ATOM     29  F   UNL     1       1.336   5.020  -4.561  0.00  0.00    -0.168 F 
ATOM     30  F   UNL     1       0.936   3.954  -2.580  0.00  0.00    -0.168 F 
ENDBRANCH   6  27
TORSDOF 4
