REMARK  Name = ZINC09839044
REMARK  11 active torsions:
REMARK  status: ('A' for Active; 'I' for Inactive)
REMARK    1  A    between atoms: C_1  and  C_2
REMARK    2  A    between atoms: C_5  and  N_11
REMARK    3  A    between atoms: C_6  and  N_8
REMARK    4  A    between atoms: C_12  and  C_14
REMARK    5  A    between atoms: C_14  and  C_16
REMARK    6  A    between atoms: C_14  and  O_22
REMARK    7  A    between atoms: O_22  and  C_23
REMARK    8  A    between atoms: C_23  and  C_25
REMARK    9  A    between atoms: C_28  and  C_31
REMARK   10  A    between atoms: C_31  and  S_32
REMARK   11  A    between atoms: S_32  and  C_35
REMARK                            x       y       z     vdW  Elec       q    Type
REMARK                         _______ _______ _______ _____ _____    ______ ____
ROOT
ATOM      1  C   UNL     1      -0.237  10.016   2.969  0.00  0.00    +0.292 C 
ENDROOT
BRANCH   1   2
ATOM      2  C   UNL     1      -0.851  10.327   4.310  0.00  0.00    +0.002 A 
ATOM      3  C   UNL     1      -0.460   9.618   5.430  0.00  0.00    +0.008 A 
ATOM      4  C   UNL     1      -1.020   9.906   6.661  0.00  0.00    +0.000 A 
ATOM      5  C   UNL     1      -1.976  10.898   6.769  0.00  0.00    +0.000 A 
ATOM      6  C   UNL     1      -2.370  11.605   5.648  0.00  0.00    +0.000 A 
ATOM      7  C   UNL     1      -1.808  11.319   4.418  0.00  0.00    +0.008 A 
ENDBRANCH   1   2
BRANCH   1   9
ATOM      8  N   UNL     1       1.212  12.021   2.967  0.00  0.00    -0.280 N 
ATOM      9  C   UNL     1       1.111  10.681   2.867  0.00  0.00    +0.263 C 
ATOM     10  O   UNL     1       2.107  10.009   2.694  0.00  0.00    -0.271 OA
ATOM     11  H   UNL     1       0.410  12.564   3.024  0.00  0.00    +0.155 HD
BRANCH   8  16
ATOM     12  C   UNL     1       6.321  14.485   3.055  0.00  0.00    +0.044 C 
ATOM     13  C   UNL     1       4.963  13.831   3.032  0.00  0.00    -0.048 A 
ATOM     14  C   UNL     1       4.823  12.519   3.448  0.00  0.00    +0.005 A 
ATOM     15  C   UNL     1       3.580  11.916   3.428  0.00  0.00    +0.026 A 
ATOM     16  C   UNL     1       2.472  12.629   2.989  0.00  0.00    +0.064 A 
ATOM     17  C   UNL     1       2.617  13.944   2.567  0.00  0.00    +0.148 A 
ATOM     18  C   UNL     1       3.862  14.543   2.595  0.00  0.00    +0.038 A 
BRANCH  17  19
ATOM     19  N   UNL     1       1.439  14.704   2.093  0.00  0.00    +0.058 N 
ATOM     20  O   UNL     1       1.581  15.826   1.639  0.00  0.00    -0.126 OA
ATOM     21  O   UNL     1       0.329  14.209   2.157  0.00  0.00    -0.126 OA
ENDBRANCH  17  19
ENDBRANCH   8  16
ENDBRANCH   1   9
BRANCH   1  22
ATOM     22  O   UNL     1      -0.080   8.579   2.830  0.00  0.00    -0.444 OA
BRANCH  22  23
ATOM     23  C   UNL     1      -1.110   7.901   2.288  0.00  0.00    +0.340 C 
ATOM     24  O   UNL     1      -2.112   8.494   1.940  0.00  0.00    -0.245 OA
BRANCH  23  25
ATOM     25  C   UNL     1      -1.021   6.436   2.116  0.00  0.00    +0.059 A 
ATOM     26  C   UNL     1      -2.087   5.730   1.554  0.00  0.00    +0.015 A 
ATOM     27  C   UNL     1      -1.997   4.363   1.396  0.00  0.00    +0.006 A 
ATOM     28  C   UNL     1      -0.855   3.691   1.793  0.00  0.00    -0.027 A 
ATOM     29  C   UNL     1       0.203   4.384   2.356  0.00  0.00    +0.006 A 
ATOM     30  C   UNL     1       0.129   5.752   2.514  0.00  0.00    +0.015 A 
BRANCH  28  31
ATOM     31  C   UNL     1      -0.764   2.197   1.617  0.00  0.00    +0.200 C 
BRANCH  31  32
ATOM     32  S   UNL     1      -0.055   1.822  -0.010  0.00  0.00    -0.030 S 
ATOM     33  O   UNL     1       1.287   2.290  -0.035  0.00  0.00    -0.174 OA
ATOM     34  O   UNL     1      -0.961   2.268  -1.009  0.00  0.00    -0.174 OA
ATOM     35  C   UNL     1      -0.029   0.008  -0.027  0.00  0.00    +0.194 C 
ENDBRANCH  31  32
ENDBRANCH  28  31
ENDBRANCH  23  25
ENDBRANCH  22  23
ENDBRANCH   1  22
TORSDOF 9
