REMARK  Name = ZINC64870291
REMARK  6 active torsions:
REMARK  status: ('A' for Active; 'I' for Inactive)
REMARK    1  A    between atoms: C_1  and  O_2
REMARK    2  A    between atoms: O_2  and  C_3
REMARK    3  A    between atoms: C_7  and  C_9
REMARK    4  A    between atoms: C_9  and  N_10
REMARK    5  A    between atoms: C_16  and  C_23
REMARK    6  A    between atoms: C_26  and  C_30
REMARK                            x       y       z     vdW  Elec       q    Type
REMARK                         _______ _______ _______ _____ _____    ______ ____
ROOT
ATOM      1  N   UNL     1       0.179  -4.523   2.951  0.00  0.00    -0.256 N 
ATOM      2  C   UNL     1       0.281  -4.802   4.269  0.00  0.00    +0.265 A 
ATOM      3  O   UNL     1       1.327  -4.628   4.864  0.00  0.00    -0.267 OA
ATOM      4  C   UNL     1      -0.908  -5.324   4.966  0.00  0.00    +0.063 A 
ATOM      5  C   UNL     1      -0.883  -5.635   6.323  0.00  0.00    +0.016 A 
ATOM      6  C   UNL     1      -2.023  -6.120   6.929  0.00  0.00    +0.008 A 
ATOM      7  C   UNL     1      -3.187  -6.298   6.197  0.00  0.00    -0.000 A 
ATOM      8  C   UNL     1      -3.224  -5.992   4.851  0.00  0.00    +0.034 A 
ATOM      9  C   UNL     1      -2.088  -5.504   4.224  0.00  0.00    +0.056 A 
ATOM     10  N   UNL     1      -2.083  -5.184   2.874  0.00  0.00    -0.307 N 
ATOM     11  H   UNL     1      -2.890  -5.303   2.349  0.00  0.00    +0.170 HD
ATOM     12  C   UNL     1      -0.972  -4.707   2.287  0.00  0.00    +0.330 A 
ATOM     13  O   UNL     1      -1.011  -4.435   1.103  0.00  0.00    -0.246 OA
ENDROOT
BRANCH   7  14
ATOM     14  C   UNL     1      -4.423  -6.829   6.876  0.00  0.00    +0.242 C 
ATOM     15  N   UNL     1      -4.927  -8.015   6.147  0.00  0.00    -0.265 NA
ATOM     16  C   UNL     1      -6.407  -7.881   6.219  0.00  0.00    +0.180 C 
ATOM     17  N   UNL     1      -6.596  -6.410   6.102  0.00  0.00    -0.177 NA
ATOM     18  O   UNL     1      -5.459  -5.837   6.850  0.00  0.00    -0.274 OA
ATOM     19  H   UNL     1      -4.610  -8.012   5.189  0.00  0.00    +0.127 HD
ATOM     20  H   UNL     1      -7.475  -6.125   6.508  0.00  0.00    +0.156 HD
BRANCH  16  21
ATOM     21  C   UNL     1      -7.067  -8.604   5.074  0.00  0.00    -0.014 A 
ATOM     22  C   UNL     1      -6.471  -9.726   4.530  0.00  0.00    +0.009 A 
ATOM     23  C   UNL     1      -7.076 -10.390   3.480  0.00  0.00    +0.039 A 
ATOM     24  C   UNL     1      -8.280  -9.931   2.973  0.00  0.00    +0.123 A 
ATOM     25  C   UNL     1      -8.876  -8.807   3.518  0.00  0.00    +0.039 A 
ATOM     26  C   UNL     1      -8.272  -8.148   4.572  0.00  0.00    +0.009 A 
ATOM     27  F   UNL     1      -8.872 -10.580   1.946  0.00  0.00    -0.205 F 
ENDBRANCH  16  21
ENDBRANCH   7  14
BRANCH   1  28
ATOM     28  C   UNL     1       1.347  -4.003   2.235  0.00  0.00    +0.165 C 
BRANCH  28  33
ATOM     29  C   UNL     1       0.716  -0.372   1.399  0.00  0.00    +0.120 A 
ATOM     30  C   UNL     1       1.364   0.267   2.446  0.00  0.00    +0.045 A 
ATOM     31  C   UNL     1       2.002  -0.477   3.419  0.00  0.00    +0.004 A 
ATOM     32  C   UNL     1       1.996  -1.858   3.350  0.00  0.00    +0.005 A 
ATOM     33  C   UNL     1       1.351  -2.498   2.307  0.00  0.00    -0.024 A 
ATOM     34  C   UNL     1       0.707  -1.758   1.334  0.00  0.00    +0.051 A 
BRANCH  29  36
ATOM     35  C   UNL     1       0.138   1.780   0.571  0.00  0.00    +0.277 C 
ATOM     36  O   UNL     1       0.087   0.358   0.440  0.00  0.00    -0.495 OA
ENDBRANCH  29  36
ENDBRANCH  28  33
ENDBRANCH   1  28
TORSDOF 5
