REMARK  Name = ZINC39610237
REMARK  7 active torsions:
REMARK  status: ('A' for Active; 'I' for Inactive)
REMARK    1  A    between atoms: C_1  and  C_2
REMARK    2  A    between atoms: C_2  and  C_3
REMARK    3  A    between atoms: C_3  and  C_5
REMARK    4  A    between atoms: C_3  and  C_11
REMARK    5  A    between atoms: C_15  and  C_24
REMARK    6  A    between atoms: N_26  and  C_27
REMARK    7  A    between atoms: C_27  and  C_28
REMARK                            x       y       z     vdW  Elec       q    Type
REMARK                         _______ _______ _______ _____ _____    ______ ____
ROOT
ATOM      1  C   UNL     1      -0.090  -0.067   2.566  0.00  0.00    +0.223 C 
ATOM      2  O   UNL     1      -0.411  -0.818   3.462  0.00  0.00    -0.275 OA
ATOM      3  N   UNL     1      -0.326   1.255   2.678  0.00  0.00    -0.300 N 
ATOM      4  C   UNL     1       0.071   2.331   1.739  0.00  0.00    +0.121 C 
ATOM      5  C   UNL     1      -1.138   3.293   1.714  0.00  0.00    +0.100 C 
ATOM      6  C   UNL     1      -1.863   3.047   3.048  0.00  0.00    -0.004 C 
ATOM      7  C   UNL     1      -1.047   1.961   3.764  0.00  0.00    +0.115 C 
ATOM      8  C   UNL     1      -1.887   4.326   3.880  0.00  0.00    -0.010 C 
ATOM      9  C   UNL     1      -2.663   4.072   5.175  0.00  0.00    -0.082 C 
ATOM     10  N   UNL     1      -4.031   3.648   4.854  0.00  0.00    +0.379 N 
ATOM     11  C   UNL     1      -4.002   2.369   4.134  0.00  0.00    -0.082 C 
ATOM     12  C   UNL     1      -3.283   2.551   2.794  0.00  0.00    -0.010 C 
ATOM     13  H   UNL     1      -4.557   3.540   5.707  0.00  0.00    -0.086 HD
ATOM     14  H   UNL     1      -4.471   4.348   4.276  0.00  0.00    -0.086 HD
ENDROOT
BRANCH   5  15
ATOM     15  C   UNL     1      -2.044   2.967   0.554  0.00  0.00    +0.218 C 
ATOM     16  O   UNL     1      -2.132   1.825   0.157  0.00  0.00    -0.275 OA
ATOM     17  N   UNL     1      -2.755   3.945  -0.041  0.00  0.00    -0.311 N 
ATOM     18  H   UNL     1      -2.684   4.859   0.278  0.00  0.00    +0.149 HD
BRANCH  17  19
ATOM     19  C   UNL     1      -3.635   3.628  -1.168  0.00  0.00    +0.139 C 
BRANCH  19  20
ATOM     20  C   UNL     1      -4.310   4.888  -1.647  0.00  0.00    -0.027 A 
ATOM     21  C   UNL     1      -5.521   5.272  -1.102  0.00  0.00    +0.009 A 
ATOM     22  C   UNL     1      -6.143   6.427  -1.538  0.00  0.00    +0.050 A 
ATOM     23  C   UNL     1      -5.555   7.201  -2.525  0.00  0.00    +0.166 A 
ATOM     24  C   UNL     1      -4.335   6.814  -3.074  0.00  0.00    +0.167 A 
ATOM     25  C   UNL     1      -3.714   5.659  -2.628  0.00  0.00    +0.054 A 
ATOM     26  O   UNL     1      -3.970   7.732  -4.016  0.00  0.00    -0.453 OA
ATOM     27  C   UNL     1      -5.170   8.464  -4.325  0.00  0.00    +0.466 C 
ATOM     28  O   UNL     1      -5.953   8.363  -3.121  0.00  0.00    -0.453 OA
ENDBRANCH  19  20
ENDBRANCH  17  19
ENDBRANCH   5  15
BRANCH   1  29
ATOM     29  C   UNL     1       0.574  -0.612   1.327  0.00  0.00    +0.105 C 
BRANCH  29  30
ATOM     30  C   UNL     1       2.063  -0.682   1.544  0.00  0.00    -0.036 A 
ATOM     31  C   UNL     1       2.577  -1.462   2.563  0.00  0.00    +0.004 A 
ATOM     32  C   UNL     1       3.943  -1.527   2.762  0.00  0.00    +0.000 A 
ATOM     33  C   UNL     1       4.796  -0.811   1.942  0.00  0.00    +0.000 A 
ATOM     34  C   UNL     1       4.282  -0.032   0.923  0.00  0.00    +0.000 A 
ATOM     35  C   UNL     1       2.916   0.029   0.721  0.00  0.00    +0.004 A 
ENDBRANCH  29  30
BRANCH  29  37
ATOM     36  C   UNL     1      -1.450  -1.924   0.674  0.00  0.00    +0.005 C 
ATOM     37  C   UNL     1       0.034  -2.013   1.034  0.00  0.00    +0.014 C 
ENDBRANCH  29  37
ENDBRANCH   1  29
TORSDOF 6
