REMARK  Name = ZINC07898466
REMARK  5 active torsions:
REMARK  status: ('A' for Active; 'I' for Inactive)
REMARK    1  A    between atoms: C_1  and  C_2
REMARK    2  A    between atoms: C_10  and  C_11
REMARK    3  A    between atoms: N_13  and  N_14
REMARK    4  A    between atoms: C_15  and  C_17
REMARK    5  A    between atoms: C_20  and  C_22
REMARK                            x       y       z     vdW  Elec       q    Type
REMARK                         _______ _______ _______ _____ _____    ______ ____
ROOT
ATOM      1  N   UNL     1      -3.434   5.873   0.066  0.00  0.00    -0.228 N 
ATOM      2  C   UNL     1      -4.780   5.796   0.079  0.00  0.00    +0.295 C 
ATOM      3  O   UNL     1      -5.327   4.709   0.078  0.00  0.00    -0.265 OA
ATOM      4  H   UNL     1      -2.998   6.740   0.067  0.00  0.00    +0.173 HD
ENDROOT
BRANCH   2   5
ATOM      5  C   UNL     1      -5.583   7.021   0.093  0.00  0.00    +0.191 A 
ATOM      6  C   UNL     1      -6.959   7.086   0.101  0.00  0.00    +0.055 A 
ATOM      7  C   UNL     1      -7.300   8.442   0.117  0.00  0.00    +0.051 A 
ATOM      8  C   UNL     1      -6.131   9.149   0.110  0.00  0.00    +0.139 A 
ATOM      9  O   UNL     1      -5.104   8.283   0.095  0.00  0.00    -0.450 OA
BRANCH   8  10
ATOM     10  C   UNL     1      -6.016  10.621   0.116  0.00  0.00    +0.052 A 
ATOM     11  C   UNL     1      -5.178  11.255   1.036  0.00  0.00    +0.014 A 
ATOM     12  C   UNL     1      -5.076  12.630   1.037  0.00  0.00    +0.001 A 
ATOM     13  C   UNL     1      -5.800  13.384   0.129  0.00  0.00    +0.003 A 
ATOM     14  C   UNL     1      -6.632  12.765  -0.785  0.00  0.00    +0.039 A 
ATOM     15  C   UNL     1      -6.741  11.387  -0.802  0.00  0.00    +0.134 A 
ATOM     16  F   UNL     1      -7.550  10.782  -1.700  0.00  0.00    -0.205 F 
ENDBRANCH   8  10
ENDBRANCH   2   5
BRANCH   1  19
ATOM     17  C   UNL     1      -1.320   4.779   0.040  0.00  0.00    +0.296 C 
ATOM     18  O   UNL     1      -0.773   5.865   0.041  0.00  0.00    -0.265 OA
ATOM     19  N   UNL     1      -2.666   4.702   0.053  0.00  0.00    -0.227 N 
ATOM     20  H   UNL     1      -3.102   3.836   0.052  0.00  0.00    +0.173 HD
BRANCH  17  30
ATOM     21  C   UNL     1       1.788   4.680   0.010  0.00  0.00    +0.048 C 
ATOM     22  C   UNL     1       0.844   3.506   0.013  0.00  0.00    +0.008 A 
ATOM     23  C   UNL     1       1.203   2.088   0.002  0.00  0.00    +0.024 A 
ATOM     24  C   UNL     1       2.413   1.391  -0.015  0.00  0.00    +0.012 A 
ATOM     25  C   UNL     1       2.406   0.024  -0.021  0.00  0.00    +0.001 A 
ATOM     26  C   UNL     1       1.206  -0.674  -0.013  0.00  0.00    +0.004 A 
ATOM     27  C   UNL     1       0.002  -0.004   0.002  0.00  0.00    +0.047 A 
ATOM     28  C   UNL     1      -0.017   1.386   0.010  0.00  0.00    +0.136 A 
ATOM     29  O   UNL     1      -1.011   2.296   0.019  0.00  0.00    -0.450 OA
ATOM     30  C   UNL     1      -0.514   3.550   0.026  0.00  0.00    +0.195 A 
ENDBRANCH  17  30
ENDBRANCH   1  19
TORSDOF 4
