REMARK  Name = ZINC36344519
REMARK  8 active torsions:
REMARK  status: ('A' for Active; 'I' for Inactive)
REMARK    1  A    between atoms: C_1  and  C_2
REMARK    2  A    between atoms: C_5  and  C_37
REMARK    3  A    between atoms: C_6  and  C_8
REMARK    4  A    between atoms: C_11  and  C_30
REMARK    5  A    between atoms: C_14  and  C_16
REMARK    6  A    between atoms: C_16  and  N_17
REMARK    7  A    between atoms: C_20  and  C_23
REMARK    8  A    between atoms: C_23  and  C_24
REMARK                            x       y       z     vdW  Elec       q    Type
REMARK                         _______ _______ _______ _____ _____    ______ ____
ROOT
ATOM      1  C   UNL     1       0.054  -2.845   2.489  0.00  0.00    +0.137 C 
ATOM      2  C   UNL     1       1.501  -3.162   2.913  0.00  0.00    +0.087 C 
ATOM      3  C   UNL     1       1.657  -2.448   4.237  0.00  0.00    +0.069 C 
ATOM      4  N   UNL     1       0.558  -1.845   4.533  0.00  0.00    -0.181 NA
ATOM      5  N   UNL     1      -0.455  -2.006   3.585  0.00  0.00    -0.187 N 
ATOM      6  C   UNL     1      -1.694  -1.480   3.660  0.00  0.00    +0.219 C 
ATOM      7  O   UNL     1      -2.495  -1.687   2.773  0.00  0.00    -0.276 OA
ENDROOT
BRANCH   1  13
ATOM      8  C   UNL     1      -0.018   1.503   0.010  0.00  0.00    +0.044 C 
ATOM      9  C   UNL     1       0.002  -0.004   0.002  0.00  0.00    -0.050 A 
ATOM     10  C   UNL     1       0.006  -0.689  -1.199  0.00  0.00    +0.003 A 
ATOM     11  C   UNL     1       0.025  -2.071  -1.207  0.00  0.00    +0.004 A 
ATOM     12  C   UNL     1       0.040  -2.768  -0.013  0.00  0.00    -0.045 A 
ATOM     13  C   UNL     1       0.037  -2.084   1.188  0.00  0.00    -0.022 A 
ATOM     14  C   UNL     1       0.023  -0.702   1.195  0.00  0.00    +0.009 A 
ATOM     15  C   UNL     1       0.059  -4.275  -0.021  0.00  0.00    +0.044 C 
ENDBRANCH   1  13
BRANCH   3  16
ATOM     16  C   UNL     1       2.879  -2.443   5.062  0.00  0.00    -0.002 A 
ATOM     17  C   UNL     1       4.017  -3.131   4.634  0.00  0.00    +0.012 A 
ATOM     18  C   UNL     1       5.157  -3.123   5.410  0.00  0.00    +0.039 A 
ATOM     19  C   UNL     1       5.176  -2.433   6.612  0.00  0.00    +0.123 A 
ATOM     20  C   UNL     1       4.050  -1.748   7.042  0.00  0.00    +0.039 A 
ATOM     21  C   UNL     1       2.906  -1.745   6.272  0.00  0.00    +0.012 A 
ATOM     22  F   UNL     1       6.295  -2.428   7.368  0.00  0.00    -0.205 F 
ENDBRANCH   3  16
BRANCH   6  23
ATOM     23  C   UNL     1      -2.084  -0.636   4.846  0.00  0.00    +0.021 C 
BRANCH  23  24
ATOM     24  N   UNL     1      -3.474  -0.186   4.691  0.00  0.00    +0.385 N 
ATOM     25  C   UNL     1      -4.369  -1.349   4.720  0.00  0.00    -0.078 C 
ATOM     26  C   UNL     1      -5.810  -0.894   4.478  0.00  0.00    -0.015 C 
ATOM     27  C   UNL     1      -6.218   0.095   5.574  0.00  0.00    -0.010 C 
ATOM     28  C   UNL     1      -5.234   1.267   5.583  0.00  0.00    -0.015 C 
ATOM     29  C   UNL     1      -3.814   0.733   5.784  0.00  0.00    -0.078 C 
ATOM     30  H   UNL     1      -3.575   0.292   3.808  0.00  0.00    -0.081 HD
BRANCH  27  31
ATOM     31  C   UNL     1      -7.630   0.614   5.294  0.00  0.00    +0.038 C 
BRANCH  31  32
ATOM     32  C   UNL     1      -8.078   1.491   6.435  0.00  0.00    -0.047 A 
ATOM     33  C   UNL     1      -8.740   0.936   7.514  0.00  0.00    +0.003 A 
ATOM     34  C   UNL     1      -9.151   1.740   8.561  0.00  0.00    +0.000 A 
ATOM     35  C   UNL     1      -8.900   3.099   8.529  0.00  0.00    +0.000 A 
ATOM     36  C   UNL     1      -8.237   3.654   7.450  0.00  0.00    +0.000 A 
ATOM     37  C   UNL     1      -7.822   2.849   6.406  0.00  0.00    +0.003 A 
ENDBRANCH  31  32
ENDBRANCH  27  31
ENDBRANCH  23  24
ENDBRANCH   6  23
TORSDOF 6
