REMARK  Name = ZINC58949042
REMARK  11 active torsions:
REMARK  status: ('A' for Active; 'I' for Inactive)
REMARK    1  A    between atoms: C_1  and  C_2
REMARK    2  A    between atoms: C_3  and  N_34
REMARK    3  A    between atoms: C_4  and  C_33
REMARK    4  A    between atoms: N_5  and  C_7
REMARK    5  A    between atoms: C_7  and  C_8
REMARK    6  A    between atoms: C_11  and  C_14
REMARK    7  A    between atoms: N_16  and  C_17
REMARK    8  A    between atoms: C_17  and  C_18
REMARK    9  A    between atoms: C_21  and  C_24
REMARK   10  A    between atoms: C_24  and  N_25
REMARK   11  A    between atoms: C_29  and  C_32
REMARK                            x       y       z     vdW  Elec       q    Type
REMARK                         _______ _______ _______ _____ _____    ______ ____
ROOT
ATOM      1  C   UNL     1       5.505  -4.774   2.587  0.00  0.00    +0.244 C 
ATOM      2  O   UNL     1       6.086  -5.545   1.848  0.00  0.00    -0.270 OA
ATOM      3  N   UNL     1       6.136  -4.266   3.663  0.00  0.00    -0.307 N 
ATOM      4  H   UNL     1       5.672  -3.651   4.253  0.00  0.00    +0.149 HD
ENDROOT
BRANCH   1   8
ATOM      5  C   UNL     1       1.481  -3.682   1.773  0.00  0.00    -0.026 A 
ATOM      6  C   UNL     1       2.140  -4.559   0.930  0.00  0.00    +0.006 A 
ATOM      7  C   UNL     1       3.447  -4.918   1.189  0.00  0.00    +0.013 A 
ATOM      8  C   UNL     1       4.104  -4.394   2.303  0.00  0.00    +0.037 A 
ATOM      9  C   UNL     1       3.433  -3.509   3.149  0.00  0.00    +0.013 A 
ATOM     10  C   UNL     1       2.128  -3.155   2.876  0.00  0.00    +0.006 A 
BRANCH   5  11
ATOM     11  C   UNL     1       0.053  -3.295   1.485  0.00  0.00    +0.179 C 
BRANCH  11  16
ATOM     12  C   UNL     1      -0.018   1.503   0.010  0.00  0.00    +0.070 C 
ATOM     13  C   UNL     1       0.002  -0.004   0.002  0.00  0.00    +0.090 A 
ATOM     14  C   UNL     1       0.008  -0.818  -1.135  0.00  0.00    +0.169 A 
ATOM     15  C   UNL     1       0.027  -2.107  -0.725  0.00  0.00    +0.067 A 
ATOM     16  N   UNL     1       0.034  -2.109   0.625  0.00  0.00    -0.262 N 
ATOM     17  N   UNL     1       0.023  -0.777   1.058  0.00  0.00    -0.174 NA
ATOM     18  C   UNL     1       0.039  -3.323  -1.615  0.00  0.00    +0.068 C 
BRANCH  14  19
ATOM     19  N   UNL     1      -0.005  -0.351  -2.540  0.00  0.00    +0.060 N 
ATOM     20  O   UNL     1       1.036  -0.147  -3.119  0.00  0.00    -0.126 OA
ATOM     21  O   UNL     1      -1.058  -0.175  -3.109  0.00  0.00    -0.126 OA
ENDBRANCH  14  19
ENDBRANCH  11  16
ENDBRANCH   5  11
ENDBRANCH   1   8
BRANCH   3  22
ATOM     22  C   UNL     1       7.524  -4.643   3.944  0.00  0.00    +0.139 C 
BRANCH  22  23
ATOM     23  C   UNL     1       7.991  -3.943   5.194  0.00  0.00    -0.030 A 
ATOM     24  C   UNL     1       8.585  -2.698   5.108  0.00  0.00    +0.005 A 
ATOM     25  C   UNL     1       9.013  -2.055   6.255  0.00  0.00    +0.002 A 
ATOM     26  C   UNL     1       8.849  -2.659   7.487  0.00  0.00    -0.064 A 
ATOM     27  C   UNL     1       8.255  -3.904   7.574  0.00  0.00    +0.002 A 
ATOM     28  C   UNL     1       7.822  -4.544   6.428  0.00  0.00    +0.005 A 
BRANCH  26  29
ATOM     29  C   UNL     1       9.317  -1.959   8.737  0.00  0.00    -0.043 C 
BRANCH  29  30
ATOM     30  N   UNL     1       8.229  -1.130   9.272  0.00  0.00    +0.383 N 
ATOM     31  C   UNL     1       7.913  -0.063   8.315  0.00  0.00    -0.078 C 
ATOM     32  C   UNL     1       6.726   0.754   8.829  0.00  0.00    -0.018 C 
ATOM     33  C   UNL     1       7.087   1.371  10.184  0.00  0.00    -0.001 C 
ATOM     34  C   UNL     1       7.486   0.254  11.152  0.00  0.00    -0.031 C 
ATOM     35  C   UNL     1       8.645  -0.544  10.552  0.00  0.00    -0.075 C 
ATOM     36  C   UNL     1       7.923   0.866  12.485  0.00  0.00    +0.005 C 
ATOM     37  H   UNL     1       7.410  -1.703   9.416  0.00  0.00    -0.081 HD
ENDBRANCH  29  30
ENDBRANCH  26  29
ENDBRANCH  22  23
ENDBRANCH   3  22
TORSDOF 8
