REMARK  Name = ZINC13064877
REMARK  12 active torsions:
REMARK  status: ('A' for Active; 'I' for Inactive)
REMARK    1  A    between atoms: C_1  and  C_2
REMARK    2  A    between atoms: C_2  and  C_3
REMARK    3  A    between atoms: C_3  and  C_5
REMARK    4  A    between atoms: C_3  and  N_66
REMARK    5  A    between atoms: N_9  and  C_10
REMARK    6  A    between atoms: C_10  and  C_11
REMARK    7  A    between atoms: C_17  and  C_18
REMARK    8  A    between atoms: C_17  and  N_66
REMARK    9  A    between atoms: C_23  and  C_24
REMARK   10  A    between atoms: C_23  and  N_66
REMARK   11  A    between atoms: C_27  and  C_37
REMARK   12  A    between atoms: C_29  and  C_36
REMARK                            x       y       z     vdW  Elec       q    Type
REMARK                         _______ _______ _______ _____ _____    ______ ____
ROOT
ATOM      1  N   UNL     1       4.003   0.530  -2.973  0.00  0.00    +0.394 N 
ATOM      2  H   UNL     1       4.443   0.524  -3.901  0.00  0.00    -0.080 HD
ENDROOT
BRANCH   1   3
ATOM      3  C   UNL     1       4.088   1.895  -2.411  0.00  0.00    +0.003 C 
BRANCH   3   4
ATOM      4  C   UNL     1       3.179   2.807  -3.194  0.00  0.00    +0.138 A 
ATOM      5  N   UNL     1       3.049   2.853  -4.497  0.00  0.00    -0.115 NA
ATOM      6  N   UNL     1       2.182   3.764  -4.779  0.00  0.00    -0.023 NA
ATOM      7  N   UNL     1       1.753   4.297  -3.689  0.00  0.00    -0.044 NA
ATOM      8  N   UNL     1       2.341   3.732  -2.690  0.00  0.00    -0.226 N 
BRANCH   8   9
ATOM      9  C   UNL     1       2.139   4.043  -1.272  0.00  0.00    +0.182 C 
BRANCH   9  10
ATOM     10  C   UNL     1       1.032   3.183  -0.722  0.00  0.00    -0.026 A 
ATOM     11  C   UNL     1       1.325   1.949  -0.171  0.00  0.00    +0.005 A 
ATOM     12  C   UNL     1       0.309   1.159   0.334  0.00  0.00    +0.000 A 
ATOM     13  C   UNL     1      -1.000   1.601   0.284  0.00  0.00    +0.000 A 
ATOM     14  C   UNL     1      -1.292   2.837  -0.262  0.00  0.00    +0.000 A 
ATOM     15  C   UNL     1      -0.276   3.627  -0.766  0.00  0.00    +0.005 A 
ENDBRANCH   9  10
ENDBRANCH   8   9
ENDBRANCH   3   4
BRANCH   3  17
ATOM     16  C   UNL     1       5.661   3.753  -1.850  0.00  0.00    +0.002 C 
ATOM     17  C   UNL     1       5.531   2.388  -2.530  0.00  0.00    -0.011 C 
ENDBRANCH   3  17
ENDBRANCH   1   3
BRANCH   1  18
ATOM     18  C   UNL     1       2.588   0.127  -3.110  0.00  0.00    -0.002 C 
BRANCH  18  19
ATOM     19  C   UNL     1       2.508  -1.044  -4.055  0.00  0.00    +0.089 A 
ATOM     20  C   UNL     1       2.429  -2.339  -3.698  0.00  0.00    +0.042 A 
ATOM     21  C   UNL     1       2.374  -3.091  -4.894  0.00  0.00    +0.041 A 
ATOM     22  C   UNL     1       2.424  -2.211  -5.910  0.00  0.00    +0.195 A 
ATOM     23  O   UNL     1       2.499  -0.973  -5.396  0.00  0.00    -0.470 OA
ENDBRANCH  18  19
ENDBRANCH   1  18
BRANCH   1  24
ATOM     24  C   UNL     1       4.717  -0.422  -2.096  0.00  0.00    -0.036 C 
BRANCH  24  25
ATOM     25  C   UNL     1       4.137  -0.397  -0.706  0.00  0.00    +0.001 A 
ATOM     26  C   UNL     1       3.171  -1.284  -0.360  0.00  0.00    +0.017 A 
ATOM     27  C   UNL     1       2.629  -1.233   0.999  0.00  0.00    +0.002 A 
ATOM     28  C   UNL     1       1.632  -2.123   1.414  0.00  0.00    -0.041 A 
ATOM     29  C   UNL     1       1.147  -2.050   2.688  0.00  0.00    +0.007 A 
ATOM     30  C   UNL     1       1.634  -1.100   3.576  0.00  0.00    -0.048 A 
ATOM     31  C   UNL     1       2.615  -0.213   3.189  0.00  0.00    +0.029 A 
ATOM     32  C   UNL     1       3.125  -0.269   1.896  0.00  0.00    +0.050 A 
ATOM     33  N   UNL     1       4.108   0.605   1.482  0.00  0.00    -0.322 N 
ATOM     34  H   UNL     1       4.449   1.269   2.102  0.00  0.00    +0.169 HD
ATOM     35  C   UNL     1       4.604   0.547   0.234  0.00  0.00    +0.251 A 
ATOM     36  O   UNL     1       5.476   1.332  -0.096  0.00  0.00    -0.268 OA
ATOM     37  C   UNL     1       1.084  -1.038   4.978  0.00  0.00    +0.044 C 
ATOM     38  C   UNL     1       1.096  -3.158   0.458  0.00  0.00    +0.044 C 
ENDBRANCH  24  25
ENDBRANCH   1  24
TORSDOF 9
