REMARK  Name = ZINC15067292
REMARK  14 active torsions:
REMARK  status: ('A' for Active; 'I' for Inactive)
REMARK    1  A    between atoms: C_1  and  C_2
REMARK    2  A    between atoms: C_2  and  O_3
REMARK    3  A    between atoms: O_3  and  C_4
REMARK    4  A    between atoms: C_4  and  C_6
REMARK    5  A    between atoms: C_14  and  C_27
REMARK    6  A    between atoms: C_18  and  O_25
REMARK    7  A    between atoms: C_19  and  O_23
REMARK    8  A    between atoms: O_23  and  C_24
REMARK    9  A    between atoms: O_25  and  C_26
REMARK   10  A    between atoms: C_27  and  N_28
REMARK   11  A    between atoms: N_28  and  C_29
REMARK   12  A    between atoms: C_29  and  C_30
REMARK   13  A    between atoms: N_33  and  C_36
REMARK   14  A    between atoms: C_34  and  C_35
REMARK                            x       y       z     vdW  Elec       q    Type
REMARK                         _______ _______ _______ _____ _____    ______ ____
ROOT
ATOM      1  C   UNL     1       0.354   6.041  -2.210  0.00  0.00    +0.115 C 
ATOM      2  C   UNL     1       1.796   6.105  -2.720  0.00  0.00    +0.018 C 
ATOM      3  C   UNL     1       2.355   4.683  -2.829  0.00  0.00    +0.020 C 
ATOM      4  C   UNL     1       1.462   3.860  -3.760  0.00  0.00    +0.106 C 
ATOM      5  N   UNL     1       0.094   3.829  -3.228  0.00  0.00    -0.314 N 
ATOM      6  C   UNL     1      -0.480   5.178  -3.159  0.00  0.00    +0.121 C 
ATOM      7  C   UNL     1      -0.712   2.983  -3.977  0.00  0.00    +0.123 A 
ATOM      8  C   UNL     1      -0.850   1.644  -3.586  0.00  0.00    -0.024 A 
ATOM      9  C   UNL     1      -1.633   0.801  -4.315  0.00  0.00    +0.015 A 
ATOM     10  C   UNL     1      -2.296   1.315  -5.448  0.00  0.00    +0.004 A 
ATOM     11  C   UNL     1      -3.122   0.500  -6.239  0.00  0.00    +0.059 A 
ATOM     12  C   UNL     1      -3.743   1.028  -7.333  0.00  0.00    +0.162 A 
ATOM     13  C   UNL     1      -3.566   2.377  -7.676  0.00  0.00    +0.164 A 
ATOM     14  C   UNL     1      -2.769   3.191  -6.924  0.00  0.00    +0.077 A 
ATOM     15  C   UNL     1      -2.115   2.677  -5.792  0.00  0.00    +0.077 A 
ATOM     16  N   UNL     1      -1.329   3.457  -5.040  0.00  0.00    -0.232 NA
ENDROOT
BRANCH   1  17
ATOM     17  C   UNL     1      -0.223   7.432  -2.156  0.00  0.00    +0.312 C 
ATOM     18  O   UNL     1      -1.201   7.706  -2.810  0.00  0.00    -0.250 OA
BRANCH  17  19
ATOM     19  O   UNL     1       0.350   8.367  -1.382  0.00  0.00    -0.465 OA
BRANCH  19  21
ATOM     20  C   UNL     1       0.526  10.608  -0.446  0.00  0.00    +0.048 C 
ATOM     21  C   UNL     1      -0.259   9.685  -1.379  0.00  0.00    +0.229 C 
ENDBRANCH  19  21
ENDBRANCH  17  19
ENDBRANCH   1  17
BRANCH  13  22
ATOM     22  O   UNL     1      -4.196   2.879  -8.770  0.00  0.00    -0.491 OA
ATOM     23  C   UNL     1      -3.977   4.259  -9.068  0.00  0.00    +0.277 C 
ENDBRANCH  13  22
BRANCH  12  24
ATOM     24  O   UNL     1      -4.542   0.239  -8.099  0.00  0.00    -0.491 OA
ATOM     25  C   UNL     1      -4.682  -1.126  -7.699  0.00  0.00    +0.277 C 
ENDBRANCH  12  24
BRANCH   8  26
ATOM     26  C   UNL     1      -0.128   1.137  -2.364  0.00  0.00    -0.043 C 
BRANCH  26  27
ATOM     27  N   UNL     1      -0.829   1.593  -1.157  0.00  0.00    +0.385 N 
ATOM     28  H   UNL     1      -0.852   2.693  -1.139  0.00  0.00    -0.085 HD
ATOM     29  H   UNL     1      -1.859   1.206  -1.162  0.00  0.00    -0.085 HD
BRANCH  27  30
ATOM     30  C   UNL     1      -0.153   1.117   0.057  0.00  0.00    -0.043 C 
BRANCH  30  31
ATOM     31  C   UNL     1      -0.899   1.603   1.272  0.00  0.00    -0.024 A 
ATOM     32  C   UNL     1      -0.548   2.698   2.070  0.00  0.00    +0.136 A 
ATOM     33  N   UNL     1      -1.436   2.809   3.025  0.00  0.00    -0.179 NA
ATOM     34  N   UNL     1      -2.375   1.781   2.871  0.00  0.00    -0.271 N 
ATOM     35  C   UNL     1      -2.023   1.056   1.789  0.00  0.00    +0.037 A 
ATOM     36  C   UNL     1      -2.753  -0.148   1.251  0.00  0.00    +0.065 C 
ATOM     37  C   UNL     1      -3.534   1.537   3.733  0.00  0.00    +0.172 C 
ENDBRANCH  30  31
ENDBRANCH  27  30
ENDBRANCH  26  27
ENDBRANCH   8  26
TORSDOF 9
