REMARK  Name = ZINC63328815
REMARK  5 active torsions:
REMARK  status: ('A' for Active; 'I' for Inactive)
REMARK    1  A    between atoms: N_12  and  C_17
REMARK    2  A    between atoms: C_20  and  C_23
REMARK    3  A    between atoms: N_25  and  C_26
REMARK    4  A    between atoms: C_26  and  C_27
REMARK    5  A    between atoms: C_27  and  C_28
REMARK                            x       y       z     vdW  Elec       q    Type
REMARK                         _______ _______ _______ _____ _____    ______ ____
ROOT
ATOM      1  C   UNL     1       4.185  -5.358   1.423  0.00  0.00    +0.045 A 
ATOM      2  C   UNL     1       3.475  -6.554   1.406  0.00  0.00    +0.025 A 
ATOM      3  C   UNL     1       3.973  -7.661   2.057  0.00  0.00    +0.015 A 
ATOM      4  C   UNL     1       5.192  -7.581   2.735  0.00  0.00    +0.037 A 
ATOM      5  C   UNL     1       5.902  -6.378   2.750  0.00  0.00    +0.015 A 
ATOM      6  C   UNL     1       5.401  -5.276   2.093  0.00  0.00    +0.025 A 
ENDROOT
BRANCH   1  17
ATOM      7  C   UNL     1       2.905   0.126  -4.344  0.00  0.00    +0.000 A 
ATOM      8  C   UNL     1       1.622  -0.370  -4.489  0.00  0.00    +0.000 A 
ATOM      9  C   UNL     1       1.126  -1.258  -3.557  0.00  0.00    +0.005 A 
ATOM     10  C   UNL     1       1.905  -1.659  -2.480  0.00  0.00    -0.027 A 
ATOM     11  C   UNL     1       3.186  -1.179  -2.340  0.00  0.00    -0.040 A 
ATOM     12  C   UNL     1       3.679  -0.275  -3.277  0.00  0.00    +0.004 A 
ATOM     13  C   UNL     1       4.119  -1.586  -1.229  0.00  0.00    +0.067 C 
ATOM     14  C   UNL     1       3.342  -2.113  -0.023  0.00  0.00    +0.169 C 
ATOM     15  C   UNL     1       4.233  -3.009   0.814  0.00  0.00    +0.248 C 
ATOM     16  O   UNL     1       5.239  -2.688   1.410  0.00  0.00    -0.273 OA
ATOM     17  N   UNL     1       3.677  -4.236   0.761  0.00  0.00    -0.193 N 
ATOM     18  C   UNL     1       2.577  -4.249  -0.006  0.00  0.00    +0.317 C 
ATOM     19  O   UNL     1       1.889  -5.234  -0.189  0.00  0.00    -0.252 OA
ATOM     20  N   UNL     1       2.316  -3.043  -0.546  0.00  0.00    -0.269 N 
ATOM     21  C   UNL     1       1.284  -2.619  -1.490  0.00  0.00    +0.145 C 
ENDBRANCH   1  17
BRANCH   4  22
ATOM     22  C   UNL     1       5.728  -8.765   3.434  0.00  0.00    +0.244 C 
ATOM     23  O   UNL     1       5.109  -9.812   3.421  0.00  0.00    -0.270 OA
ATOM     24  N   UNL     1       6.904  -8.687   4.088  0.00  0.00    -0.311 N 
ATOM     25  H   UNL     1       7.398  -7.852   4.099  0.00  0.00    +0.149 HD
BRANCH  24  26
ATOM     26  C   UNL     1       7.436  -9.862   4.782  0.00  0.00    +0.109 C 
BRANCH  26  27
ATOM     27  C   UNL     1       8.772  -9.506   5.438  0.00  0.00    +0.052 C 
BRANCH  27  28
ATOM     28  C   UNL     1       9.320 -10.715   6.152  0.00  0.00    -0.040 C 
ATOM     29  C   UNL     1      10.213 -11.609   5.669  0.00  0.00    -0.001 A 
ATOM     30  C   UNL     1      10.914 -11.720   4.384  0.00  0.00    +0.010 A 
ATOM     31  C   UNL     1      11.768 -12.750   4.190  0.00  0.00    +0.001 A 
ATOM     32  C   UNL     1      11.999 -13.713   5.182  0.00  0.00    +0.002 A 
ATOM     33  C   UNL     1      11.392 -13.678   6.388  0.00  0.00    +0.026 A 
ATOM     34  C   UNL     1      10.475 -12.638   6.701  0.00  0.00    +0.043 A 
ATOM     35  N   UNL     1       9.771 -12.390   7.779  0.00  0.00    -0.380 N 
ATOM     36  C   UNL     1       8.987 -11.170   7.555  0.00  0.00    +0.144 C 
ATOM     37  H   UNL     1       9.772 -12.921   8.590  0.00  0.00    +0.160 HD
ENDBRANCH  27  28
ENDBRANCH  26  27
ENDBRANCH  24  26
ENDBRANCH   4  22
TORSDOF 5
