REMARK  Name = ZINC63271414
REMARK  6 active torsions:
REMARK  status: ('A' for Active; 'I' for Inactive)
REMARK    1  A    between atoms: C_4  and  C_7
REMARK    2  A    between atoms: C_7  and  C_9
REMARK    3  A    between atoms: C_7  and  O_31
REMARK    4  A    between atoms: C_9  and  N_10
REMARK    5  A    between atoms: C_11  and  C_13
REMARK    6  A    between atoms: C_13  and  N_14
REMARK                            x       y       z     vdW  Elec       q    Type
REMARK                         _______ _______ _______ _____ _____    ______ ____
ROOT
ATOM      1  N   UNL     1       7.551  -3.261  -4.066  0.00  0.00    -0.291 N 
ATOM      2  C   UNL     1       8.696  -3.922  -4.327  0.00  0.00    +0.303 C 
ATOM      3  O   UNL     1       9.479  -4.160  -3.428  0.00  0.00    -0.253 OA
ATOM      4  N   UNL     1       8.972  -4.321  -5.585  0.00  0.00    -0.283 N 
ATOM      5  C   UNL     1       8.082  -3.927  -6.682  0.00  0.00    +0.114 C 
ATOM      6  C   UNL     1       7.559  -5.188  -7.394  0.00  0.00    +0.052 C 
ATOM      7  C   UNL     1       8.747  -6.094  -7.599  0.00  0.00    -0.036 C 
ATOM      8  C   UNL     1       9.212  -6.700  -8.685  0.00  0.00    -0.001 A 
ATOM      9  C   UNL     1       8.682  -6.799 -10.055  0.00  0.00    +0.010 A 
ATOM     10  C   UNL     1       9.440  -7.495 -10.942  0.00  0.00    +0.001 A 
ATOM     11  C   UNL     1      10.659  -8.095 -10.609  0.00  0.00    +0.002 A 
ATOM     12  C   UNL     1      11.217  -8.061  -9.373  0.00  0.00    +0.026 A 
ATOM     13  C   UNL     1      10.508  -7.365  -8.351  0.00  0.00    +0.043 A 
ATOM     14  N   UNL     1      10.794  -7.197  -7.094  0.00  0.00    -0.376 N 
ATOM     15  C   UNL     1       9.695  -6.464  -6.464  0.00  0.00    +0.124 C 
ATOM     16  C   UNL     1      10.167  -5.140  -5.843  0.00  0.00    +0.138 C 
ATOM     17  H   UNL     1       6.961  -3.007  -4.793  0.00  0.00    +0.151 HD
ATOM     18  H   UNL     1      11.599  -7.505  -6.649  0.00  0.00    +0.160 HD
ENDROOT
BRANCH   1  19
ATOM     19  C   UNL     1       7.198  -2.925  -2.684  0.00  0.00    +0.201 C 
BRANCH  19  21
ATOM     20  N   UNL     1       5.354  -1.782  -1.496  0.00  0.00    -0.311 N 
ATOM     21  C   UNL     1       5.881  -2.193  -2.666  0.00  0.00    +0.230 C 
ATOM     22  O   UNL     1       5.295  -1.973  -3.705  0.00  0.00    -0.274 OA
ATOM     23  H   UNL     1       5.823  -1.958  -0.665  0.00  0.00    +0.149 HD
BRANCH  20  24
ATOM     24  C   UNL     1       4.074  -1.070  -1.478  0.00  0.00    +0.140 C 
BRANCH  24  25
ATOM     25  C   UNL     1       3.705  -0.720  -0.035  0.00  0.00    +0.162 C 
BRANCH  25  29
ATOM     26  C   UNL     1      -0.028   1.356   0.014  0.00  0.00    +0.000 A 
ATOM     27  C   UNL     1       1.158   2.066   0.006  0.00  0.00    +0.000 A 
ATOM     28  C   UNL     1       2.366   1.395  -0.010  0.00  0.00    +0.006 A 
ATOM     29  C   UNL     1       2.388   0.013  -0.017  0.00  0.00    -0.018 A 
ATOM     30  C   UNL     1       1.202  -0.698  -0.008  0.00  0.00    +0.006 A 
ATOM     31  C   UNL     1      -0.006  -0.026   0.006  0.00  0.00    +0.000 A 
ENDBRANCH  25  29
BRANCH  25  32
ATOM     32  O   UNL     1       3.593  -1.920   0.733  0.00  0.00    -0.386 OA
ATOM     33  H   UNL     1       2.921  -2.534   0.408  0.00  0.00    +0.210 HD
ENDBRANCH  25  32
ENDBRANCH  24  25
ENDBRANCH  20  24
ENDBRANCH  19  21
ENDBRANCH   1  19
TORSDOF 6
