REMARK  Name = ZINC26947987
REMARK  7 active torsions:
REMARK  status: ('A' for Active; 'I' for Inactive)
REMARK    1  A    between atoms: C_5  and  S_7
REMARK    2  A    between atoms: S_7  and  N_10
REMARK    3  A    between atoms: C_11  and  N_13
REMARK    4  A    between atoms: N_13  and  S_14
REMARK    5  A    between atoms: S_14  and  C_17
REMARK    6  A    between atoms: C_20  and  N_23
REMARK    7  A    between atoms: N_23  and  C_24
REMARK                            x       y       z     vdW  Elec       q    Type
REMARK                         _______ _______ _______ _____ _____    ______ ____
ROOT
ATOM      1  N   UNL     1      -5.180   4.038   1.204  0.00  0.00    -0.036 NA
ENDROOT
BRANCH   1   3
ATOM      2  N   UNL     1      -5.023   5.274   3.179  0.00  0.00    -0.069 NA
ATOM      3  C   UNL     1      -4.513   4.912   1.985  0.00  0.00    +0.392 C 
ATOM      4  O   UNL     1      -3.452   5.373   1.611  0.00  0.00    -0.243 OA
BRANCH   2   5
ATOM      5  S   UNL     1      -4.268   6.439   4.082  0.00  0.00    +0.105 S 
ATOM      6  O   UNL     1      -4.105   7.568   3.235  0.00  0.00    -0.146 OA
ATOM      7  O   UNL     1      -4.965   6.508   5.319  0.00  0.00    -0.146 OA
BRANCH   5  12
ATOM      8  C   UNL     1      -0.274   6.014   4.200  0.00  0.00    +0.002 A 
ATOM      9  C   UNL     1      -0.110   4.915   5.023  0.00  0.00    +0.002 A 
ATOM     10  C   UNL     1      -1.214   4.281   5.558  0.00  0.00    +0.022 A 
ATOM     11  C   UNL     1      -2.486   4.746   5.271  0.00  0.00    +0.068 A 
ATOM     12  C   UNL     1      -2.650   5.846   4.449  0.00  0.00    +0.131 A 
ATOM     13  C   UNL     1      -1.544   6.477   3.910  0.00  0.00    +0.030 A 
ATOM     14 CL   UNL     1      -3.874   3.949   5.942  0.00  0.00    -0.082 Cl
ENDBRANCH   5  12
ENDBRANCH   2   5
ENDBRANCH   1   3
BRANCH   1  15
ATOM     15  S   UNL     1      -4.553   3.593  -0.262  0.00  0.00    +0.096 S 
ATOM     16  O   UNL     1      -4.188   4.793  -0.929  0.00  0.00    -0.148 OA
ATOM     17  O   UNL     1      -5.462   2.655  -0.824  0.00  0.00    -0.148 OA
BRANCH  15  18
ATOM     18  C   UNL     1      -3.057   2.717   0.054  0.00  0.00    +0.111 A 
ATOM     19  C   UNL     1      -3.084   1.346   0.229  0.00  0.00    +0.031 A 
ATOM     20  C   UNL     1      -1.913   0.657   0.476  0.00  0.00    +0.025 A 
ATOM     21  C   UNL     1      -0.708   1.343   0.550  0.00  0.00    +0.032 A 
ATOM     22  C   UNL     1      -0.685   2.721   0.380  0.00  0.00    +0.025 A 
ATOM     23  C   UNL     1      -1.859   3.403   0.127  0.00  0.00    +0.031 A 
BRANCH  21  24
ATOM     24  N   UNL     1       0.480   0.648   0.802  0.00  0.00    -0.303 N 
ATOM     25  H   UNL     1       1.199   1.036   1.538  0.00  0.00    +0.153 HD
BRANCH  24  26
ATOM     26  C   UNL     1       0.743  -0.498   0.142  0.00  0.00    +0.122 C 
ATOM     27  S   UNL     1      -0.421  -1.156  -0.927  0.00  0.00    -0.027 S 
ATOM     28  S   UNL     1       2.284  -1.318   0.380  0.00  0.00    -0.027 SA
ENDBRANCH  24  26
ENDBRANCH  21  24
ENDBRANCH  15  18
ENDBRANCH   1  15
TORSDOF 7
