REMARK  Name = ZINC35641283
REMARK  14 active torsions:
REMARK  status: ('A' for Active; 'I' for Inactive)
REMARK    1  A    between atoms: C_1  and  C_2
REMARK    2  A    between atoms: C_2  and  O_3
REMARK    3  A    between atoms: O_3  and  C_4
REMARK    4  A    between atoms: C_4  and  C_6
REMARK    5  A    between atoms: C_7  and  C_25
REMARK    6  A    between atoms: N_8  and  C_24
REMARK    7  A    between atoms: C_12  and  C_14
REMARK    8  A    between atoms: C_16  and  O_22
REMARK    9  A    between atoms: C_19  and  O_20
REMARK   10  A    between atoms: O_20  and  C_21
REMARK   11  A    between atoms: O_22  and  C_23
REMARK   12  A    between atoms: C_25  and  N_26
REMARK   13  A    between atoms: N_26  and  C_27
REMARK   14  A    between atoms: N_26  and  C_28
REMARK                            x       y       z     vdW  Elec       q    Type
REMARK                         _______ _______ _______ _____ _____    ______ ____
ROOT
ATOM      1  C   UNL     1       1.797  -2.010   2.784  0.00  0.00    +0.077 C 
ATOM      2  C   UNL     1       1.783  -3.358   2.716  0.00  0.00    +0.010 C 
ATOM      3  N   UNL     1       2.003  -4.122   3.826  0.00  0.00    -0.264 N 
ATOM      4  C   UNL     1       2.243  -3.614   5.041  0.00  0.00    +0.307 C 
ATOM      5  O   UNL     1       2.427  -4.375   5.971  0.00  0.00    -0.252 OA
ATOM      6  N   UNL     1       2.288  -2.286   5.268  0.00  0.00    -0.288 N 
ATOM      7  C   UNL     1       2.071  -1.374   4.132  0.00  0.00    +0.147 C 
ATOM      8  C   UNL     1       1.973  -5.580   3.679  0.00  0.00    +0.139 C 
ATOM      9  H   UNL     1       2.464  -1.940   6.156  0.00  0.00    +0.151 HD
ENDROOT
BRANCH   7  10
ATOM     10  C   UNL     1       3.288  -0.497   3.994  0.00  0.00    +0.023 A 
ATOM     11  C   UNL     1       4.541  -1.004   4.282  0.00  0.00    +0.055 A 
ATOM     12  C   UNL     1       5.661  -0.197   4.155  0.00  0.00    +0.121 A 
ATOM     13  C   UNL     1       5.525   1.119   3.738  0.00  0.00    +0.049 A 
ATOM     14  C   UNL     1       4.272   1.626   3.450  0.00  0.00    +0.049 A 
ATOM     15  C   UNL     1       3.152   0.817   3.573  0.00  0.00    +0.126 A 
BRANCH  15  16
ATOM     16  O   UNL     1       1.920   1.314   3.284  0.00  0.00    -0.495 OA
ATOM     17  C   UNL     1       1.863   2.641   2.755  0.00  0.00    +0.277 C 
ENDBRANCH  15  16
BRANCH  12  18
ATOM     18  O   UNL     1       6.894  -0.696   4.439  0.00  0.00    -0.495 OA
ATOM     19  C   UNL     1       8.004   0.192   4.286  0.00  0.00    +0.277 C 
ENDBRANCH  12  18
ENDBRANCH   7  10
BRANCH   1  20
ATOM     20  C   UNL     1       1.571  -1.217   1.634  0.00  0.00    +0.339 C 
ATOM     21  O   UNL     1       2.507  -0.681   1.070  0.00  0.00    -0.245 OA
BRANCH  20  22
ATOM     22  O   UNL     1       0.317  -1.054   1.163  0.00  0.00    -0.462 OA
BRANCH  22  24
ATOM     23  C   UNL     1      -1.315  -0.146  -0.371  0.00  0.00    +0.048 C 
ATOM     24  C   UNL     1       0.172  -0.332  -0.061  0.00  0.00    +0.229 C 
ENDBRANCH  22  24
ENDBRANCH  20  22
ENDBRANCH   1  20
BRANCH   2  25
ATOM     25  C   UNL     1       1.521  -4.031   1.393  0.00  0.00    -0.026 C 
BRANCH  25  26
ATOM     26  N   UNL     1       2.776  -4.130   0.636  0.00  0.00    +0.383 N 
ATOM     27  C   UNL     1       3.715  -5.001   1.356  0.00  0.00    -0.095 C 
ATOM     28  H   UNL     1       3.180  -3.211   0.534  0.00  0.00    -0.081 HD
BRANCH  26  29
ATOM     29  C   UNL     1       2.504  -4.696  -0.692  0.00  0.00    -0.068 C 
ATOM     30  C   UNL     1       3.811  -4.799  -1.480  0.00  0.00    -0.015 C 
ATOM     31  C   UNL     1       3.527  -5.388  -2.863  0.00  0.00    -0.002 C 
ATOM     32  C   UNL     1       2.550  -4.481  -3.613  0.00  0.00    -0.000 C 
ATOM     33  C   UNL     1       1.242  -4.378  -2.825  0.00  0.00    -0.002 C 
ATOM     34  C   UNL     1       1.526  -3.789  -1.442  0.00  0.00    -0.015 C 
ENDBRANCH  26  29
ENDBRANCH  25  26
ENDBRANCH   2  25
TORSDOF 9
