REMARK  Name = ZINC21243565
REMARK  11 active torsions:
REMARK  status: ('A' for Active; 'I' for Inactive)
REMARK    1  A    between atoms: C_1  and  C_2
REMARK    2  A    between atoms: C_2  and  O_3
REMARK    3  A    between atoms: O_3  and  C_4
REMARK    4  A    between atoms: C_5  and  O_35
REMARK    5  A    between atoms: C_7  and  C_11
REMARK    6  A    between atoms: C_22  and  C_25
REMARK    7  A    between atoms: C_28  and  O_31
REMARK    8  A    between atoms: O_31  and  C_32
REMARK    9  A    between atoms: C_32  and  C_33
REMARK   10  A    between atoms: C_32  and  C_34
REMARK   11  A    between atoms: O_35  and  C_36
REMARK                            x       y       z     vdW  Elec       q    Type
REMARK                         _______ _______ _______ _____ _____    ______ ____
ROOT
ATOM      1  C   UNL     1      -3.749  -0.265  -1.725  0.00  0.00    +0.063 C 
ATOM      2  C   UNL     1      -4.005  -1.571  -0.971  0.00  0.00    +0.109 C 
ATOM      3  C   UNL     1      -5.036  -1.327   0.101  0.00  0.00    +0.218 C 
ATOM      4  O   UNL     1      -4.976  -1.936   1.148  0.00  0.00    -0.275 OA
ATOM      5  N   UNL     1      -6.024  -0.438  -0.101  0.00  0.00    -0.289 N 
ATOM      6  C   UNL     1      -6.132   0.247  -1.285  0.00  0.00    +0.018 C 
ATOM      7  C   UNL     1      -5.069   0.360  -2.109  0.00  0.00    +0.020 C 
ATOM      8  C   UNL     1      -5.161   1.049  -3.330  0.00  0.00    +0.162 C 
ATOM      9  O   UNL     1      -4.180   1.138  -4.041  0.00  0.00    -0.292 OA
ATOM     10  C   UNL     1      -6.455   1.679  -3.771  0.00  0.00    +0.088 C 
ATOM     11  C   UNL     1      -7.622   0.893  -3.163  0.00  0.00    +0.032 C 
ATOM     12  C   UNL     1      -7.457   0.872  -1.642  0.00  0.00    +0.059 C 
ATOM     13  H   UNL     1      -6.763  -0.248   0.691  0.00  0.00    +0.155 HD
ENDROOT
BRANCH   1  17
ATOM     14  C   UNL     1      -1.577   2.429   0.790  0.00  0.00    +0.176 A 
ATOM     15  C   UNL     1      -1.034   2.018  -0.424  0.00  0.00    +0.163 A 
ATOM     16  C   UNL     1      -1.743   1.150  -1.238  0.00  0.00    +0.053 A 
ATOM     17  C   UNL     1      -2.982   0.685  -0.840  0.00  0.00    -0.035 A 
ATOM     18  C   UNL     1      -3.523   1.093   0.365  0.00  0.00    +0.023 A 
ATOM     19  C   UNL     1      -2.823   1.964   1.181  0.00  0.00    +0.063 A 
ATOM     20 BR   UNL     1      -3.566   2.519   2.829  0.00  0.00    -0.046 Br
BRANCH  15  21
ATOM     21  O   UNL     1       0.188   2.473  -0.812  0.00  0.00    -0.491 OA
ATOM     22  C   UNL     1       0.683   2.009  -2.070  0.00  0.00    +0.277 C 
ENDBRANCH  15  21
BRANCH  14  23
ATOM     23  O   UNL     1      -0.888   3.285   1.590  0.00  0.00    -0.487 OA
BRANCH  23  25
ATOM     24  C   UNL     1      -0.254   5.481   2.375  0.00  0.00    +0.048 C 
ATOM     25  C   UNL     1      -1.110   4.682   1.390  0.00  0.00    +0.226 C 
ENDBRANCH  23  25
ENDBRANCH  14  23
ENDBRANCH   1  17
BRANCH  11  26
ATOM     26  C   UNL     1      -8.924   1.563  -3.522  0.00  0.00    -0.043 A 
ATOM     27  C   UNL     1      -9.155   2.872  -3.139  0.00  0.00    +0.007 A 
ATOM     28  C   UNL     1     -10.345   3.490  -3.472  0.00  0.00    +0.046 A 
ATOM     29  C   UNL     1     -11.313   2.793  -4.180  0.00  0.00    +0.121 A 
ATOM     30  C   UNL     1     -11.081   1.478  -4.558  0.00  0.00    +0.046 A 
ATOM     31  C   UNL     1      -9.887   0.867  -4.228  0.00  0.00    +0.007 A 
BRANCH  29  32
ATOM     32  O   UNL     1     -12.487   3.397  -4.502  0.00  0.00    -0.489 OA
BRANCH  32  33
ATOM     33  C   UNL     1     -12.706   4.709  -3.981  0.00  0.00    +0.167 C 
ATOM     34  C   UNL     1     -12.056   5.740  -4.905  0.00  0.00    +0.051 C 
ATOM     35  C   UNL     1     -14.210   4.978  -3.894  0.00  0.00    +0.051 C 
ENDBRANCH  32  33
ENDBRANCH  29  32
ENDBRANCH  11  26
TORSDOF 7
