REMARK  Name = ZINC00837487
REMARK  8 active torsions:
REMARK  status: ('A' for Active; 'I' for Inactive)
REMARK    1  A    between atoms: C_1  and  C_2
REMARK    2  A    between atoms: C_8  and  C_34
REMARK    3  A    between atoms: C_9  and  C_28
REMARK    4  A    between atoms: N_10  and  C_11
REMARK    5  A    between atoms: C_11  and  C_12
REMARK    6  A    between atoms: C_12  and  C_14
REMARK    7  A    between atoms: C_12  and  O_27
REMARK    8  A    between atoms: C_14  and  N_15
REMARK                            x       y       z     vdW  Elec       q    Type
REMARK                         _______ _______ _______ _____ _____    ______ ____
ROOT
ATOM      1  C   UNL     1      -0.539  -3.299  -4.417  0.00  0.00    +0.044 C 
ATOM      2  C   UNL     1      -0.008  -3.607  -3.041  0.00  0.00    -0.050 A 
ATOM      3  C   UNL     1       0.062  -4.924  -2.608  0.00  0.00    +0.005 A 
ATOM      4  C   UNL     1       0.543  -5.227  -1.353  0.00  0.00    +0.027 A 
ATOM      5  C   UNL     1       0.965  -4.204  -0.508  0.00  0.00    +0.050 A 
ATOM      6  C   UNL     1       0.892  -2.872  -0.952  0.00  0.00    +0.008 A 
ATOM      7  C   UNL     1       0.401  -2.588  -2.227  0.00  0.00    +0.014 A 
ATOM      8  C   UNL     1       1.402  -2.041   0.148  0.00  0.00    +0.015 A 
ATOM      9  C   UNL     1       1.749  -2.907   1.164  0.00  0.00    +0.058 A 
ATOM     10  N   UNL     1       1.481  -4.195   0.770  0.00  0.00    -0.337 N 
ENDROOT
BRANCH   9  11
ATOM     11  C   UNL     1       2.315  -2.511   2.469  0.00  0.00    -0.001 A 
ATOM     12  C   UNL     1       3.527  -3.054   2.901  0.00  0.00    +0.010 A 
ATOM     13  C   UNL     1       4.053  -2.675   4.119  0.00  0.00    +0.001 A 
ATOM     14  C   UNL     1       3.377  -1.769   4.917  0.00  0.00    +0.000 A 
ATOM     15  C   UNL     1       2.173  -1.232   4.497  0.00  0.00    +0.001 A 
ATOM     16  C   UNL     1       1.638  -1.597   3.279  0.00  0.00    +0.010 A 
ENDBRANCH   9  11
BRANCH   8  17
ATOM     17  C   UNL     1       1.524  -0.566   0.160  0.00  0.00    -0.015 A 
ATOM     18  C   UNL     1       0.380   0.232   0.135  0.00  0.00    +0.008 A 
ATOM     19  C   UNL     1       0.501   1.606   0.146  0.00  0.00    +0.001 A 
ATOM     20  C   UNL     1       1.754   2.193   0.183  0.00  0.00    +0.000 A 
ATOM     21  C   UNL     1       2.892   1.407   0.208  0.00  0.00    +0.001 A 
ATOM     22  C   UNL     1       2.785   0.032   0.197  0.00  0.00    +0.008 A 
ENDBRANCH   8  17
BRANCH  10  23
ATOM     23  C   UNL     1       1.717  -5.388   1.588  0.00  0.00    +0.155 C 
BRANCH  23  24
ATOM     24  C   UNL     1       3.094  -5.968   1.259  0.00  0.00    +0.153 C 
BRANCH  24  25
ATOM     25  O   UNL     1       3.109  -6.422  -0.096  0.00  0.00    -0.388 OA
ATOM     26  H   UNL     1       2.456  -7.109  -0.287  0.00  0.00    +0.210 HD
ENDBRANCH  24  25
BRANCH  24  27
ATOM     27  C   UNL     1       3.388  -7.143   2.194  0.00  0.00    +0.168 C 
BRANCH  27  28
ATOM     28  N   UNL     1       4.753  -7.622   1.961  0.00  0.00    -0.165 N 
ATOM     29  C   UNL     1       5.157  -8.504   1.034  0.00  0.00    +0.268 C 
ATOM     30  O   UNL     1       4.363  -9.007   0.263  0.00  0.00    -0.268 OA
ATOM     31  C   UNL     1       6.585  -8.842   0.974  0.00  0.00    +0.065 A 
ATOM     32  C   UNL     1       7.271  -9.718   0.114  0.00  0.00    +0.015 A 
ATOM     33  C   UNL     1       8.630  -9.892   0.239  0.00  0.00    +0.001 A 
ATOM     34  C   UNL     1       9.348  -9.213   1.207  0.00  0.00    +0.002 A 
ATOM     35  C   UNL     1       8.688  -8.344   2.065  0.00  0.00    +0.029 A 
ATOM     36  C   UNL     1       7.339  -8.169   1.944  0.00  0.00    +0.121 A 
ATOM     37  S   UNL     1       6.135  -7.190   2.800  0.00  0.00    +0.078 S 
ATOM     38  O   UNL     1       6.405  -5.825   2.513  0.00  0.00    -0.150 OA
ATOM     39  O   UNL     1       6.018  -7.705   4.119  0.00  0.00    -0.150 OA
ENDBRANCH  27  28
ENDBRANCH  24  27
ENDBRANCH  23  24
ENDBRANCH  10  23
TORSDOF 7
