REMARK  Name = ZINC59170391
REMARK  6 active torsions:
REMARK  status: ('A' for Active; 'I' for Inactive)
REMARK    1  A    between atoms: C_1  and  C_2
REMARK    2  A    between atoms: C_5  and  S_8
REMARK    3  A    between atoms: S_8  and  N_11
REMARK    4  A    between atoms: N_11  and  N_12
REMARK    5  A    between atoms: C_14  and  C_24
REMARK    6  A    between atoms: N_26  and  C_27
REMARK                            x       y       z     vdW  Elec       q    Type
REMARK                         _______ _______ _______ _____ _____    ______ ____
ROOT
ATOM      1  N   UNL     1       3.299  -3.613  -0.171  0.00  0.00    -0.260 N 
ATOM      2  C   UNL     1       4.391  -4.287   0.054  0.00  0.00    +0.225 A 
ATOM      3  C   UNL     1       5.050  -4.253   1.381  0.00  0.00    +0.099 A 
ATOM      4  C   UNL     1       5.808  -5.344   1.734  0.00  0.00    +0.030 A 
ATOM      5  C   UNL     1       5.902  -6.448   0.771  0.00  0.00    +0.020 A 
ATOM      6  C   UNL     1       6.422  -7.687   1.155  0.00  0.00    +0.031 A 
ATOM      7  C   UNL     1       6.497  -8.711   0.234  0.00  0.00    +0.042 A 
ATOM      8  C   UNL     1       6.061  -8.515  -1.068  0.00  0.00    +0.023 A 
ATOM      9  C   UNL     1       5.546  -7.294  -1.460  0.00  0.00    +0.048 A 
ATOM     10  C   UNL     1       5.462  -6.253  -0.550  0.00  0.00    +0.138 A 
ATOM     11  O   UNL     1       4.961  -5.051  -0.923  0.00  0.00    -0.437 OA
ATOM     12 CL   UNL     1       7.143 -10.252   0.705  0.00  0.00    -0.084 Cl
ATOM     13  H   UNL     1       2.860  -3.143   0.556  0.00  0.00    +0.189 HD
ENDROOT
BRANCH   3  14
ATOM     14  C   UNL     1       4.899  -3.099   2.283  0.00  0.00    +0.253 C 
ATOM     15  O   UNL     1       4.158  -2.183   1.980  0.00  0.00    -0.270 OA
ATOM     16  N   UNL     1       5.581  -3.059   3.445  0.00  0.00    -0.281 N 
ATOM     17  H   UNL     1       6.240  -3.742   3.644  0.00  0.00    +0.155 HD
BRANCH  16  18
ATOM     18  C   UNL     1       5.338  -2.031   4.362  0.00  0.00    +0.034 A 
ATOM     19  C   UNL     1       4.066  -1.487   4.477  0.00  0.00    +0.023 A 
ATOM     20  C   UNL     1       3.830  -0.472   5.384  0.00  0.00    +0.002 A 
ATOM     21  C   UNL     1       4.859   0.002   6.177  0.00  0.00    +0.000 A 
ATOM     22  C   UNL     1       6.128  -0.538   6.064  0.00  0.00    +0.002 A 
ATOM     23  C   UNL     1       6.369  -1.557   5.163  0.00  0.00    +0.023 A 
ENDBRANCH  16  18
ENDBRANCH   3  14
BRANCH   1  24
ATOM     24  N   UNL     1       2.757  -3.568  -1.462  0.00  0.00    -0.157 N 
ATOM     25  H   UNL     1       3.153  -4.096  -2.173  0.00  0.00    +0.194 HD
BRANCH  24  26
ATOM     26  S   UNL     1       1.442  -2.612  -1.776  0.00  0.00    +0.085 S 
ATOM     27  O   UNL     1       0.401  -3.061  -0.919  0.00  0.00    -0.149 OA
ATOM     28  O   UNL     1       1.300  -2.567  -3.189  0.00  0.00    -0.149 OA
BRANCH  26  33
ATOM     29  C   UNL     1       2.838   2.985  -0.005  0.00  0.00    +0.044 C 
ATOM     30  C   UNL     1       2.489   1.587  -0.447  0.00  0.00    -0.050 A 
ATOM     31  C   UNL     1       2.858   1.148  -1.705  0.00  0.00    +0.005 A 
ATOM     32  C   UNL     1       2.539  -0.135  -2.110  0.00  0.00    +0.029 A 
ATOM     33  C   UNL     1       1.850  -0.978  -1.258  0.00  0.00    +0.110 A 
ATOM     34  C   UNL     1       1.482  -0.539  -0.000  0.00  0.00    +0.029 A 
ATOM     35  C   UNL     1       1.805   0.742   0.407  0.00  0.00    +0.005 A 
ENDBRANCH  26  33
ENDBRANCH  24  26
ENDBRANCH   1  24
TORSDOF 5
