REMARK  Name = ZINC39431157
REMARK  6 active torsions:
REMARK  status: ('A' for Active; 'I' for Inactive)
REMARK    1  A    between atoms: C_1  and  C_2
REMARK    2  A    between atoms: C_2  and  C_4
REMARK    3  A    between atoms: C_2  and  S_16
REMARK    4  A    between atoms: S_16  and  C_17
REMARK    5  A    between atoms: C_21  and  C_31
REMARK    6  A    between atoms: N_23  and  C_24
REMARK                            x       y       z     vdW  Elec       q    Type
REMARK                         _______ _______ _______ _____ _____    ______ ____
ROOT
ATOM      1  C   UNL     1      -2.462  -0.100   1.801  0.00  0.00    +0.274 C 
ATOM      2  N   UNL     1      -2.495   1.333   2.098  0.00  0.00    -0.180 NA
ATOM      3  N   UNL     1      -1.601   1.659   2.877  0.00  0.00    -0.286 N 
ATOM      4  C   UNL     1      -0.777   0.515   3.268  0.00  0.00    +0.218 C 
ATOM      5  N   UNL     1      -1.333  -0.657   2.567  0.00  0.00    -0.273 N 
ATOM      6  H   UNL     1      -1.459   2.565   3.192  0.00  0.00    +0.185 HD
ENDROOT
BRANCH   5   7
ATOM      7  C   UNL     1      -0.893  -1.984   2.615  0.00  0.00    +0.034 A 
ATOM      8  C   UNL     1       0.115  -2.350   3.498  0.00  0.00    +0.026 A 
ATOM      9  C   UNL     1       0.547  -3.661   3.544  0.00  0.00    +0.040 A 
ATOM     10  C   UNL     1      -0.023  -4.609   2.712  0.00  0.00    +0.124 A 
ATOM     11  C   UNL     1      -1.028  -4.246   1.832  0.00  0.00    +0.040 A 
ATOM     12  C   UNL     1      -1.467  -2.938   1.785  0.00  0.00    +0.026 A 
ATOM     13  F   UNL     1       0.402  -5.891   2.759  0.00  0.00    -0.205 F 
ENDBRANCH   5   7
BRANCH   4  14
ATOM     14  C   UNL     1       0.653   0.740   2.850  0.00  0.00    -0.006 A 
ATOM     15  C   UNL     1       1.345   1.841   3.319  0.00  0.00    +0.010 A 
ATOM     16  C   UNL     1       2.656   2.049   2.936  0.00  0.00    +0.039 A 
ATOM     17  C   UNL     1       3.278   1.153   2.083  0.00  0.00    +0.123 A 
ATOM     18  C   UNL     1       2.584   0.050   1.614  0.00  0.00    +0.039 A 
ATOM     19  C   UNL     1       1.274  -0.158   2.002  0.00  0.00    +0.010 A 
ATOM     20  F   UNL     1       4.560   1.355   1.708  0.00  0.00    -0.205 F 
ENDBRANCH   4  14
BRANCH   1  21
ATOM     21  S   UNL     1      -2.201  -0.362   0.026  0.00  0.00    -0.103 S 
BRANCH  21  23
ATOM     22  C   UNL     1      -1.193   2.151  -0.362  0.00  0.00    +0.027 C 
ATOM     23  C   UNL     1      -0.769   0.680  -0.366  0.00  0.00    +0.113 C 
BRANCH  23  24
ATOM     24  C   UNL     1      -0.238   0.314  -1.728  0.00  0.00    +0.123 A 
ATOM     25  N   UNL     1       0.779   1.053  -2.243  0.00  0.00    -0.309 N 
ATOM     26  H   UNL     1       1.141   1.794  -1.733  0.00  0.00    +0.170 HD
ATOM     27  C   UNL     1       1.291   0.764  -3.462  0.00  0.00    +0.259 A 
ATOM     28  O   UNL     1       2.203   1.418  -3.936  0.00  0.00    -0.267 OA
ATOM     29  C   UNL     1       0.705  -0.370  -4.192  0.00  0.00    +0.065 A 
ATOM     30  C   UNL     1       1.159  -0.750  -5.453  0.00  0.00    +0.015 A 
ATOM     31  C   UNL     1       0.573  -1.820  -6.092  0.00  0.00    +0.001 A 
ATOM     32  C   UNL     1      -0.464  -2.521  -5.490  0.00  0.00    +0.002 A 
ATOM     33  C   UNL     1      -0.928  -2.162  -4.244  0.00  0.00    +0.028 A 
ATOM     34  C   UNL     1      -0.349  -1.080  -3.576  0.00  0.00    +0.078 A 
ATOM     35  N   UNL     1      -0.772  -0.696  -2.346  0.00  0.00    -0.233 NA
ENDBRANCH  23  24
ENDBRANCH  21  23
ENDBRANCH   1  21
TORSDOF 5
