REMARK  Name = ZINC43896065
REMARK  5 active torsions:
REMARK  status: ('A' for Active; 'I' for Inactive)
REMARK    1  A    between atoms: C_4  and  C_7
REMARK    2  A    between atoms: C_9  and  C_28
REMARK    3  A    between atoms: C_22  and  C_23
REMARK    4  A    between atoms: C_22  and  C_25
REMARK    5  A    between atoms: C_28  and  C_30
REMARK                            x       y       z     vdW  Elec       q    Type
REMARK                         _______ _______ _______ _____ _____    ______ ____
ROOT
ATOM      1  C   UNL     1       3.917  -0.446  -0.065  0.00  0.00    +0.083 C 
ATOM      2  C   UNL     1       3.645  -1.541  -1.134  0.00  0.00    +0.155 C 
ATOM      3  N   UNL     1       4.400  -2.694  -0.642  0.00  0.00    -0.309 N 
ATOM      4  C   UNL     1       5.091  -3.673  -1.348  0.00  0.00    +0.038 A 
ATOM      5  C   UNL     1       4.693  -4.165  -2.571  0.00  0.00    +0.025 A 
ATOM      6  C   UNL     1       5.442  -5.155  -3.185  0.00  0.00    +0.022 A 
ATOM      7  C   UNL     1       6.584  -5.649  -2.576  0.00  0.00    +0.042 A 
ATOM      8  C   UNL     1       6.997  -5.159  -1.351  0.00  0.00    +0.029 A 
ATOM      9  C   UNL     1       6.260  -4.159  -0.727  0.00  0.00    -0.003 A 
ATOM     10  C   UNL     1       6.676  -3.569   0.560  0.00  0.00    +0.007 C 
ATOM     11  C   UNL     1       5.824  -2.862   1.298  0.00  0.00    -0.002 C 
ATOM     12  C   UNL     1       4.408  -2.652   0.836  0.00  0.00    +0.132 C 
ATOM     13  C   UNL     1       3.881  -1.269   1.250  0.00  0.00    +0.173 C 
ATOM     14 CL   UNL     1       7.504  -6.897  -3.357  0.00  0.00    -0.084 Cl
ENDROOT
BRANCH   1  18
ATOM     15  C   UNL     1       0.844   2.521  -0.100  0.00  0.00    +0.000 A 
ATOM     16  C   UNL     1       2.167   2.897   0.034  0.00  0.00    +0.000 A 
ATOM     17  C   UNL     1       3.162   1.937   0.045  0.00  0.00    +0.004 A 
ATOM     18  C   UNL     1       2.833   0.600  -0.077  0.00  0.00    -0.040 A 
ATOM     19  C   UNL     1       1.510   0.223  -0.210  0.00  0.00    +0.004 A 
ATOM     20  C   UNL     1       0.515   1.183  -0.223  0.00  0.00    +0.000 A 
ENDBRANCH   1  18
BRANCH  13  21
ATOM     21  C   UNL     1       2.502  -1.373   1.756  0.00  0.00    +0.087 C 
ATOM     22  N   UNL     1       1.438  -1.453   2.146  0.00  0.00    -0.195 NA
ENDBRANCH  13  21
BRANCH  13  23
ATOM     23  C   UNL     1       4.760  -0.663   2.263  0.00  0.00    +0.087 C 
ATOM     24  N   UNL     1       5.438  -0.195   3.045  0.00  0.00    -0.195 NA
ENDBRANCH  13  23
BRANCH   2  25
ATOM     25  C   UNL     1       4.155  -1.104  -2.483  0.00  0.00    +0.184 C 
ATOM     26  O   UNL     1       5.273  -0.647  -2.590  0.00  0.00    -0.290 OA
BRANCH  25  27
ATOM     27  C   UNL     1       3.296  -1.231  -3.671  0.00  0.00    +0.019 A 
ATOM     28  C   UNL     1       2.050  -1.858  -3.574  0.00  0.00    +0.011 A 
ATOM     29  C   UNL     1       1.250  -1.973  -4.691  0.00  0.00    +0.001 A 
ATOM     30  C   UNL     1       1.678  -1.469  -5.907  0.00  0.00    +0.000 A 
ATOM     31  C   UNL     1       2.910  -0.847  -6.012  0.00  0.00    +0.001 A 
ATOM     32  C   UNL     1       3.719  -0.720  -4.902  0.00  0.00    +0.011 A 
ENDBRANCH  25  27
ENDBRANCH   2  25
TORSDOF 5
