REMARK  Name = ZINC27008633
REMARK  7 active torsions:
REMARK  status: ('A' for Active; 'I' for Inactive)
REMARK    1  A    between atoms: C_1  and  C_2
REMARK    2  A    between atoms: C_4  and  C_7
REMARK    3  A    between atoms: C_9  and  C_13
REMARK    4  A    between atoms: N_15  and  N_16
REMARK    5  A    between atoms: C_17  and  C_19
REMARK    6  A    between atoms: N_21  and  C_30
REMARK    7  A    between atoms: C_23  and  C_24
REMARK                            x       y       z     vdW  Elec       q    Type
REMARK                         _______ _______ _______ _____ _____    ______ ____
ROOT
ATOM      1  N   UNL     1       4.100   4.958   2.038  0.00  0.00    -0.230 N 
ATOM      2  C   UNL     1       3.300   4.029   1.478  0.00  0.00    +0.264 C 
ATOM      3  O   UNL     1       3.541   2.847   1.630  0.00  0.00    -0.269 OA
ATOM      4  H   UNL     1       3.882   6.027   1.900  0.00  0.00    +0.173 HD
ENDROOT
BRANCH   2   5
ATOM      5  C   UNL     1       2.133   4.446   0.681  0.00  0.00    +0.084 A 
ATOM      6  C   UNL     1       1.731   5.740   0.419  0.00  0.00    +0.128 A 
ATOM      7  N   UNL     1       0.624   5.681  -0.342  0.00  0.00    -0.239 N 
ATOM      8  N   UNL     1       0.294   4.346  -0.589  0.00  0.00    -0.166 NA
ATOM      9  C   UNL     1       1.169   3.569   0.010  0.00  0.00    +0.105 A 
BRANCH   9  10
ATOM     10  C   UNL     1       1.183   2.087   0.002  0.00  0.00    +0.003 A 
ATOM     11  C   UNL     1      -0.017   1.376   0.010  0.00  0.00    +0.010 A 
ATOM     12  C   UNL     1       0.002  -0.004   0.002  0.00  0.00    +0.001 A 
ATOM     13  C   UNL     1       1.208  -0.682  -0.013  0.00  0.00    +0.000 A 
ATOM     14  C   UNL     1       2.401   0.018  -0.021  0.00  0.00    +0.001 A 
ATOM     15  C   UNL     1       2.394   1.398  -0.013  0.00  0.00    +0.010 A 
ENDBRANCH   9  10
BRANCH   7  16
ATOM     16  C   UNL     1      -0.088   6.790  -0.818  0.00  0.00    +0.065 A 
ATOM     17  C   UNL     1       0.336   8.075  -0.506  0.00  0.00    +0.028 A 
ATOM     18  C   UNL     1      -0.364   9.166  -0.983  0.00  0.00    +0.002 A 
ATOM     19  C   UNL     1      -1.493   8.979  -1.759  0.00  0.00    +0.000 A 
ATOM     20  C   UNL     1      -1.921   7.701  -2.067  0.00  0.00    +0.002 A 
ATOM     21  C   UNL     1      -1.222   6.606  -1.599  0.00  0.00    +0.028 A 
ENDBRANCH   7  16
ENDBRANCH   2   5
BRANCH   1  24
ATOM     22  C   UNL     1       6.010   5.490   3.355  0.00  0.00    +0.276 C 
ATOM     23  O   UNL     1       5.769   6.673   3.203  0.00  0.00    -0.267 OA
ATOM     24  N   UNL     1       5.210   4.561   2.795  0.00  0.00    -0.229 N 
ATOM     25  H   UNL     1       5.428   3.492   2.933  0.00  0.00    +0.173 HD
BRANCH  22  28
ATOM     26  C   UNL     1       9.013   5.095   5.413  0.00  0.00    +0.019 A 
ATOM     27  C   UNL     1       8.061   5.908   4.768  0.00  0.00    +0.042 A 
ATOM     28  C   UNL     1       7.172   5.075   4.149  0.00  0.00    +0.104 A 
ATOM     29  N   UNL     1       7.555   3.778   4.405  0.00  0.00    -0.356 N 
ATOM     30  H   UNL     1       6.967   2.941   4.001  0.00  0.00    +0.165 HD
ATOM     31  C   UNL     1       8.675   3.795   5.168  0.00  0.00    +0.093 A 
BRANCH  26  35
ATOM     32  C   UNL     1      11.837   8.700   7.394  0.00  0.00    +0.073 C 
ATOM     33  C   UNL     1      11.422   7.283   7.093  0.00  0.00    +0.076 A 
ATOM     34  N   UNL     1      10.405   6.858   6.383  0.00  0.00    -0.244 NA
ATOM     35  C   UNL     1      10.171   5.566   6.215  0.00  0.00    +0.080 A 
ATOM     36  C   UNL     1      11.033   4.678   6.797  0.00  0.00    +0.075 A 
ATOM     37  S   UNL     1      12.173   5.800   7.593  0.00  0.00    -0.080 S 
ENDBRANCH  26  35
ENDBRANCH  22  28
ENDBRANCH   1  24
TORSDOF 6
