REMARK  Name = ZINC13500076
REMARK  13 active torsions:
REMARK  status: ('A' for Active; 'I' for Inactive)
REMARK    1  A    between atoms: C_1  and  C_2
REMARK    2  A    between atoms: C_2  and  C_3
REMARK    3  A    between atoms: C_3  and  C_4
REMARK    4  A    between atoms: C_4  and  C_6
REMARK    5  A    between atoms: C_4  and  N_75
REMARK    6  A    between atoms: N_10  and  C_11
REMARK    7  A    between atoms: C_11  and  C_12
REMARK    8  A    between atoms: C_12  and  C_13
REMARK    9  A    between atoms: C_19  and  C_20
REMARK   10  A    between atoms: C_19  and  N_75
REMARK   11  A    between atoms: C_24  and  C_33
REMARK   12  A    between atoms: C_26  and  C_32
REMARK   13  A    between atoms: C_34  and  N_75
REMARK                            x       y       z     vdW  Elec       q    Type
REMARK                         _______ _______ _______ _____ _____    ______ ____
ROOT
ATOM      1  N   UNL     1      -1.216   8.020  -1.367  0.00  0.00    +0.391 N 
ATOM      2  H   UNL     1      -1.964   7.400  -1.701  0.00  0.00    -0.080 HD
ENDROOT
BRANCH   1   3
ATOM      3  C   UNL     1      -0.004   7.792  -2.181  0.00  0.00    -0.067 C 
ATOM      4  C   UNL     1       1.124   8.766  -1.780  0.00  0.00    -0.015 C 
ATOM      5  C   UNL     1       1.817   9.116  -3.122  0.00  0.00    -0.002 C 
ATOM      6  C   UNL     1       0.626   9.202  -4.110  0.00  0.00    -0.002 C 
ATOM      7  C   UNL     1      -0.320   8.069  -3.661  0.00  0.00    -0.015 C 
ENDBRANCH   1   3
BRANCH   1   8
ATOM      8  C   UNL     1      -1.660   9.423  -1.503  0.00  0.00    +0.003 C 
BRANCH   8   9
ATOM      9  C   UNL     1      -0.955  10.297  -0.497  0.00  0.00    +0.138 A 
ATOM     10  N   UNL     1      -0.824  10.065   0.786  0.00  0.00    -0.115 NA
ATOM     11  N   UNL     1      -0.161  11.042   1.301  0.00  0.00    -0.023 NA
ATOM     12  N   UNL     1       0.135  11.891   0.380  0.00  0.00    -0.044 NA
ATOM     13  N   UNL     1      -0.333  11.465  -0.744  0.00  0.00    -0.231 N 
BRANCH  13  14
ATOM     14  C   UNL     1      -0.213  12.129  -2.044  0.00  0.00    +0.152 C 
BRANCH  14  15
ATOM     15  C   UNL     1      -1.403  13.069  -2.249  0.00  0.00    +0.058 C 
BRANCH  15  16
ATOM     16  C   UNL     1      -1.280  13.752  -3.586  0.00  0.00    -0.046 A 
ATOM     17  C   UNL     1      -0.613  14.959  -3.687  0.00  0.00    +0.004 A 
ATOM     18  C   UNL     1      -0.495  15.583  -4.915  0.00  0.00    +0.000 A 
ATOM     19  C   UNL     1      -1.053  15.006  -6.040  0.00  0.00    +0.000 A 
ATOM     20  C   UNL     1      -1.725  13.802  -5.938  0.00  0.00    +0.000 A 
ATOM     21  C   UNL     1      -1.838  13.175  -4.712  0.00  0.00    +0.004 A 
ENDBRANCH  15  16
ENDBRANCH  14  15
ENDBRANCH  13  14
ENDBRANCH   8   9
BRANCH   8  22
ATOM     22  C   UNL     1      -3.170   9.483  -1.261  0.00  0.00    -0.008 C 
BRANCH  22  24
ATOM     23  C   UNL     1      -5.405   8.849  -2.181  0.00  0.00    +0.004 C 
ATOM     24  C   UNL     1      -3.893   8.688  -2.350  0.00  0.00    -0.005 C 
ENDBRANCH  22  24
ENDBRANCH   8  22
ENDBRANCH   1   8
BRANCH   1  25
ATOM     25  C   UNL     1      -0.937   7.713   0.052  0.00  0.00    -0.036 C 
BRANCH  25  26
ATOM     26  C   UNL     1      -0.859   6.218   0.218  0.00  0.00    +0.001 A 
ATOM     27  C   UNL     1       0.349   5.604   0.250  0.00  0.00    +0.017 A 
ATOM     28  C   UNL     1       0.391   4.149   0.412  0.00  0.00    -0.001 A 
ATOM     29  C   UNL     1       1.607   3.460   0.451  0.00  0.00    +0.013 A 
ATOM     30  C   UNL     1       1.612   2.102   0.603  0.00  0.00    -0.050 A 
ATOM     31  C   UNL     1       0.420   1.401   0.719  0.00  0.00    +0.008 A 
ATOM     32  C   UNL     1      -0.790   2.058   0.678  0.00  0.00    -0.026 A 
ATOM     33  C   UNL     1      -0.820   3.441   0.529  0.00  0.00    +0.052 A 
ATOM     34  N   UNL     1      -2.016   4.125   0.489  0.00  0.00    -0.322 N 
ATOM     35  H   UNL     1      -2.850   3.635   0.570  0.00  0.00    +0.169 HD
ATOM     36  C   UNL     1      -2.044   5.461   0.340  0.00  0.00    +0.251 A 
ATOM     37  O   UNL     1      -3.120   6.033   0.309  0.00  0.00    -0.268 OA
ATOM     38  C   UNL     1      -2.077   1.283   0.799  0.00  0.00    +0.046 C 
ATOM     39  C   UNL     1       2.923   1.360   0.646  0.00  0.00    +0.044 C 
ENDBRANCH  25  26
ENDBRANCH   1  25
TORSDOF 10
