REMARK  Name = ZINC28049224
REMARK  10 active torsions:
REMARK  status: ('A' for Active; 'I' for Inactive)
REMARK    1  A    between atoms: C_1  and  C_2
REMARK    2  A    between atoms: C_2  and  C_3
REMARK    3  A    between atoms: C_2  and  C_4
REMARK    4  A    between atoms: C_7  and  S_10
REMARK    5  A    between atoms: S_10  and  N_13
REMARK    6  A    between atoms: N_13  and  C_14
REMARK    7  A    between atoms: C_19  and  S_20
REMARK    8  A    between atoms: S_20  and  C_21
REMARK    9  A    between atoms: N_27  and  C_32
REMARK   10  A    between atoms: N_30  and  C_31
REMARK                            x       y       z     vdW  Elec       q    Type
REMARK                         _______ _______ _______ _____ _____    ______ ____
ROOT
ATOM      1  C   UNL     1      -0.806  -2.370   0.065  0.00  0.00    +0.063 A 
ATOM      2  C   UNL     1      -1.240  -1.099   0.402  0.00  0.00    +0.053 A 
ATOM      3  C   UNL     1      -0.321  -0.133   0.786  0.00  0.00    +0.071 A 
ATOM      4  C   UNL     1       1.039  -0.442   0.832  0.00  0.00    +0.071 A 
ATOM      5  C   UNL     1       1.474  -1.715   0.494  0.00  0.00    +0.044 A 
ATOM      6  C   UNL     1       0.555  -2.680   0.111  0.00  0.00    +0.033 A 
ATOM      7  N   UNL     1       1.701   0.714   1.246  0.00  0.00    -0.295 N 
ATOM      8  C   UNL     1       0.784   1.680   1.443  0.00  0.00    +0.330 A 
ATOM      9  O   UNL     1       1.030   2.815   1.808  0.00  0.00    -0.246 OA
ATOM     10  N   UNL     1      -0.445   1.201   1.173  0.00  0.00    -0.295 N 
ATOM     11  C   UNL     1      -1.698   1.955   1.266  0.00  0.00    +0.154 C 
ATOM     12  C   UNL     1       3.147   0.853   1.436  0.00  0.00    +0.154 C 
ENDROOT
BRANCH   1  13
ATOM     13  N   UNL     1      -1.733  -3.348  -0.322  0.00  0.00    -0.215 N 
ATOM     14  H   UNL     1      -1.574  -4.399  -0.041  0.00  0.00    +0.174 HD
BRANCH  13  15
ATOM     15  S   UNL     1      -3.068  -2.919  -1.204  0.00  0.00    +0.072 S 
ATOM     16  O   UNL     1      -3.733  -4.127  -1.547  0.00  0.00    -0.150 OA
ATOM     17  O   UNL     1      -3.710  -1.874  -0.486  0.00  0.00    -0.150 OA
BRANCH  15  21
ATOM     18  C   UNL     1      -1.589  -1.108  -5.079  0.00  0.00    -0.045 A 
ATOM     19  C   UNL     1      -1.825  -2.467  -4.997  0.00  0.00    +0.006 A 
ATOM     20  C   UNL     1      -2.277  -3.020  -3.814  0.00  0.00    +0.029 A 
ATOM     21  C   UNL     1      -2.492  -2.214  -2.712  0.00  0.00    +0.109 A 
ATOM     22  C   UNL     1      -2.261  -0.854  -2.795  0.00  0.00    +0.029 A 
ATOM     23  C   UNL     1      -1.805  -0.301  -3.978  0.00  0.00    +0.006 A 
BRANCH  18  25
ATOM     24  C   UNL     1      -2.103   0.535  -6.864  0.00  0.00    +0.012 C 
ATOM     25  C   UNL     1      -1.095  -0.505  -6.369  0.00  0.00    +0.013 C 
ATOM     26  C   UNL     1       0.258   0.169  -6.132  0.00  0.00    +0.012 C 
ENDBRANCH  18  25
ENDBRANCH  15  21
ENDBRANCH  13  15
ENDBRANCH   1  13
BRANCH   6  27
ATOM     27  S   UNL     1       1.104  -4.298  -0.317  0.00  0.00    -0.120 S 
BRANCH  27  28
ATOM     28  C   UNL     1       2.913  -4.170  -0.286  0.00  0.00    +0.051 C 
ATOM     29  C   UNL     1       3.385  -3.322  -1.469  0.00  0.00    +0.014 C 
ATOM     30  C   UNL     1       4.911  -3.213  -1.443  0.00  0.00    +0.001 C 
ATOM     31  C   UNL     1       5.523  -4.612  -1.542  0.00  0.00    +0.000 C 
ATOM     32  C   UNL     1       5.052  -5.460  -0.359  0.00  0.00    +0.001 C 
ATOM     33  C   UNL     1       3.526  -5.568  -0.385  0.00  0.00    +0.014 C 
ENDBRANCH  27  28
ENDBRANCH   6  27
TORSDOF 6
