REMARK  Name = ZINC12562738
REMARK  8 active torsions:
REMARK  status: ('A' for Active; 'I' for Inactive)
REMARK    1  A    between atoms: C_1  and  N_54
REMARK    2  A    between atoms: C_2  and  C_3
REMARK    3  A    between atoms: C_2  and  N_54
REMARK    4  A    between atoms: C_8  and  N_9
REMARK    5  A    between atoms: C_15  and  C_16
REMARK    6  A    between atoms: C_15  and  N_54
REMARK    7  A    between atoms: N_18  and  C_19
REMARK    8  A    between atoms: C_22  and  N_26
REMARK                            x       y       z     vdW  Elec       q    Type
REMARK                         _______ _______ _______ _____ _____    ______ ____
ROOT
ATOM      1  C   UNL     1      -5.091   0.356   1.142  0.00  0.00    -0.095 C 
ATOM      2  N   UNL     1      -4.824   1.029  -0.146  0.00  0.00    +0.386 N 
ATOM      3  H   UNL     1      -4.596   0.320  -0.852  0.00  0.00    -0.081 HD
ENDROOT
BRANCH   2   4
ATOM      4  C   UNL     1      -6.023   1.775  -0.584  0.00  0.00    -0.041 C 
BRANCH   4   5
ATOM      5  C   UNL     1      -7.061   0.789  -1.054  0.00  0.00    -0.043 A 
ATOM      6  C   UNL     1      -8.152   0.501  -0.258  0.00  0.00    +0.003 A 
ATOM      7  C   UNL     1      -9.107  -0.400  -0.691  0.00  0.00    +0.000 A 
ATOM      8  C   UNL     1      -8.970  -1.022  -1.918  0.00  0.00    +0.002 A 
ATOM      9  C   UNL     1      -7.879  -0.742  -2.717  0.00  0.00    +0.023 A 
ATOM     10  C   UNL     1      -6.920   0.166  -2.288  0.00  0.00    +0.031 A 
BRANCH  10  11
ATOM     11  N   UNL     1      -5.815   0.452  -3.093  0.00  0.00    -0.330 N 
ATOM     12  C   UNL     1      -6.223   1.160  -4.313  0.00  0.00    +0.105 C 
ATOM     13  C   UNL     1      -4.979   1.584  -5.098  0.00  0.00    +0.019 C 
ATOM     14  C   UNL     1      -4.160   0.341  -5.457  0.00  0.00    +0.003 C 
ATOM     15  C   UNL     1      -3.790  -0.405  -4.172  0.00  0.00    +0.019 C 
ATOM     16  C   UNL     1      -5.068  -0.771  -3.414  0.00  0.00    +0.105 C 
ENDBRANCH  10  11
ENDBRANCH   4   5
ENDBRANCH   2   4
BRANCH   2  17
ATOM     17  C   UNL     1      -3.679   1.952  -0.005  0.00  0.00    +0.019 C 
BRANCH  17  18
ATOM     18  C   UNL     1      -2.428   1.143   0.225  0.00  0.00    +0.201 C 
ATOM     19  O   UNL     1      -2.490  -0.066   0.282  0.00  0.00    -0.278 OA
ATOM     20  N   UNL     1      -1.240   1.764   0.366  0.00  0.00    -0.286 N 
ATOM     21  H   UNL     1      -1.200   2.733   0.401  0.00  0.00    +0.155 HD
BRANCH  20  22
ATOM     22  C   UNL     1      -0.064   1.012   0.464  0.00  0.00    +0.048 A 
ATOM     23  C   UNL     1      -0.040  -0.302   0.016  0.00  0.00    +0.026 A 
ATOM     24  C   UNL     1       1.123  -1.041   0.108  0.00  0.00    +0.034 A 
ATOM     25  C   UNL     1       2.264  -0.473   0.645  0.00  0.00    +0.127 A 
ATOM     26  C   UNL     1       2.244   0.836   1.092  0.00  0.00    +0.049 A 
ATOM     27  C   UNL     1       1.083   1.580   1.003  0.00  0.00    +0.041 A 
ATOM     28 BR   UNL     1       1.056   3.369   1.614  0.00  0.00    -0.048 Br
BRANCH  25  29
ATOM     29  N   UNL     1       3.509  -1.267   0.742  0.00  0.00    +0.056 N 
ATOM     30  O   UNL     1       3.528  -2.420   0.349  0.00  0.00    -0.126 OA
ATOM     31  O   UNL     1       4.515  -0.768   1.215  0.00  0.00    -0.126 OA
ENDBRANCH  25  29
ENDBRANCH  20  22
ENDBRANCH  17  18
ENDBRANCH   2  17
TORSDOF 7
