REMARK  Name = ZINC08838950
REMARK  12 active torsions:
REMARK  status: ('A' for Active; 'I' for Inactive)
REMARK    1  A    between atoms: C_1  and  C_2
REMARK    2  A    between atoms: C_4  and  C_31
REMARK    3  A    between atoms: C_5  and  S_9
REMARK    4  A    between atoms: C_6  and  C_8
REMARK    5  A    between atoms: S_9  and  N_12
REMARK    6  A    between atoms: N_12  and  C_13
REMARK    7  A    between atoms: C_13  and  C_14
REMARK    8  A    between atoms: N_17  and  C_21
REMARK    9  A    between atoms: C_24  and  O_29
REMARK   10  A    between atoms: C_25  and  O_27
REMARK   11  A    between atoms: O_27  and  C_28
REMARK   12  A    between atoms: O_29  and  C_30
REMARK                            x       y       z     vdW  Elec       q    Type
REMARK                         _______ _______ _______ _____ _____    ______ ____
ROOT
ATOM      1  C   UNL     1      -0.909  10.214   2.085  0.00  0.00    +0.211 C 
ATOM      2  C   UNL     1      -0.409   8.799   1.734  0.00  0.00    +0.163 C 
ATOM      3  N   UNL     1      -0.891   7.970   2.849  0.00  0.00    -0.234 N 
ATOM      4  C   UNL     1      -1.551   8.751   3.716  0.00  0.00    +0.408 C 
ATOM      5  O   UNL     1      -2.054   8.328   4.738  0.00  0.00    -0.226 OA
ATOM      6  O   UNL     1      -1.605  10.037   3.353  0.00  0.00    -0.444 OA
ENDROOT
BRANCH   3   7
ATOM      7  C   UNL     1      -0.687   6.590   2.986  0.00  0.00    +0.043 A 
ATOM      8  C   UNL     1       0.017   5.893   2.015  0.00  0.00    +0.027 A 
ATOM      9  C   UNL     1       0.219   4.532   2.149  0.00  0.00    +0.051 A 
ATOM     10  C   UNL     1      -0.281   3.862   3.253  0.00  0.00    +0.162 A 
ATOM     11  C   UNL     1      -0.992   4.557   4.226  0.00  0.00    +0.163 A 
ATOM     12  C   UNL     1      -1.189   5.922   4.094  0.00  0.00    +0.073 A 
BRANCH  11  13
ATOM     13  O   UNL     1      -1.488   3.899   5.308  0.00  0.00    -0.491 OA
ATOM     14  C   UNL     1      -2.207   4.676   6.267  0.00  0.00    +0.277 C 
ENDBRANCH  11  13
BRANCH  10  15
ATOM     15  O   UNL     1      -0.081   2.522   3.383  0.00  0.00    -0.491 OA
ATOM     16  C   UNL     1       0.652   1.871   2.344  0.00  0.00    +0.277 C 
ENDBRANCH  10  15
ENDBRANCH   3   7
BRANCH   1  17
ATOM     17  C   UNL     1      -1.871  10.730   1.013  0.00  0.00    +0.152 C 
BRANCH  17  18
ATOM     18  N   UNL     1      -2.307  12.085   1.359  0.00  0.00    -0.186 NA
ATOM     19  H   UNL     1      -2.163  12.426   2.256  0.00  0.00    +0.148 HD
BRANCH  18  20
ATOM     20  S   UNL     1      -3.045  13.034   0.220  0.00  0.00    +0.059 S 
ATOM     21  O   UNL     1      -3.367  14.261   0.861  0.00  0.00    -0.153 OA
ATOM     22  O   UNL     1      -2.234  12.973  -0.945  0.00  0.00    -0.153 OA
BRANCH  20  27
ATOM     23  C   UNL     1      -8.284  10.392  -1.183  0.00  0.00    +0.044 C 
ATOM     24  C   UNL     1      -6.976  11.051  -0.833  0.00  0.00    -0.050 A 
ATOM     25  C   UNL     1      -6.866  11.796   0.327  0.00  0.00    +0.008 A 
ATOM     26  C   UNL     1      -5.665  12.401   0.648  0.00  0.00    -0.024 A 
ATOM     27  C   UNL     1      -4.575  12.262  -0.189  0.00  0.00    +0.111 A 
ATOM     28  C   UNL     1      -4.686  11.522  -1.351  0.00  0.00    -0.024 A 
ATOM     29  C   UNL     1      -5.885  10.913  -1.671  0.00  0.00    +0.008 A 
ATOM     30  C   UNL     1      -3.499  11.375  -2.268  0.00  0.00    +0.046 C 
ATOM     31  C   UNL     1      -5.546  13.213   1.912  0.00  0.00    +0.046 C 
ENDBRANCH  20  27
ENDBRANCH  18  20
ENDBRANCH  17  18
ENDBRANCH   1  17
TORSDOF 7
