REMARK  Name = ZINC14651328
REMARK  11 active torsions:
REMARK  status: ('A' for Active; 'I' for Inactive)
REMARK    1  A    between atoms: C_1  and  C_2
REMARK    2  A    between atoms: C_2  and  N_3
REMARK    3  A    between atoms: N_3  and  C_4
REMARK    4  A    between atoms: N_3  and  C_6
REMARK    5  A    between atoms: C_4  and  C_5
REMARK    6  A    between atoms: C_6  and  C_7
REMARK    7  A    between atoms: C_7  and  N_8
REMARK    8  A    between atoms: N_17  and  C_18
REMARK    9  A    between atoms: C_18  and  C_20
REMARK   10  A    between atoms: N_23  and  C_26
REMARK   11  A    between atoms: C_31  and  N_32
REMARK                            x       y       z     vdW  Elec       q    Type
REMARK                         _______ _______ _______ _____ _____    ______ ____
ROOT
ATOM      1  N   UNL     1      -2.283  -3.862   0.390  0.00  0.00    -0.314 N 
ATOM      2  C   UNL     1      -2.165  -4.798  -0.632  0.00  0.00    +0.068 A 
ATOM      3  C   UNL     1      -2.235  -4.705  -2.015  0.00  0.00    +0.028 A 
ATOM      4  C   UNL     1      -2.075  -5.837  -2.790  0.00  0.00    +0.002 A 
ATOM      5  C   UNL     1      -1.845  -7.065  -2.193  0.00  0.00    +0.002 A 
ATOM      6  C   UNL     1      -1.774  -7.168  -0.818  0.00  0.00    +0.028 A 
ATOM      7  C   UNL     1      -1.933  -6.037  -0.030  0.00  0.00    +0.066 A 
ATOM      8  N   UNL     1      -1.915  -5.827   1.345  0.00  0.00    -0.326 N 
ATOM      9  C   UNL     1      -2.123  -4.505   1.577  0.00  0.00    +0.201 A 
ATOM     10  N   UNL     1      -2.166  -3.930   2.776  0.00  0.00    -0.146 NA
ATOM     11  H   UNL     1      -1.774  -6.508   2.022  0.00  0.00    +0.169 HD
ENDROOT
BRANCH  10  12
ATOM     12  C   UNL     1      -1.873  -4.637   3.863  0.00  0.00    +0.242 C 
ATOM     13  O   UNL     1      -1.479  -5.782   3.755  0.00  0.00    -0.273 OA
BRANCH  12  14
ATOM     14  C   UNL     1      -2.029  -4.019   5.228  0.00  0.00    +0.080 C 
ATOM     15  C   UNL     1      -1.131  -2.785   5.335  0.00  0.00    +0.032 C 
ATOM     16  C   UNL     1      -1.318  -2.140   6.712  0.00  0.00    +0.106 C 
ATOM     17  N   UNL     1      -1.075  -3.155   7.747  0.00  0.00    -0.328 N 
ATOM     18  C   UNL     1      -1.822  -4.419   7.685  0.00  0.00    +0.106 C 
ATOM     19  C   UNL     1      -1.629  -5.038   6.298  0.00  0.00    +0.032 C 
BRANCH  17  20
ATOM     20  C   UNL     1      -0.152  -2.922   8.769  0.00  0.00    +0.060 A 
ATOM     21  C   UNL     1       1.193  -3.205   8.570  0.00  0.00    +0.025 A 
ATOM     22  C   UNL     1       2.103  -2.974   9.582  0.00  0.00    +0.002 A 
ATOM     23  C   UNL     1       1.676  -2.461  10.794  0.00  0.00    +0.002 A 
ATOM     24  C   UNL     1       0.338  -2.178  10.995  0.00  0.00    +0.034 A 
ATOM     25  C   UNL     1      -0.577  -2.402   9.985  0.00  0.00    +0.147 A 
BRANCH  25  26
ATOM     26  N   UNL     1      -2.008  -2.094  10.200  0.00  0.00    +0.058 N 
ATOM     27  O   UNL     1      -2.365  -1.559  11.224  0.00  0.00    -0.126 OA
ATOM     28  O   UNL     1      -2.821  -2.376   9.351  0.00  0.00    -0.126 OA
ENDBRANCH  25  26
ENDBRANCH  17  20
ENDBRANCH  12  14
ENDBRANCH  10  12
BRANCH   1  29
ATOM     29  C   UNL     1      -2.531  -2.429   0.216  0.00  0.00    +0.106 C 
BRANCH  29  30
ATOM     30  C   UNL     1      -1.196  -1.691   0.093  0.00  0.00    -0.057 C 
BRANCH  30  31
ATOM     31  N   UNL     1      -1.446  -0.275  -0.205  0.00  0.00    +0.380 N 
ATOM     32  H   UNL     1      -2.010  -0.201  -1.038  0.00  0.00    -0.082 HD
BRANCH  31  34
ATOM     33  C   UNL     1      -2.522   1.787   0.562  0.00  0.00    -0.017 C 
ATOM     34  C   UNL     1      -2.152   0.347   0.923  0.00  0.00    -0.082 C 
ENDBRANCH  31  34
BRANCH  31  35
ATOM     35  C   UNL     1      -0.165   0.413  -0.419  0.00  0.00    -0.082 C 
ATOM     36  C   UNL     1       0.516  -0.154  -1.666  0.00  0.00    -0.017 C 
ENDBRANCH  31  35
ENDBRANCH  30  31
ENDBRANCH  29  30
ENDBRANCH   1  29
TORSDOF 9
