REMARK  Name = ZINC38671597
REMARK  8 active torsions:
REMARK  status: ('A' for Active; 'I' for Inactive)
REMARK    1  A    between atoms: C_1  and  N_2
REMARK    2  A    between atoms: C_9  and  C_11
REMARK    3  A    between atoms: C_11  and  C_13
REMARK    4  A    between atoms: C_11  and  N_31
REMARK    5  A    between atoms: C_13  and  N_14
REMARK    6  A    between atoms: C_15  and  C_17
REMARK    7  A    between atoms: C_20  and  S_23
REMARK    8  A    between atoms: S_23  and  N_26
REMARK                            x       y       z     vdW  Elec       q    Type
REMARK                         _______ _______ _______ _____ _____    ______ ____
ROOT
ATOM      1  C   UNL     1      -1.339  -4.085   4.780  0.00  0.00    +0.094 C 
ENDROOT
BRANCH   1   2
ATOM      2  N   UNL     1      -2.202  -4.523   3.681  0.00  0.00    -0.313 N 
ATOM      3  C   UNL     1      -3.514  -4.740   3.900  0.00  0.00    +0.244 C 
ATOM      4  O   UNL     1      -3.981  -4.573   5.010  0.00  0.00    -0.270 OA
ATOM      5  H   UNL     1      -1.830  -4.656   2.795  0.00  0.00    +0.149 HD
BRANCH   3   6
ATOM      6  C   UNL     1      -4.385  -5.183   2.791  0.00  0.00    +0.037 A 
ATOM      7  C   UNL     1      -3.852  -5.381   1.516  0.00  0.00    +0.015 A 
ATOM      8  C   UNL     1      -4.670  -5.795   0.486  0.00  0.00    +0.029 A 
ATOM      9  C   UNL     1      -6.018  -6.012   0.713  0.00  0.00    +0.106 A 
ATOM     10  C   UNL     1      -6.553  -5.816   1.973  0.00  0.00    +0.029 A 
ATOM     11  C   UNL     1      -5.744  -5.409   3.014  0.00  0.00    +0.015 A 
BRANCH   9  12
ATOM     12  S   UNL     1      -7.056  -6.539  -0.610  0.00  0.00    +0.061 S 
ATOM     13  O   UNL     1      -8.379  -6.146  -0.269  0.00  0.00    -0.153 OA
ATOM     14  O   UNL     1      -6.424  -6.123  -1.813  0.00  0.00    -0.153 OA
BRANCH  12  15
ATOM     15  N   UNL     1      -7.040  -8.195  -0.614  0.00  0.00    -0.177 NA
ATOM     16  C   UNL     1      -6.091  -9.041  -1.352  0.00  0.00    +0.109 C 
ATOM     17  C   UNL     1      -6.476 -10.509  -1.077  0.00  0.00    +0.018 C 
ATOM     18  C   UNL     1      -7.966 -10.405  -0.656  0.00  0.00    +0.018 C 
ATOM     19  C   UNL     1      -7.972  -9.065   0.126  0.00  0.00    +0.109 C 
ENDBRANCH  12  15
ENDBRANCH   9  12
ENDBRANCH   3   6
ENDBRANCH   1   2
BRANCH   1  20
ATOM     20  C   UNL     1       0.061  -3.784   4.240  0.00  0.00    -0.020 C 
BRANCH  20  29
ATOM     21  C   UNL     1      -0.272   1.864   0.593  0.00  0.00    +0.129 C 
ATOM     22  N   UNL     1      -0.201   0.410   0.435  0.00  0.00    -0.332 N 
ATOM     23  C   UNL     1      -0.177  -0.295  -0.850  0.00  0.00    +0.109 C 
ATOM     24  C   UNL     1      -0.101  -1.788  -0.489  0.00  0.00    +0.056 C 
ATOM     25  C   UNL     1      -0.086  -1.813   1.023  0.00  0.00    -0.025 A 
ATOM     26  C   UNL     1      -0.141  -0.507   1.486  0.00  0.00    +0.033 A 
ATOM     27  C   UNL     1      -0.134  -0.275   2.862  0.00  0.00    +0.023 A 
ATOM     28  C   UNL     1      -0.069  -1.333   3.745  0.00  0.00    +0.004 A 
ATOM     29  C   UNL     1      -0.010  -2.631   3.273  0.00  0.00    -0.059 A 
ATOM     30  C   UNL     1      -0.026  -2.869   1.911  0.00  0.00    +0.007 A 
ENDBRANCH  20  29
BRANCH  20  31
ATOM     31  N   UNL     1       0.951  -3.433   5.355  0.00  0.00    +0.385 N 
ATOM     32  C   UNL     1       2.278  -3.091   4.831  0.00  0.00    -0.078 C 
ATOM     33  C   UNL     1       3.186  -2.646   5.980  0.00  0.00    -0.019 C 
ATOM     34  C   UNL     1       3.314  -3.788   6.992  0.00  0.00    -0.004 C 
ATOM     35  C   UNL     1       1.918  -4.187   7.477  0.00  0.00    -0.019 C 
ATOM     36  C   UNL     1       1.057  -4.574   6.272  0.00  0.00    -0.078 C 
ATOM     37  H   UNL     1       0.572  -2.640   5.850  0.00  0.00    -0.081 HD
ENDBRANCH  20  31
ENDBRANCH   1  20
TORSDOF 7
