REMARK  Name = ZINC41586622
REMARK  9 active torsions:
REMARK  status: ('A' for Active; 'I' for Inactive)
REMARK    1  A    between atoms: C_1  and  C_2
REMARK    2  A    between atoms: C_2  and  O_3
REMARK    3  A    between atoms: O_3  and  C_4
REMARK    4  A    between atoms: C_4  and  C_6
REMARK    5  A    between atoms: N_11  and  C_13
REMARK    6  A    between atoms: C_13  and  C_14
REMARK    7  A    between atoms: C_15  and  O_36
REMARK    8  A    between atoms: C_21  and  C_32
REMARK    9  A    between atoms: C_22  and  C_25
REMARK                            x       y       z     vdW  Elec       q    Type
REMARK                         _______ _______ _______ _____ _____    ______ ____
ROOT
ATOM      1  C   UNL     1       2.741  -6.129  -5.457  0.00  0.00    +0.020 A 
ATOM      2  C   UNL     1       2.049  -6.459  -6.609  0.00  0.00    +0.122 A 
ATOM      3  C   UNL     1       2.633  -7.269  -7.581  0.00  0.00    +0.046 A 
ATOM      4  C   UNL     1       3.902  -7.746  -7.409  0.00  0.00    +0.019 A 
ATOM      5  C   UNL     1       4.612  -7.419  -6.255  0.00  0.00    +0.065 A 
ATOM      6  C   UNL     1       4.033  -6.602  -5.267  0.00  0.00    +0.144 A 
ATOM      7  O   UNL     1       4.719  -6.297  -4.149  0.00  0.00    -0.450 OA
ATOM      8  C   UNL     1       6.038  -6.479  -4.061  0.00  0.00    +0.219 A 
ATOM      9  C   UNL     1       6.733  -7.251  -4.938  0.00  0.00    +0.076 A 
ATOM     10  C   UNL     1       5.987  -7.905  -6.034  0.00  0.00    +0.201 A 
ATOM     11  O   UNL     1       6.481  -8.782  -6.721  0.00  0.00    -0.286 OA
ENDROOT
BRANCH   9  12
ATOM     12  C   UNL     1       8.197  -7.439  -4.793  0.00  0.00    -0.011 A 
ATOM     13  C   UNL     1       8.698  -8.278  -3.798  0.00  0.00    +0.010 A 
ATOM     14  C   UNL     1      10.061  -8.450  -3.667  0.00  0.00    +0.020 A 
ATOM     15  C   UNL     1      10.930  -7.793  -4.521  0.00  0.00    +0.041 A 
ATOM     16  C   UNL     1      10.437  -6.959  -5.510  0.00  0.00    +0.020 A 
ATOM     17  C   UNL     1       9.076  -6.784  -5.653  0.00  0.00    +0.010 A 
ATOM     18 CL   UNL     1      12.643  -8.014  -4.351  0.00  0.00    -0.084 Cl
ENDBRANCH   9  12
BRANCH   8  19
ATOM     19  C   UNL     1       6.788  -5.801  -2.944  0.00  0.00    +0.451 C 
ATOM     20  F   UNL     1       8.164  -5.969  -3.137  0.00  0.00    -0.163 F 
ATOM     21  F   UNL     1       6.481  -4.436  -2.938  0.00  0.00    -0.163 F 
ATOM     22  F   UNL     1       6.416  -6.369  -1.721  0.00  0.00    -0.163 F 
ENDBRANCH   8  19
BRANCH   2  23
ATOM     23  O   UNL     1       0.789  -5.990  -6.794  0.00  0.00    -0.506 OA
ATOM     24  H   UNL     1       0.749  -5.138  -7.249  0.00  0.00    +0.292 HD
ENDBRANCH   2  23
BRANCH   1  25
ATOM     25  C   UNL     1       2.098  -5.252  -4.414  0.00  0.00    -0.036 C 
BRANCH  25  30
ATOM     26  C   UNL     1       1.903  -1.515  -4.122  0.00  0.00    +0.081 C 
ATOM     27  C   UNL     1       3.401  -1.213  -4.031  0.00  0.00    +0.011 C 
ATOM     28  C   UNL     1       4.161  -2.165  -4.959  0.00  0.00    -0.018 C 
ATOM     29  C   UNL     1       3.837  -3.610  -4.575  0.00  0.00    -0.078 C 
ATOM     30  N   UNL     1       2.394  -3.843  -4.708  0.00  0.00    +0.383 N 
ATOM     31  C   UNL     1       1.661  -2.985  -3.770  0.00  0.00    -0.064 C 
ATOM     32  H   UNL     1       2.105  -3.631  -5.651  0.00  0.00    -0.081 HD
BRANCH  26  33
ATOM     33  C   UNL     1       1.152  -0.636  -3.155  0.00  0.00    +0.308 C 
ATOM     34  O   UNL     1       0.490  -1.133  -2.275  0.00  0.00    -0.251 OA
BRANCH  33  35
ATOM     35  O   UNL     1       1.219   0.700  -3.271  0.00  0.00    -0.465 OA
BRANCH  35  37
ATOM     36  C   UNL     1       0.680   2.961  -2.610  0.00  0.00    +0.048 C 
ATOM     37  C   UNL     1       0.483   1.471  -2.320  0.00  0.00    +0.229 C 
ENDBRANCH  35  37
ENDBRANCH  33  35
ENDBRANCH  26  33
ENDBRANCH  25  30
ENDBRANCH   1  25
TORSDOF 8
