REMARK  Name = ZINC21512702
REMARK  4 active torsions:
REMARK  status: ('A' for Active; 'I' for Inactive)
REMARK    1  A    between atoms: C_5  and  C_7
REMARK    2  A    between atoms: C_7  and  C_9
REMARK    3  A    between atoms: C_7  and  N_21
REMARK    4  A    between atoms: C_12  and  C_15
REMARK                            x       y       z     vdW  Elec       q    Type
REMARK                         _______ _______ _______ _____ _____    ______ ____
ROOT
ATOM      1  C   UNL     1      -0.013   1.086   0.008  0.00  0.00    -0.012 C 
ENDROOT
BRANCH   1   6
ATOM      2  C   UNL     1      -0.938   3.148  -3.016  0.00  0.00    +0.000 A 
ATOM      3  C   UNL     1      -2.078   2.501  -3.454  0.00  0.00    +0.001 A 
ATOM      4  C   UNL     1      -2.551   1.395  -2.771  0.00  0.00    +0.014 A 
ATOM      5  C   UNL     1      -1.879   0.934  -1.653  0.00  0.00    +0.015 A 
ATOM      6  C   UNL     1      -0.742   1.585  -1.213  0.00  0.00    -0.045 A 
ATOM      7  C   UNL     1      -0.270   2.690  -1.896  0.00  0.00    +0.003 A 
ATOM      8  I   UNL     1      -2.590  -0.746  -0.623  0.00  0.00    -0.044 I 
ENDBRANCH   1   6
BRANCH   1   9
ATOM      9  C   UNL     1      -0.718   1.572   1.248  0.00  0.00    -0.058 A 
ATOM     10  C   UNL     1      -0.511   2.861   1.700  0.00  0.00    +0.002 A 
ATOM     11  C   UNL     1      -1.162   3.309   2.835  0.00  0.00    +0.004 A 
ATOM     12  C   UNL     1      -2.011   2.463   3.523  0.00  0.00    -0.044 A 
ATOM     13  C   UNL     1      -2.215   1.172   3.073  0.00  0.00    +0.004 A 
ATOM     14  C   UNL     1      -1.568   0.726   1.936  0.00  0.00    +0.002 A 
BRANCH  12  15
ATOM     15  C   UNL     1      -2.716   2.949   4.763  0.00  0.00    +0.019 C 
ATOM     16  C   UNL     1      -3.595   4.151   4.412  0.00  0.00    +0.008 C 
ATOM     17  C   UNL     1      -4.311   4.644   5.671  0.00  0.00    +0.001 C 
ATOM     18  C   UNL     1      -3.275   5.059   6.718  0.00  0.00    +0.000 C 
ATOM     19  C   UNL     1      -2.396   3.856   7.069  0.00  0.00    +0.001 C 
ATOM     20  C   UNL     1      -1.680   3.363   5.810  0.00  0.00    +0.008 C 
ENDBRANCH  12  15
ENDBRANCH   1   9
BRANCH   1  21
ATOM     21  N   UNL     1       1.365   1.594  -0.002  0.00  0.00    +0.385 N 
ATOM     22  H   UNL     1       1.897   1.230   0.889  0.00  0.00    -0.089 HD
ATOM     23  H   UNL     1       1.350   2.694   0.004  0.00  0.00    -0.089 HD
ATOM     24  H   UNL     1       1.880   1.240  -0.907  0.00  0.00    -0.089 HD
ENDBRANCH   1  21
TORSDOF 4
