REMARK  Name = ZINC12563195
REMARK  5 active torsions:
REMARK  status: ('A' for Active; 'I' for Inactive)
REMARK    1  A    between atoms: N_7  and  C_15
REMARK    2  A    between atoms: C_9  and  C_12
REMARK    3  A    between atoms: C_15  and  C_16
REMARK    4  A    between atoms: C_19  and  C_31
REMARK    5  A    between atoms: C_22  and  C_24
REMARK                            x       y       z     vdW  Elec       q    Type
REMARK                         _______ _______ _______ _____ _____    ______ ____
ROOT
ATOM      1  C   UNL     1      -1.136   2.253   0.246  0.00  0.00    +0.253 C 
ATOM      2  O   UNL     1      -2.233   1.762   0.406  0.00  0.00    -0.272 OA
ATOM      3  N   UNL     1      -0.039   1.470   0.262  0.00  0.00    -0.181 N 
ATOM      4  C   UNL     1      -0.030   0.013   0.465  0.00  0.00    +0.173 C 
ATOM      5  C   UNL     1       1.465  -0.354   0.383  0.00  0.00    +0.090 C 
ATOM      6  C   UNL     1       2.152   0.970   0.138  0.00  0.00    +0.069 C 
ATOM      7  N   UNL     1       1.272   1.908   0.085  0.00  0.00    -0.181 NA
ENDROOT
BRANCH   6   8
ATOM      8  C   UNL     1       3.607   1.157  -0.018  0.00  0.00    -0.002 A 
ATOM      9  C   UNL     1       4.468   0.060   0.063  0.00  0.00    +0.011 A 
ATOM     10  C   UNL     1       5.827   0.242  -0.087  0.00  0.00    +0.020 A 
ATOM     11  C   UNL     1       6.339   1.509  -0.309  0.00  0.00    +0.041 A 
ATOM     12  C   UNL     1       5.491   2.602  -0.387  0.00  0.00    +0.020 A 
ATOM     13  C   UNL     1       4.130   2.433  -0.242  0.00  0.00    +0.011 A 
ATOM     14 CL   UNL     1       8.051   1.730  -0.491  0.00  0.00    -0.084 Cl
ENDBRANCH   6   8
BRANCH   4  15
ATOM     15  C   UNL     1      -0.807  -0.678  -0.626  0.00  0.00    +0.128 A 
ATOM     16  C   UNL     1      -1.608  -1.747  -0.466  0.00  0.00    +0.046 A 
ATOM     17  C   UNL     1      -2.130  -2.063  -1.741  0.00  0.00    +0.041 A 
ATOM     18  C   UNL     1      -1.617  -1.169  -2.605  0.00  0.00    +0.195 A 
ATOM     19  O   UNL     1      -0.820  -0.329  -1.923  0.00  0.00    -0.466 OA
ENDBRANCH   4  15
BRANCH   1  20
ATOM     20  C   UNL     1      -0.999   3.738   0.027  0.00  0.00    +0.203 C 
BRANCH  20  27
ATOM     21  C   UNL     1      -1.230   7.654   1.044  0.00  0.00    +0.002 A 
ATOM     22  C   UNL     1      -2.071   8.486   0.329  0.00  0.00    +0.004 A 
ATOM     23  C   UNL     1      -3.008   7.949  -0.533  0.00  0.00    +0.047 A 
ATOM     24  C   UNL     1      -3.107   6.573  -0.686  0.00  0.00    +0.143 A 
ATOM     25  C   UNL     1      -2.265   5.734   0.034  0.00  0.00    +0.073 A 
ATOM     26  C   UNL     1      -1.325   6.284   0.899  0.00  0.00    +0.027 A 
ATOM     27  N   UNL     1      -2.333   4.342  -0.084  0.00  0.00    -0.314 N 
ATOM     28  C   UNL     1      -2.999   3.924  -1.323  0.00  0.00    +0.160 C 
ATOM     29  C   UNL     1      -4.329   4.679  -1.444  0.00  0.00    +0.275 C 
ATOM     30  O   UNL     1      -4.033   6.075  -1.552  0.00  0.00    -0.476 OA
BRANCH  29  31
ATOM     31  C   UNL     1      -5.067   4.218  -2.673  0.00  0.00    +0.253 C 
ATOM     32  O   UNL     1      -5.240   4.982  -3.599  0.00  0.00    -0.272 OA
ATOM     33  N   UNL     1      -5.536   2.956  -2.744  0.00  0.00    -0.326 N 
ATOM     34  H   UNL     1      -5.398   2.345  -2.003  0.00  0.00    +0.145 HD
ATOM     35  H   UNL     1      -6.012   2.659  -3.536  0.00  0.00    +0.145 HD
ENDBRANCH  29  31
ENDBRANCH  20  27
ENDBRANCH   1  20
TORSDOF 5
