REMARK  Name = ZINC22361604
REMARK  11 active torsions:
REMARK  status: ('A' for Active; 'I' for Inactive)
REMARK    1  A    between atoms: C_1  and  C_2
REMARK    2  A    between atoms: C_2  and  C_3
REMARK    3  A    between atoms: C_3  and  C_5
REMARK    4  A    between atoms: C_3  and  N_15
REMARK    5  A    between atoms: C_8  and  S_11
REMARK    6  A    between atoms: S_11  and  C_14
REMARK    7  A    between atoms: C_16  and  C_18
REMARK    8  A    between atoms: C_18  and  N_19
REMARK    9  A    between atoms: N_19  and  C_20
REMARK   10  A    between atoms: N_19  and  S_26
REMARK   11  A    between atoms: S_26  and  C_29
REMARK                            x       y       z     vdW  Elec       q    Type
REMARK                         _______ _______ _______ _____ _____    ______ ____
ROOT
ATOM      1  C   UNL     1       2.494  -3.215  -2.273  0.00  0.00    +0.227 C 
ENDROOT
BRANCH   1   3
ATOM      2  N   UNL     1       4.036  -5.135  -2.506  0.00  0.00    -0.307 N 
ATOM      3  C   UNL     1       2.893  -4.641  -1.991  0.00  0.00    +0.233 C 
ATOM      4  O   UNL     1       2.184  -5.344  -1.302  0.00  0.00    -0.274 OA
ATOM      5  H   UNL     1       4.678  -4.498  -3.131  0.00  0.00    +0.149 HD
BRANCH   2   6
ATOM      6  C   UNL     1       4.423  -6.521  -2.232  0.00  0.00    +0.103 C 
BRANCH   6   7
ATOM      7  C   UNL     1       5.323  -7.019  -3.334  0.00  0.00    -0.027 A 
ATOM      8  C   UNL     1       6.284  -6.182  -3.873  0.00  0.00    +0.007 A 
ATOM      9  C   UNL     1       7.112  -6.640  -4.880  0.00  0.00    +0.027 A 
ATOM     10  C   UNL     1       6.973  -7.930  -5.357  0.00  0.00    +0.088 A 
ATOM     11  C   UNL     1       6.009  -8.764  -4.822  0.00  0.00    +0.027 A 
ATOM     12  C   UNL     1       5.184  -8.309  -3.811  0.00  0.00    +0.007 A 
BRANCH  10  13
ATOM     13  S   UNL     1       8.024  -8.511  -6.646  0.00  0.00    -0.006 S 
ATOM     14  O   UNL     1       9.206  -7.729  -6.530  0.00  0.00    -0.170 OA
ATOM     15  O   UNL     1       8.068  -9.920  -6.471  0.00  0.00    -0.170 OA
ATOM     16  C   UNL     1       7.151  -8.099  -8.181  0.00  0.00    +0.200 C 
ENDBRANCH  10  13
ENDBRANCH   6   7
BRANCH   6  18
ATOM     17  C   UNL     1       4.216  -6.203   0.237  0.00  0.00    +0.006 C 
ATOM     18  C   UNL     1       5.167  -6.589  -0.897  0.00  0.00    +0.024 C 
ENDBRANCH   6  18
ENDBRANCH   2   6
ENDBRANCH   1   3
BRANCH   1  19
ATOM     19  N   UNL     1       1.223  -2.923  -1.606  0.00  0.00    -0.194 N 
BRANCH  19  20
ATOM     20  C   UNL     1       0.016  -3.242  -2.232  0.00  0.00    +0.052 A 
ATOM     21  C   UNL     1      -0.301  -2.678  -3.462  0.00  0.00    +0.025 A 
ATOM     22  C   UNL     1      -1.493  -3.000  -4.080  0.00  0.00    +0.002 A 
ATOM     23  C   UNL     1      -2.375  -3.875  -3.473  0.00  0.00    +0.000 A 
ATOM     24  C   UNL     1      -2.064  -4.435  -2.247  0.00  0.00    +0.002 A 
ATOM     25  C   UNL     1      -0.872  -4.121  -1.625  0.00  0.00    +0.025 A 
ENDBRANCH  19  20
BRANCH  19  26
ATOM     26  S   UNL     1       1.217  -2.213  -0.110  0.00  0.00    +0.075 S 
ATOM     27  O   UNL     1       2.413  -2.623   0.539  0.00  0.00    -0.150 OA
ATOM     28  O   UNL     1      -0.070  -2.447   0.445  0.00  0.00    -0.150 OA
BRANCH  26  29
ATOM     29  C   UNL     1       1.349  -0.473  -0.358  0.00  0.00    +0.109 A 
ATOM     30  C   UNL     1       0.207   0.293  -0.500  0.00  0.00    +0.030 A 
ATOM     31  C   UNL     1       0.310   1.657  -0.694  0.00  0.00    +0.022 A 
ATOM     32  C   UNL     1       1.556   2.256  -0.747  0.00  0.00    +0.041 A 
ATOM     33  C   UNL     1       2.699   1.489  -0.605  0.00  0.00    +0.022 A 
ATOM     34  C   UNL     1       2.594   0.124  -0.411  0.00  0.00    +0.030 A 
ATOM     35 CL   UNL     1       1.687   3.970  -0.991  0.00  0.00    -0.084 Cl
ENDBRANCH  26  29
ENDBRANCH  19  26
ENDBRANCH   1  19
TORSDOF 9
