REMARK  Name = ZINC53759842
REMARK  9 active torsions:
REMARK  status: ('A' for Active; 'I' for Inactive)
REMARK    1  A    between atoms: C_1  and  C_2
REMARK    2  A    between atoms: C_2  and  C_3
REMARK    3  A    between atoms: C_2  and  C_12
REMARK    4  A    between atoms: C_2  and  N_21
REMARK    5  A    between atoms: C_3  and  C_4
REMARK    6  A    between atoms: C_4  and  C_5
REMARK    7  A    between atoms: C_5  and  O_6
REMARK    8  A    between atoms: O_6  and  C_7
REMARK    9  A    between atoms: C_7  and  C_8
REMARK                            x       y       z     vdW  Elec       q    Type
REMARK                         _______ _______ _______ _____ _____    ______ ____
ROOT
ATOM      1  C   UNL     1      -0.019   1.526   0.010  0.00  0.00    -0.006 C 
ATOM      2  C   UNL     1       0.002  -0.004   0.002  0.00  0.00    -0.046 C 
ENDROOT
BRANCH   2   3
ATOM      3  C   UNL     1       0.707  -0.490  -1.238  0.00  0.00    -0.038 A 
ATOM      4  C   UNL     1       0.036  -1.284  -2.148  0.00  0.00    +0.043 A 
ATOM      5  C   UNL     1       0.683  -1.731  -3.287  0.00  0.00    +0.142 A 
ATOM      6  C   UNL     1       2.005  -1.381  -3.514  0.00  0.00    +0.077 A 
ATOM      7  C   UNL     1       2.675  -0.586  -2.603  0.00  0.00    +0.043 A 
ATOM      8  C   UNL     1       2.025  -0.137  -1.467  0.00  0.00    +0.044 A 
ATOM      9 CL   UNL     1       2.865   0.866  -0.326  0.00  0.00    -0.083 Cl
ATOM     10 CL   UNL     1       2.818  -1.941  -4.942  0.00  0.00    -0.081 Cl
ATOM     11  F   UNL     1       0.027  -2.508  -4.177  0.00  0.00    -0.204 F 
ENDBRANCH   2   3
BRANCH   2  12
ATOM     12  N   UNL     1      -1.376  -0.512   0.012  0.00  0.00    +0.384 N 
ATOM     13  H   UNL     1      -1.864  -0.178  -0.805  0.00  0.00    -0.089 HD
ATOM     14  H   UNL     1      -1.362  -1.521   0.007  0.00  0.00    -0.089 HD
ATOM     15  H   UNL     1      -1.848  -0.187   0.843  0.00  0.00    -0.089 HD
ENDBRANCH   2  12
BRANCH   2  16
ATOM     16  C   UNL     1       0.742  -0.511   1.242  0.00  0.00    -0.006 C 
BRANCH  16  17
ATOM     17  C   UNL     1      -0.042  -0.124   2.497  0.00  0.00    +0.027 C 
BRANCH  17  18
ATOM     18  C   UNL     1       0.698  -0.630   3.737  0.00  0.00    +0.160 C 
BRANCH  18  19
ATOM     19  O   UNL     1      -0.034  -0.269   4.910  0.00  0.00    -0.371 OA
BRANCH  19  20
ATOM     20  C   UNL     1       0.575  -0.697   6.130  0.00  0.00    +0.272 C 
BRANCH  20  21
ATOM     21  C   UNL     1      -0.290  -0.258   7.313  0.00  0.00    +0.413 C 
ATOM     22  F   UNL     1      -1.561  -0.831   7.199  0.00  0.00    -0.168 F 
ATOM     23  F   UNL     1       0.305  -0.677   8.507  0.00  0.00    -0.168 F 
ATOM     24  F   UNL     1      -0.406   1.136   7.314  0.00  0.00    -0.168 F 
ENDBRANCH  20  21
ENDBRANCH  19  20
ENDBRANCH  18  19
ENDBRANCH  17  18
ENDBRANCH  16  17
ENDBRANCH   2  16
TORSDOF 8
