REMARK  Name = ZINC15276589
REMARK  7 active torsions:
REMARK  status: ('A' for Active; 'I' for Inactive)
REMARK    1  A    between atoms: C_1  and  C_2
REMARK    2  A    between atoms: C_2  and  C_3
REMARK    3  A    between atoms: C_6  and  N_9
REMARK    4  A    between atoms: N_21  and  C_24
REMARK    5  A    between atoms: C_24  and  N_70
REMARK    6  A    between atoms: C_27  and  C_30
REMARK    7  A    between atoms: C_30  and  C_31
REMARK                            x       y       z     vdW  Elec       q    Type
REMARK                         _______ _______ _______ _____ _____    ______ ____
ROOT
ATOM      1  N   UNL     1      -1.793   1.978  -6.710  0.00  0.00    -0.243 N 
ATOM      2  C   UNL     1      -2.806   1.898  -7.572  0.00  0.00    +0.231 C 
ATOM      3  O   UNL     1      -2.623   1.593  -8.731  0.00  0.00    -0.274 OA
ATOM      4  C   UNL     1      -4.201   2.204  -7.046  0.00  0.00    +0.168 C 
ATOM      5  S   UNL     1      -3.784   3.015  -5.439  0.00  0.00    -0.111 S 
ATOM      6  C   UNL     1      -2.072   2.364  -5.330  0.00  0.00    +0.192 C 
ATOM      7  C   UNL     1      -1.992   1.222  -4.365  0.00  0.00    +0.017 A 
ATOM      8  C   UNL     1      -2.603  -0.010  -4.289  0.00  0.00    +0.009 A 
ATOM      9  C   UNL     1      -2.298  -0.873  -3.251  0.00  0.00    +0.000 A 
ATOM     10  C   UNL     1      -1.390  -0.489  -2.282  0.00  0.00    +0.002 A 
ATOM     11  C   UNL     1      -0.780   0.746  -2.349  0.00  0.00    +0.024 A 
ATOM     12  C   UNL     1      -1.074   1.618  -3.394  0.00  0.00    +0.041 A 
ATOM     13  N   UNL     1      -0.596   2.900  -3.676  0.00  0.00    -0.285 N 
ATOM     14  C   UNL     1      -1.135   3.408  -4.803  0.00  0.00    +0.257 C 
ATOM     15  O   UNL     1      -0.906   4.493  -5.294  0.00  0.00    -0.272 OA
ENDROOT
BRANCH   1  19
ATOM     16  C   UNL     1       2.103   1.147  -7.931  0.00  0.00    -0.048 A 
ATOM     17  C   UNL     1       1.578   2.414  -8.111  0.00  0.00    +0.005 A 
ATOM     18  C   UNL     1       0.287   2.693  -7.708  0.00  0.00    +0.024 A 
ATOM     19  C   UNL     1      -0.485   1.699  -7.120  0.00  0.00    +0.038 A 
ATOM     20  C   UNL     1       0.046   0.429  -6.936  0.00  0.00    +0.024 A 
ATOM     21  C   UNL     1       1.336   0.156  -7.346  0.00  0.00    +0.005 A 
BRANCH  16  23
ATOM     22  C   UNL     1       4.479   1.133  -7.222  0.00  0.00    +0.009 C 
ATOM     23  C   UNL     1       3.512   0.847  -8.373  0.00  0.00    +0.032 C 
ENDBRANCH  16  23
ENDBRANCH   1  19
BRANCH  13  24
ATOM     24  C   UNL     1       0.382   3.609  -2.846  0.00  0.00    +0.038 C 
BRANCH  24  30
ATOM     25  C   UNL     1       0.535   4.631  -0.657  0.00  0.00    -0.076 C 
ATOM     26  C   UNL     1      -0.174   5.575   0.317  0.00  0.00    -0.015 C 
ATOM     27  C   UNL     1      -1.502   4.949   0.750  0.00  0.00    -0.010 C 
ATOM     28  C   UNL     1      -2.356   4.672  -0.490  0.00  0.00    -0.015 C 
ATOM     29  C   UNL     1      -1.583   3.755  -1.440  0.00  0.00    -0.076 C 
ATOM     30  N   UNL     1      -0.328   4.425  -1.839  0.00  0.00    +0.390 N 
ATOM     31  H   UNL     1      -0.553   5.338  -2.250  0.00  0.00    -0.080 HD
BRANCH  27  32
ATOM     32  C   UNL     1      -2.244   5.915   1.677  0.00  0.00    +0.038 C 
BRANCH  32  33
ATOM     33  C   UNL     1      -1.460   6.091   2.951  0.00  0.00    -0.047 A 
ATOM     34  C   UNL     1      -1.692   5.254   4.027  0.00  0.00    +0.003 A 
ATOM     35  C   UNL     1      -0.970   5.413   5.195  0.00  0.00    +0.000 A 
ATOM     36  C   UNL     1      -0.021   6.414   5.290  0.00  0.00    +0.000 A 
ATOM     37  C   UNL     1       0.208   7.254   4.216  0.00  0.00    +0.000 A 
ATOM     38  C   UNL     1      -0.512   7.093   3.047  0.00  0.00    +0.003 A 
ENDBRANCH  32  33
ENDBRANCH  27  32
ENDBRANCH  24  30
ENDBRANCH  13  24
TORSDOF 6
