REMARK  Name = ZINC12756873
REMARK  13 active torsions:
REMARK  status: ('A' for Active; 'I' for Inactive)
REMARK    1  A    between atoms: C_1  and  C_2
REMARK    2  A    between atoms: C_2  and  C_3
REMARK    3  A    between atoms: C_6  and  C_9
REMARK    4  A    between atoms: C_9  and  C_11
REMARK    5  A    between atoms: C_9  and  N_70
REMARK    6  A    between atoms: C_11  and  N_12
REMARK    7  A    between atoms: C_13  and  C_15
REMARK    8  A    between atoms: N_18  and  S_21
REMARK    9  A    between atoms: S_21  and  C_24
REMARK   10  A    between atoms: C_27  and  C_31
REMARK   11  A    between atoms: C_29  and  C_30
REMARK   12  A    between atoms: C_32  and  N_70
REMARK   13  A    between atoms: C_33  and  N_70
REMARK                            x       y       z     vdW  Elec       q    Type
REMARK                         _______ _______ _______ _____ _____    ______ ____
ROOT
ATOM      1  N   UNL     1       2.202   1.779   0.305  0.00  0.00    -0.316 N 
ATOM      2  C   UNL     1       1.149   0.977   0.053  0.00  0.00    +0.216 C 
ATOM      3  O   UNL     1       1.329  -0.175  -0.278  0.00  0.00    -0.276 OA
ATOM      4  H   UNL     1       2.058   2.701   0.569  0.00  0.00    +0.149 HD
ENDROOT
BRANCH   2   5
ATOM      5  C   UNL     1      -0.254   1.516   0.175  0.00  0.00    +0.077 C 
ATOM      6  C   UNL     1      -0.493   1.994   1.609  0.00  0.00    +0.030 C 
ATOM      7  C   UNL     1      -1.907   2.572   1.721  0.00  0.00    +0.110 C 
ATOM      8  N   UNL     1      -2.868   1.564   1.253  0.00  0.00    -0.177 NA
ATOM      9  C   UNL     1      -2.679   0.971  -0.078  0.00  0.00    +0.110 C 
ATOM     10  C   UNL     1      -1.256   0.411  -0.170  0.00  0.00    +0.030 C 
BRANCH   8  11
ATOM     11  S   UNL     1      -4.141   1.104   2.208  0.00  0.00    +0.061 S 
ATOM     12  O   UNL     1      -4.424   2.203   3.064  0.00  0.00    -0.153 OA
ATOM     13  O   UNL     1      -5.117   0.543   1.341  0.00  0.00    -0.153 OA
BRANCH  11  14
ATOM     14  C   UNL     1      -3.572  -0.205   3.240  0.00  0.00    +0.108 A 
ATOM     15  C   UNL     1      -3.453  -0.009   4.603  0.00  0.00    +0.029 A 
ATOM     16  C   UNL     1      -3.007  -1.037   5.413  0.00  0.00    +0.005 A 
ATOM     17  C   UNL     1      -2.680  -2.261   4.860  0.00  0.00    -0.050 A 
ATOM     18  C   UNL     1      -2.798  -2.457   3.497  0.00  0.00    +0.008 A 
ATOM     19  C   UNL     1      -3.249  -1.431   2.687  0.00  0.00    -0.024 A 
ATOM     20  C   UNL     1      -3.385  -1.646   1.202  0.00  0.00    +0.046 C 
ATOM     21  C   UNL     1      -2.194  -3.381   5.743  0.00  0.00    +0.044 C 
ENDBRANCH  11  14
ENDBRANCH   8  11
ENDBRANCH   2   5
BRANCH   1  22
ATOM     22  C   UNL     1       3.566   1.257   0.180  0.00  0.00    +0.093 C 
BRANCH  22  23
ATOM     23  C   UNL     1       4.567   2.363   0.519  0.00  0.00    -0.021 C 
BRANCH  23  27
ATOM     24  C   UNL     1       8.525   0.754   0.494  0.00  0.00    -0.048 A 
ATOM     25  C   UNL     1       7.527   0.124   1.214  0.00  0.00    +0.004 A 
ATOM     26  C   UNL     1       6.247   0.645   1.223  0.00  0.00    +0.002 A 
ATOM     27  C   UNL     1       5.964   1.795   0.511  0.00  0.00    -0.059 A 
ATOM     28  C   UNL     1       6.960   2.422  -0.214  0.00  0.00    +0.002 A 
ATOM     29  C   UNL     1       8.242   1.905  -0.218  0.00  0.00    +0.004 A 
BRANCH  24  31
ATOM     30  C   UNL     1      10.061  -0.803  -0.675  0.00  0.00    +0.009 C 
ATOM     31  C   UNL     1       9.921   0.186   0.484  0.00  0.00    +0.032 C 
ENDBRANCH  24  31
ENDBRANCH  23  27
BRANCH  23  34
ATOM     32  C   UNL     1       4.442   1.877   2.888  0.00  0.00    -0.096 C 
ATOM     33  C   UNL     1       5.090   4.086   2.138  0.00  0.00    -0.096 C 
ATOM     34  N   UNL     1       4.240   2.912   1.852  0.00  0.00    +0.382 N 
ATOM     35  H   UNL     1       3.255   3.203   1.859  0.00  0.00    -0.082 HD
ENDBRANCH  23  34
ENDBRANCH  22  23
ENDBRANCH   1  22
TORSDOF 8
