REMARK  Name = ZINC40112051
REMARK  12 active torsions:
REMARK  status: ('A' for Active; 'I' for Inactive)
REMARK    1  A    between atoms: C_1  and  C_2
REMARK    2  A    between atoms: C_2  and  C_3
REMARK    3  A    between atoms: C_3  and  C_4
REMARK    4  A    between atoms: C_4  and  N_5
REMARK    5  A    between atoms: C_6  and  C_29
REMARK    6  A    between atoms: C_8  and  C_13
REMARK    7  A    between atoms: C_13  and  C_15
REMARK    8  A    between atoms: C_18  and  S_21
REMARK    9  A    between atoms: S_21  and  N_24
REMARK   10  A    between atoms: C_34  and  O_35
REMARK   11  A    between atoms: O_35  and  C_36
REMARK   12  A    between atoms: C_36  and  C_37
REMARK                            x       y       z     vdW  Elec       q    Type
REMARK                         _______ _______ _______ _____ _____    ______ ____
ROOT
ATOM      1  N   UNL     1       1.310  -2.464  -3.076  0.00  0.00    -0.283 N 
ATOM      2  C   UNL     1       0.678  -2.732  -4.374  0.00  0.00    +0.148 C 
ATOM      3  C   UNL     1       1.784  -3.196  -5.293  0.00  0.00    +0.076 C 
ATOM      4  C   UNL     1       2.926  -3.185  -4.566  0.00  0.00    +0.249 C 
ATOM      5  C   UNL     1       2.624  -2.724  -3.194  0.00  0.00    +0.288 C 
ATOM      6  O   UNL     1       3.442  -2.601  -2.304  0.00  0.00    -0.266 OA
ATOM      7  O   UNL     1       4.150  -3.535  -5.024  0.00  0.00    -0.282 OA
ENDROOT
BRANCH   2   8
ATOM      8  C   UNL     1       0.049  -1.474  -4.914  0.00  0.00    +0.019 A 
ATOM      9  C   UNL     1      -1.240  -1.504  -5.411  0.00  0.00    +0.009 A 
ATOM     10  C   UNL     1      -1.818  -0.351  -5.907  0.00  0.00    +0.001 A 
ATOM     11  C   UNL     1      -1.109   0.837  -5.906  0.00  0.00    +0.004 A 
ATOM     12  C   UNL     1       0.179   0.872  -5.409  0.00  0.00    +0.046 A 
ATOM     13  C   UNL     1       0.760  -0.283  -4.906  0.00  0.00    +0.126 A 
BRANCH  13  14
ATOM     14  O   UNL     1       2.025  -0.249  -4.412  0.00  0.00    -0.488 OA
BRANCH  14  15
ATOM     15  C   UNL     1       2.659   1.029  -4.340  0.00  0.00    +0.256 C 
BRANCH  15  16
ATOM     16  C   UNL     1       4.084   0.858  -3.879  0.00  0.00    +0.006 C 
ATOM     17  C   UNL     1       5.055   1.472  -4.509  0.00  0.00    +0.007 C 
ENDBRANCH  15  16
ENDBRANCH  14  15
ENDBRANCH  13  14
ENDBRANCH   2   8
BRANCH   3  18
ATOM     18  C   UNL     1       1.647  -3.584  -6.700  0.00  0.00    +0.195 C 
ATOM     19  O   UNL     1       2.166  -2.909  -7.570  0.00  0.00    -0.287 OA
BRANCH  18  20
ATOM     20  C   UNL     1       0.879  -4.794  -7.061  0.00  0.00    +0.022 A 
ATOM     21  C   UNL     1       0.206  -5.519  -6.075  0.00  0.00    +0.013 A 
ATOM     22  C   UNL     1      -0.509  -6.647  -6.420  0.00  0.00    +0.029 A 
ATOM     23  C   UNL     1      -0.560  -7.061  -7.739  0.00  0.00    +0.106 A 
ATOM     24  C   UNL     1       0.105  -6.348  -8.722  0.00  0.00    +0.029 A 
ATOM     25  C   UNL     1       0.819  -5.215  -8.392  0.00  0.00    +0.013 A 
BRANCH  23  26
ATOM     26  S   UNL     1      -1.475  -8.504  -8.171  0.00  0.00    +0.061 S 
ATOM     27  O   UNL     1      -0.845  -9.057  -9.318  0.00  0.00    -0.153 OA
ATOM     28  O   UNL     1      -1.657  -9.243  -6.971  0.00  0.00    -0.153 OA
BRANCH  26  29
ATOM     29  N   UNL     1      -2.979  -8.004  -8.651  0.00  0.00    -0.177 NA
ATOM     30  C   UNL     1      -4.145  -7.829  -7.772  0.00  0.00    +0.109 C 
ATOM     31  C   UNL     1      -5.324  -7.378  -8.660  0.00  0.00    +0.018 C 
ATOM     32  C   UNL     1      -4.905  -7.870 -10.070  0.00  0.00    +0.018 C 
ATOM     33  C   UNL     1      -3.369  -7.655 -10.029  0.00  0.00    +0.109 C 
ENDBRANCH  26  29
ENDBRANCH  23  26
ENDBRANCH  18  20
ENDBRANCH   3  18
BRANCH   1  34
ATOM     34  C   UNL     1       0.629  -1.990  -1.869  0.00  0.00    +0.109 C 
BRANCH  34  35
ATOM     35  C   UNL     1       0.541  -0.463  -1.899  0.00  0.00    +0.019 C 
BRANCH  35  37
ATOM     36  C   UNL     1      -0.342   1.553  -0.716  0.00  0.00    +0.004 C 
ATOM     37  C   UNL     1      -0.253   0.026  -0.685  0.00  0.00    -0.002 C 
ENDBRANCH  35  37
ENDBRANCH  34  35
ENDBRANCH   1  34
TORSDOF 11
