REMARK  Name = ZINC38558191
REMARK  9 active torsions:
REMARK  status: ('A' for Active; 'I' for Inactive)
REMARK    1  A    between atoms: C_1  and  C_2
REMARK    2  A    between atoms: C_2  and  C_3
REMARK    3  A    between atoms: C_2  and  C_4
REMARK    4  A    between atoms: C_7  and  C_10
REMARK    5  A    between atoms: C_12  and  C_24
REMARK    6  A    between atoms: N_26  and  C_27
REMARK    7  A    between atoms: C_27  and  C_28
REMARK    8  A    between atoms: C_28  and  C_29
REMARK    9  A    between atoms: C_29  and  C_30
REMARK                            x       y       z     vdW  Elec       q    Type
REMARK                         _______ _______ _______ _____ _____    ______ ____
ROOT
ATOM      1  C   UNL     1      -5.389  -1.994   0.043  0.00  0.00    +0.076 C 
ATOM      2  N   UNL     1      -6.172  -1.771   1.074  0.00  0.00    -0.244 NA
ATOM      3  C   UNL     1      -7.389  -2.314   1.231  0.00  0.00    +0.126 C 
ATOM      4  C   UNL     1      -7.809  -3.392   0.449  0.00  0.00    +0.039 C 
ATOM      5  C   UNL     1      -6.987  -3.725  -0.619  0.00  0.00    -0.008 C 
ATOM      6  C   UNL     1      -6.838  -4.838  -1.402  0.00  0.00    +0.004 A 
ATOM      7  C   UNL     1      -7.647  -5.984  -1.585  0.00  0.00    +0.010 A 
ATOM      8  C   UNL     1      -7.168  -6.949  -2.421  0.00  0.00    +0.001 A 
ATOM      9  C   UNL     1      -5.944  -6.853  -3.084  0.00  0.00    +0.002 A 
ATOM     10  C   UNL     1      -5.117  -5.777  -2.981  0.00  0.00    +0.026 A 
ATOM     11  C   UNL     1      -5.551  -4.711  -2.144  0.00  0.00    +0.044 A 
ATOM     12  N   UNL     1      -4.996  -3.547  -1.910  0.00  0.00    -0.372 N 
ATOM     13  C   UNL     1      -5.917  -2.762  -1.116  0.00  0.00    +0.160 C 
ATOM     14  H   UNL     1      -4.121  -3.260  -2.217  0.00  0.00    +0.161 HD
ENDROOT
BRANCH   1  18
ATOM     15  C   UNL     1      -1.412  -0.526   0.012  0.00  0.00    -0.045 A 
ATOM     16  C   UNL     1      -2.044  -0.776   1.218  0.00  0.00    +0.004 A 
ATOM     17  C   UNL     1      -3.337  -1.253   1.238  0.00  0.00    +0.010 A 
ATOM     18  C   UNL     1      -4.011  -1.485   0.032  0.00  0.00    -0.001 A 
ATOM     19  C   UNL     1      -3.364  -1.229  -1.183  0.00  0.00    +0.010 A 
ATOM     20  C   UNL     1      -2.073  -0.747  -1.184  0.00  0.00    +0.004 A 
BRANCH  15  22
ATOM     21  C   UNL     1       0.058   1.334   0.741  0.00  0.00    +0.012 C 
ATOM     22  C   UNL     1       0.002  -0.004   0.001  0.00  0.00    +0.013 C 
ATOM     23  C   UNL     1       0.922  -1.010   0.696  0.00  0.00    +0.012 C 
ENDBRANCH  15  22
ENDBRANCH   1  18
BRANCH   3  24
ATOM     24  C   UNL     1      -8.304  -1.760   2.253  0.00  0.00    +0.262 C 
ATOM     25  O   UNL     1      -9.409  -2.242   2.406  0.00  0.00    -0.269 OA
ATOM     26  N   UNL     1      -7.912  -0.720   3.016  0.00  0.00    -0.310 N 
ATOM     27  H   UNL     1      -7.030  -0.335   2.894  0.00  0.00    +0.149 HD
BRANCH  26  28
ATOM     28  C   UNL     1      -8.817  -0.171   4.028  0.00  0.00    +0.105 C 
BRANCH  28  29
ATOM     29  C   UNL     1      -8.133   0.993   4.748  0.00  0.00    +0.023 C 
BRANCH  29  30
ATOM     30  C   UNL     1      -9.079   1.566   5.805  0.00  0.00    +0.036 C 
BRANCH  30  31
ATOM     31  C   UNL     1      -8.405   2.712   6.513  0.00  0.00    -0.047 A 
ATOM     32  C   UNL     1      -7.647   2.476   7.645  0.00  0.00    +0.003 A 
ATOM     33  C   UNL     1      -7.029   3.528   8.295  0.00  0.00    +0.000 A 
ATOM     34  C   UNL     1      -7.168   4.816   7.813  0.00  0.00    +0.000 A 
ATOM     35  C   UNL     1      -7.926   5.052   6.681  0.00  0.00    +0.000 A 
ATOM     36  C   UNL     1      -8.540   4.000   6.028  0.00  0.00    +0.003 A 
ENDBRANCH  30  31
ENDBRANCH  29  30
ENDBRANCH  28  29
ENDBRANCH  26  28
ENDBRANCH   3  24
TORSDOF 7
