REMARK  Name = ZINC04229858
REMARK  9 active torsions:
REMARK  status: ('A' for Active; 'I' for Inactive)
REMARK    1  A    between atoms: C_1  and  C_2
REMARK    2  A    between atoms: C_2  and  C_4
REMARK    3  A    between atoms: C_2  and  O_28
REMARK    4  A    between atoms: N_6  and  N_7
REMARK    5  A    between atoms: C_8  and  C_9
REMARK    6  A    between atoms: C_12  and  O_15
REMARK    7  A    between atoms: O_15  and  C_16
REMARK    8  A    between atoms: C_16  and  C_18
REMARK    9  A    between atoms: O_28  and  C_29
REMARK                            x       y       z     vdW  Elec       q    Type
REMARK                         _______ _______ _______ _____ _____    ______ ____
ROOT
ATOM      1  C   UNL     1      -5.127  -1.929   0.470  0.00  0.00    -0.005 A 
ATOM      2  C   UNL     1      -6.127  -1.015   0.126  0.00  0.00    +0.013 A 
ATOM      3  C   UNL     1      -7.418  -1.454  -0.075  0.00  0.00    +0.047 A 
ATOM      4  C   UNL     1      -7.728  -2.799   0.075  0.00  0.00    +0.132 A 
ATOM      5  C   UNL     1      -6.738  -3.710   0.422  0.00  0.00    +0.047 A 
ATOM      6  C   UNL     1      -5.444  -3.282   0.619  0.00  0.00    +0.013 A 
ENDROOT
BRANCH   1   8
ATOM      7  N   UNL     1      -3.451  -0.209   0.540  0.00  0.00    -0.188 NA
ATOM      8  C   UNL     1      -3.743  -1.466   0.680  0.00  0.00    +0.138 C 
BRANCH   7  11
ATOM      9  C   UNL     1      -1.833   1.537   0.595  0.00  0.00    +0.273 C 
ATOM     10  O   UNL     1      -2.699   2.330   0.292  0.00  0.00    -0.270 OA
ATOM     11  N   UNL     1      -2.136   0.231   0.740  0.00  0.00    -0.204 N 
ATOM     12  H   UNL     1      -1.444  -0.403   0.982  0.00  0.00    +0.177 HD
BRANCH   9  14
ATOM     13  C   UNL     1       0.491   1.399  -0.258  0.00  0.00    +0.062 C 
ATOM     14  C   UNL     1      -0.419   2.010   0.810  0.00  0.00    +0.257 C 
BRANCH  14  15
ATOM     15  O   UNL     1      -0.374   3.435   0.715  0.00  0.00    -0.480 OA
BRANCH  15  16
ATOM     16  C   UNL     1       0.657   4.063   1.340  0.00  0.00    +0.122 A 
ATOM     17  C   UNL     1       1.614   3.321   2.017  0.00  0.00    +0.047 A 
ATOM     18  C   UNL     1       2.663   3.961   2.648  0.00  0.00    +0.023 A 
ATOM     19  C   UNL     1       2.754   5.342   2.614  0.00  0.00    +0.041 A 
ATOM     20  C   UNL     1       1.798   6.083   1.943  0.00  0.00    +0.023 A 
ATOM     21  C   UNL     1       0.750   5.447   1.307  0.00  0.00    +0.047 A 
ATOM     22 CL   UNL     1       4.070   6.144   3.412  0.00  0.00    -0.084 Cl
ENDBRANCH  15  16
ENDBRANCH  14  15
ENDBRANCH   9  14
ENDBRANCH   7  11
ENDBRANCH   1   8
BRANCH   4  23
ATOM     23  O   UNL     1      -9.003  -3.226  -0.118  0.00  0.00    -0.422 OA
BRANCH  23  24
ATOM     24  C   UNL     1      -9.428  -3.329  -1.394  0.00  0.00    +0.353 C 
ATOM     25  O   UNL     1      -8.656  -3.123  -2.311  0.00  0.00    -0.244 OA
BRANCH  24  26
ATOM     26  C   UNL     1     -10.822  -3.688  -1.676  0.00  0.00    +0.116 A 
ATOM     27  C   UNL     1     -11.432  -3.833  -2.885  0.00  0.00    +0.070 A 
ATOM     28  C   UNL     1     -12.793  -4.190  -2.944  0.00  0.00    +0.008 A 
ATOM     29  C   UNL     1     -13.598  -4.391  -4.094  0.00  0.00    +0.010 A 
ATOM     30  C   UNL     1     -14.908  -4.730  -3.975  0.00  0.00    +0.001 A 
ATOM     31  C   UNL     1     -15.508  -4.892  -2.732  0.00  0.00    +0.001 A 
ATOM     32  C   UNL     1     -14.761  -4.706  -1.587  0.00  0.00    +0.016 A 
ATOM     33  C   UNL     1     -13.430  -4.361  -1.692  0.00  0.00    +0.022 A 
ATOM     34  S   UNL     1     -12.137  -4.034  -0.521  0.00  0.00    -0.080 S 
ATOM     35 CL   UNL     1     -10.534  -3.583  -4.349  0.00  0.00    -0.082 Cl
ENDBRANCH  24  26
ENDBRANCH  23  24
ENDBRANCH   4  23
TORSDOF 8
