REMARK  Name = ZINC08789818
REMARK  10 active torsions:
REMARK  status: ('A' for Active; 'I' for Inactive)
REMARK    1  A    between atoms: C_1  and  C_2
REMARK    2  A    between atoms: C_2  and  C_3
REMARK    3  A    between atoms: C_3  and  O_4
REMARK    4  A    between atoms: O_4  and  C_5
REMARK    5  A    between atoms: C_8  and  C_14
REMARK    6  A    between atoms: C_10  and  O_11
REMARK    7  A    between atoms: O_11  and  C_12
REMARK    8  A    between atoms: C_12  and  C_13
REMARK    9  A    between atoms: N_21  and  C_36
REMARK   10  A    between atoms: C_24  and  C_35
REMARK                            x       y       z     vdW  Elec       q    Type
REMARK                         _______ _______ _______ _____ _____    ______ ____
ROOT
ATOM      1  C   UNL     1       0.627   6.412   0.039  0.00  0.00    +0.069 C 
ATOM      2  C   UNL     1      -0.149   7.663  -0.387  0.00  0.00    +0.122 C 
ATOM      3  N   UNL     1      -1.437   7.692   0.332  0.00  0.00    -0.280 N 
ATOM      4  C   UNL     1      -1.683   8.682   1.194  0.00  0.00    +0.234 C 
ATOM      5  O   UNL     1      -0.893   9.601   1.244  0.00  0.00    -0.274 OA
ATOM      6  C   UNL     1      -2.868   8.730   2.103  0.00  0.00    +0.204 C 
ATOM      7  N   UNL     1      -3.703   7.546   1.978  0.00  0.00    -0.288 N 
ATOM      8  C   UNL     1      -3.502   6.594   1.067  0.00  0.00    +0.246 C 
ATOM      9  O   UNL     1      -4.259   5.646   1.056  0.00  0.00    -0.273 OA
ATOM     10  C   UNL     1      -2.400   6.625   0.061  0.00  0.00    +0.151 C 
ATOM     11  C   UNL     1      -1.654   5.312   0.049  0.00  0.00    +0.054 A 
ATOM     12  C   UNL     1      -0.305   5.228   0.035  0.00  0.00    -0.008 A 
ATOM     13  C   UNL     1       0.031   3.818   0.023  0.00  0.00    +0.004 A 
ATOM     14  C   UNL     1       1.250   3.133   0.007  0.00  0.00    +0.010 A 
ATOM     15  C   UNL     1       1.191   1.762   0.000  0.00  0.00    +0.001 A 
ATOM     16  C   UNL     1      -0.013   1.076   0.008  0.00  0.00    +0.002 A 
ATOM     17  C   UNL     1      -1.233   1.728   0.017  0.00  0.00    +0.026 A 
ATOM     18  C   UNL     1      -1.205   3.121   0.031  0.00  0.00    +0.047 A 
ATOM     19  N   UNL     1      -2.200   4.056   0.047  0.00  0.00    -0.356 N 
ATOM     20  H   UNL     1      -3.150   3.860   0.055  0.00  0.00    +0.166 HD
ATOM     21  C   UNL     1      -3.003   6.844  -1.327  0.00  0.00    +0.048 C 
ENDROOT
BRANCH   1  25
ATOM     22  C   UNL     1       2.201   6.975   3.976  0.00  0.00    +0.162 A 
ATOM     23  C   UNL     1       0.834   7.037   3.758  0.00  0.00    +0.050 A 
ATOM     24  C   UNL     1       0.328   6.855   2.484  0.00  0.00    +0.008 A 
ATOM     25  C   UNL     1       1.184   6.611   1.426  0.00  0.00    -0.035 A 
ATOM     26  C   UNL     1       2.548   6.542   1.637  0.00  0.00    +0.053 A 
ATOM     27  C   UNL     1       3.062   6.729   2.911  0.00  0.00    +0.162 A 
BRANCH  22  28
ATOM     28  O   UNL     1       2.700   7.154   5.228  0.00  0.00    -0.488 OA
BRANCH  28  29
ATOM     29  C   UNL     1       1.757   7.403   6.273  0.00  0.00    +0.229 C 
BRANCH  29  31
ATOM     30  C   UNL     1       1.490   7.843   8.718  0.00  0.00    +0.007 C 
ATOM     31  C   UNL     1       2.500   7.577   7.599  0.00  0.00    +0.038 C 
ENDBRANCH  29  31
ENDBRANCH  28  29
ENDBRANCH  22  28
BRANCH  27  32
ATOM     32  O   UNL     1       4.404   6.667   3.120  0.00  0.00    -0.489 OA
BRANCH  32  33
ATOM     33  C   UNL     1       5.227   6.412   1.980  0.00  0.00    +0.226 C 
ATOM     34  C   UNL     1       6.696   6.378   2.408  0.00  0.00    +0.048 C 
ENDBRANCH  32  33
ENDBRANCH  27  32
ENDBRANCH   1  25
BRANCH   7  35
ATOM     35  C   UNL     1      -4.828   7.393   2.903  0.00  0.00    +0.077 C 
ATOM     36  C   UNL     1      -5.778   8.602   2.786  0.00  0.00    +0.022 C 
ATOM     37  C   UNL     1      -6.251   8.855   4.240  0.00  0.00    +0.002 C 
ATOM     38  C   UNL     1      -4.974   8.571   5.070  0.00  0.00    +0.002 C 
ATOM     39  C   UNL     1      -4.317   7.372   4.354  0.00  0.00    +0.022 C 
ENDBRANCH   7  35
TORSDOF 7
