REMARK  Name = ZINC39531544
REMARK  9 active torsions:
REMARK  status: ('A' for Active; 'I' for Inactive)
REMARK    1  A    between atoms: C_1  and  C_2
REMARK    2  A    between atoms: C_5  and  C_8
REMARK    3  A    between atoms: C_8  and  C_10
REMARK    4  A    between atoms: C_8  and  N_19
REMARK    5  A    between atoms: C_10  and  N_11
REMARK    6  A    between atoms: N_11  and  C_12
REMARK    7  A    between atoms: C_17  and  O_18
REMARK    8  A    between atoms: C_23  and  C_26
REMARK    9  A    between atoms: C_31  and  O_32
REMARK                            x       y       z     vdW  Elec       q    Type
REMARK                         _______ _______ _______ _____ _____    ______ ____
ROOT
ATOM      1  C   UNL     1       0.052  -4.276  -0.016  0.00  0.00    -0.021 C 
ENDROOT
BRANCH   1   2
ATOM      2  N   UNL     1       0.946  -4.850   0.999  0.00  0.00    +0.383 N 
ATOM      3  C   UNL     1       2.282  -4.255   0.868  0.00  0.00    -0.097 C 
ATOM      4  C   UNL     1       3.213  -4.852   1.925  0.00  0.00    -0.101 C 
ATOM      5  N   UNL     1       3.303  -6.306   1.733  0.00  0.00    +0.381 N 
ATOM      6  C   UNL     1       1.966  -6.901   1.865  0.00  0.00    -0.054 C 
ATOM      7  C   UNL     1       1.036  -6.303   0.807  0.00  0.00    -0.089 C 
ATOM      8  H   UNL     1       3.669  -6.502   0.814  0.00  0.00    -0.085 HD
ATOM      9  H   UNL     1       3.916  -6.700   2.431  0.00  0.00    -0.085 HD
ATOM     10  H   UNL     1       0.579  -4.654   1.919  0.00  0.00    -0.081 HD
BRANCH   6  11
ATOM     11  C   UNL     1       2.059  -8.392   1.668  0.00  0.00    -0.022 A 
ATOM     12  C   UNL     1       3.152  -8.938   1.022  0.00  0.00    +0.005 A 
ATOM     13  C   UNL     1       3.237 -10.306   0.841  0.00  0.00    +0.000 A 
ATOM     14  C   UNL     1       2.229 -11.131   1.305  0.00  0.00    +0.004 A 
ATOM     15  C   UNL     1       1.135 -10.591   1.952  0.00  0.00    +0.045 A 
ATOM     16  C   UNL     1       1.049  -9.218   2.139  0.00  0.00    +0.118 A 
BRANCH  16  17
ATOM     17  O   UNL     1      -0.024  -8.685   2.780  0.00  0.00    -0.507 OA
ATOM     18  H   UNL     1      -0.757  -8.454   2.193  0.00  0.00    +0.292 HD
ENDBRANCH  16  17
ENDBRANCH   6  11
ENDBRANCH   1   2
BRANCH   1  23
ATOM     19  C   UNL     1      -0.195   1.458   0.650  0.00  0.00    +0.044 C 
ATOM     20  C   UNL     1      -0.130  -0.037   0.477  0.00  0.00    -0.050 A 
ATOM     21  C   UNL     1      -0.081  -0.584  -0.792  0.00  0.00    +0.003 A 
ATOM     22  C   UNL     1      -0.021  -1.956  -0.952  0.00  0.00    +0.002 A 
ATOM     23  C   UNL     1      -0.011  -2.781   0.158  0.00  0.00    -0.059 A 
ATOM     24  C   UNL     1      -0.060  -2.234   1.426  0.00  0.00    +0.002 A 
ATOM     25  C   UNL     1      -0.115  -0.862   1.586  0.00  0.00    +0.003 A 
ENDBRANCH   1  23
BRANCH   1  26
ATOM     26  C   UNL     1      -1.349  -4.869   0.145  0.00  0.00    +0.091 C 
BRANCH  26  27
ATOM     27  N   UNL     1      -2.216  -4.370  -0.927  0.00  0.00    -0.342 N 
ATOM     28  H   UNL     1      -1.845  -3.820  -1.634  0.00  0.00    +0.146 HD
BRANCH  27  29
ATOM     29  C   UNL     1      -3.579  -4.689  -0.930  0.00  0.00    +0.069 A 
ATOM     30  C   UNL     1      -4.112  -5.472   0.084  0.00  0.00    +0.026 A 
ATOM     31  C   UNL     1      -5.458  -5.785   0.079  0.00  0.00    +0.002 A 
ATOM     32  C   UNL     1      -6.276  -5.320  -0.934  0.00  0.00    +0.004 A 
ATOM     33  C   UNL     1      -5.751  -4.539  -1.948  0.00  0.00    +0.047 A 
ATOM     34  C   UNL     1      -4.404  -4.216  -1.947  0.00  0.00    +0.138 A 
BRANCH  34  35
ATOM     35  O   UNL     1      -3.888  -3.445  -2.941  0.00  0.00    -0.505 OA
ATOM     36  H   UNL     1      -3.568  -3.946  -3.703  0.00  0.00    +0.292 HD
ENDBRANCH  34  35
ENDBRANCH  27  29
ENDBRANCH  26  27
ENDBRANCH   1  26
TORSDOF 8
