REMARK  Name = ZINC66961922
REMARK  10 active torsions:
REMARK  status: ('A' for Active; 'I' for Inactive)
REMARK    1  A    between atoms: C_1  and  C_2
REMARK    2  A    between atoms: C_2  and  N_3
REMARK    3  A    between atoms: N_3  and  C_4
REMARK    4  A    between atoms: N_3  and  C_17
REMARK    5  A    between atoms: C_4  and  C_5
REMARK    6  A    between atoms: N_7  and  C_8
REMARK    7  A    between atoms: N_11  and  C_14
REMARK    8  A    between atoms: C_17  and  C_19
REMARK    9  A    between atoms: C_17  and  C_20
REMARK   10  A    between atoms: C_23  and  C_26
REMARK                            x       y       z     vdW  Elec       q    Type
REMARK                         _______ _______ _______ _____ _____    ______ ____
ROOT
ATOM      1  C   UNL     1       2.166   0.016  -1.033  0.00  0.00    +0.019 C 
ENDROOT
BRANCH   1   2
ATOM      2  C   UNL     1       2.246   1.508  -0.836  0.00  0.00    +0.197 C 
ATOM      3  O   UNL     1       1.244   2.186  -0.923  0.00  0.00    -0.278 OA
ATOM      4  N   UNL     1       3.431   2.089  -0.563  0.00  0.00    -0.314 N 
ATOM      5  H   UNL     1       4.233   1.547  -0.493  0.00  0.00    +0.149 HD
BRANCH   4   6
ATOM      6  C   UNL     1       3.509   3.539  -0.371  0.00  0.00    +0.069 C 
ATOM      7  C   UNL     1       3.662   4.228  -1.731  0.00  0.00    +0.003 C 
ATOM      8  C   UNL     1       3.823   5.735  -1.518  0.00  0.00    -0.077 C 
ATOM      9  N   UNL     1       5.014   5.993  -0.700  0.00  0.00    +0.382 N 
ATOM     10  C   UNL     1       4.844   5.396   0.630  0.00  0.00    -0.077 C 
ATOM     11  C   UNL     1       4.723   3.877   0.500  0.00  0.00    +0.003 C 
ATOM     12  H   UNL     1       5.822   5.588  -1.148  0.00  0.00    -0.081 HD
BRANCH   9  13
ATOM     13  C   UNL     1       5.208   7.443  -0.564  0.00  0.00    -0.069 C 
ATOM     14  C   UNL     1       6.419   8.063  -1.264  0.00  0.00    -0.017 C 
ATOM     15  C   UNL     1       6.406   7.921   0.259  0.00  0.00    -0.017 C 
ENDBRANCH   9  13
ENDBRANCH   4   6
ENDBRANCH   1   2
BRANCH   1  16
ATOM     16  N   UNL     1       0.759  -0.385  -1.167  0.00  0.00    +0.390 N 
ATOM     17  H   UNL     1       0.319   0.166  -1.888  0.00  0.00    -0.080 HD
BRANCH  16  19
ATOM     18  C   UNL     1       0.643  -1.103   1.172  0.00  0.00    -0.017 C 
ATOM     19  C   UNL     1       0.065  -0.167   0.109  0.00  0.00    -0.081 C 
ENDBRANCH  16  19
BRANCH  16  20
ATOM     20  C   UNL     1       0.688  -1.808  -1.526  0.00  0.00    -0.040 C 
ATOM     21  C   UNL     1      -0.777  -2.226  -1.665  0.00  0.00    -0.008 C 
BRANCH  20  22
ATOM     22  C   UNL     1       1.401  -2.032  -2.834  0.00  0.00    -0.061 A 
ATOM     23  C   UNL     1       1.274  -1.106  -3.855  0.00  0.00    +0.003 A 
ATOM     24  C   UNL     1       1.923  -1.305  -5.056  0.00  0.00    +0.019 A 
ATOM     25  C   UNL     1       2.711  -2.443  -5.239  0.00  0.00    +0.052 A 
ATOM     26  C   UNL     1       2.835  -3.373  -4.205  0.00  0.00    +0.019 A 
ATOM     27  C   UNL     1       2.184  -3.159  -3.008  0.00  0.00    +0.003 A 
BRANCH  25  28
ATOM     28  C   UNL     1       3.388  -2.656  -6.483  0.00  0.00    +0.099 C 
ATOM     29  N   UNL     1       3.925  -2.825  -7.470  0.00  0.00    -0.191 NA
ENDBRANCH  25  28
ENDBRANCH  20  22
ENDBRANCH  16  20
ENDBRANCH   1  16
TORSDOF 8
