REMARK  Name = ZINC34733277
REMARK  11 active torsions:
REMARK  status: ('A' for Active; 'I' for Inactive)
REMARK    1  A    between atoms: C_1  and  C_2
REMARK    2  A    between atoms: C_2  and  C_3
REMARK    3  A    between atoms: C_4  and  C_37
REMARK    4  A    between atoms: N_11  and  C_28
REMARK    5  A    between atoms: N_14  and  C_17
REMARK    6  A    between atoms: C_17  and  C_18
REMARK    7  A    between atoms: N_20  and  C_21
REMARK    8  A    between atoms: C_21  and  C_22
REMARK    9  A    between atoms: C_28  and  C_29
REMARK   10  A    between atoms: C_31  and  C_36
REMARK   11  A    between atoms: C_34  and  C_35
REMARK                            x       y       z     vdW  Elec       q    Type
REMARK                         _______ _______ _______ _____ _____    ______ ____
ROOT
ATOM      1  C   UNL     1       0.562  -0.519   1.100  0.00  0.00    -0.040 C 
ATOM      2  C   UNL     1      -0.066  -0.878   2.205  0.00  0.00    -0.064 C 
ATOM      3  C   UNL     1       0.984  -1.306   3.204  0.00  0.00    +0.073 C 
ATOM      4  C   UNL     1       2.289  -1.132   2.489  0.00  0.00    +0.004 A 
ATOM      5  C   UNL     1       2.038  -0.670   1.235  0.00  0.00    +0.003 A 
ATOM      6  C   UNL     1       3.220  -0.442   0.376  0.00  0.00    +0.078 A 
ATOM      7  C   UNL     1       3.255   0.054  -1.015  0.00  0.00    +0.266 A 
ATOM      8  O   UNL     1       2.221   0.334  -1.596  0.00  0.00    -0.267 OA
ATOM      9  N   UNL     1       4.442   0.195  -1.632  0.00  0.00    -0.256 N 
ATOM     10  C   UNL     1       5.599  -0.105  -1.019  0.00  0.00    +0.334 A 
ATOM     11  O   UNL     1       6.646   0.038  -1.620  0.00  0.00    -0.246 OA
ATOM     12  N   UNL     1       5.622  -0.561   0.249  0.00  0.00    -0.278 N 
ATOM     13  C   UNL     1       4.457  -0.731   0.944  0.00  0.00    +0.098 A 
ATOM     14  S   UNL     1       4.053  -1.277   2.582  0.00  0.00    -0.074 S 
ATOM     15  C   UNL     1      -1.556  -0.863   2.428  0.00  0.00    +0.039 C 
ENDROOT
BRANCH   1  17
ATOM     16  C   UNL     1      -0.158   1.504  -0.139  0.00  0.00    +0.009 C 
ATOM     17  C   UNL     1      -0.129  -0.026  -0.145  0.00  0.00    +0.032 C 
ENDBRANCH   1  17
BRANCH  12  18
ATOM     18  C   UNL     1       6.903  -0.878   0.886  0.00  0.00    +0.223 C 
BRANCH  18  19
ATOM     19  C   UNL     1       7.434   0.348   1.583  0.00  0.00    +0.233 C 
ATOM     20  O   UNL     1       6.805   1.384   1.551  0.00  0.00    -0.274 OA
ATOM     21  N   UNL     1       8.608   0.293   2.242  0.00  0.00    -0.310 N 
ATOM     22  H   UNL     1       9.112  -0.536   2.268  0.00  0.00    +0.149 HD
BRANCH  21  23
ATOM     23  C   UNL     1       9.125   1.485   2.920  0.00  0.00    +0.139 C 
BRANCH  23  24
ATOM     24  C   UNL     1      10.442   1.159   3.575  0.00  0.00    -0.030 A 
ATOM     25  C   UNL     1      10.470   0.685   4.873  0.00  0.00    +0.005 A 
ATOM     26  C   UNL     1      11.678   0.387   5.474  0.00  0.00    +0.000 A 
ATOM     27  C   UNL     1      12.859   0.561   4.777  0.00  0.00    +0.000 A 
ATOM     28  C   UNL     1      12.831   1.033   3.478  0.00  0.00    +0.000 A 
ATOM     29  C   UNL     1      11.623   1.328   2.876  0.00  0.00    +0.005 A 
ENDBRANCH  23  24
ENDBRANCH  21  23
ENDBRANCH  18  19
ENDBRANCH  12  18
BRANCH   9  30
ATOM     30  C   UNL     1       4.474   0.687  -3.011  0.00  0.00    +0.165 C 
BRANCH  30  31
ATOM     31  C   UNL     1       4.481   2.194  -3.006  0.00  0.00    -0.024 A 
ATOM     32  C   UNL     1       4.584   2.881  -1.810  0.00  0.00    +0.009 A 
ATOM     33  C   UNL     1       4.590   4.263  -1.806  0.00  0.00    -0.050 A 
ATOM     34  C   UNL     1       4.493   4.959  -2.997  0.00  0.00    +0.003 A 
ATOM     35  C   UNL     1       4.390   4.272  -4.192  0.00  0.00    +0.004 A 
ATOM     36  C   UNL     1       4.388   2.890  -4.197  0.00  0.00    -0.046 A 
ATOM     37  C   UNL     1       4.281   2.141  -5.500  0.00  0.00    +0.044 C 
ATOM     38  C   UNL     1       4.702   5.012  -0.503  0.00  0.00    +0.044 C 
ENDBRANCH  30  31
ENDBRANCH   9  30
TORSDOF 7
