REMARK  Name = ZINC63589208
REMARK  12 active torsions:
REMARK  status: ('A' for Active; 'I' for Inactive)
REMARK    1  A    between atoms: C_1  and  C_2
REMARK    2  A    between atoms: C_2  and  C_3
REMARK    3  A    between atoms: C_2  and  C_4
REMARK    4  A    between atoms: C_7  and  N_10
REMARK    5  A    between atoms: N_12  and  C_13
REMARK    6  A    between atoms: C_13  and  C_14
REMARK    7  A    between atoms: C_14  and  C_15
REMARK    8  A    between atoms: N_24  and  C_25
REMARK    9  A    between atoms: C_25  and  C_27
REMARK   10  A    between atoms: C_31  and  N_33
REMARK   11  A    between atoms: N_33  and  C_34
REMARK   12  A    between atoms: N_33  and  C_35
REMARK                            x       y       z     vdW  Elec       q    Type
REMARK                         _______ _______ _______ _____ _____    ______ ____
ROOT
ATOM      1  N   UNL     1       2.653  -1.882  -4.613  0.00  0.00    -0.328 N 
ATOM      2  C   UNL     1       3.852  -2.529  -4.514  0.00  0.00    +0.194 C 
ATOM      3  N   UNL     1       4.552  -2.843  -5.642  0.00  0.00    -0.357 N 
ATOM      4  N   UNL     1       4.334  -2.852  -3.324  0.00  0.00    -0.143 NA
ATOM      5  H   UNL     1       5.363  -3.372  -5.578  0.00  0.00    +0.162 HD
ATOM      6  H   UNL     1       2.261  -1.719  -5.485  0.00  0.00    +0.169 HD
ENDROOT
BRANCH   1  10
ATOM      7  C   UNL     1       0.684  -0.609  -1.170  0.00  0.00    -0.045 A 
ATOM      8  C   UNL     1       2.066  -0.597  -1.219  0.00  0.00    +0.006 A 
ATOM      9  C   UNL     1       2.722  -1.018  -2.359  0.00  0.00    +0.026 A 
ATOM     10  C   UNL     1       1.992  -1.455  -3.457  0.00  0.00    +0.042 A 
ATOM     11  C   UNL     1       0.604  -1.466  -3.405  0.00  0.00    +0.026 A 
ATOM     12  C   UNL     1      -0.046  -1.048  -2.260  0.00  0.00    +0.006 A 
BRANCH   7  14
ATOM     13  C   UNL     1       0.396  -1.019   1.258  0.00  0.00    +0.012 C 
ATOM     14  C   UNL     1      -0.029  -0.147   0.075  0.00  0.00    +0.013 C 
ATOM     15  C   UNL     1       0.335   1.311   0.360  0.00  0.00    +0.012 C 
ENDBRANCH   7  14
ENDBRANCH   1  10
BRANCH   4  16
ATOM     16  C   UNL     1       5.433  -3.612  -3.230  0.00  0.00    +0.270 C 
ATOM     17  O   UNL     1       6.038  -3.934  -4.237  0.00  0.00    -0.268 OA
BRANCH  16  18
ATOM     18  C   UNL     1       5.911  -4.062  -1.902  0.00  0.00    +0.041 A 
ATOM     19  C   UNL     1       5.216  -3.699  -0.748  0.00  0.00    +0.013 A 
ATOM     20  C   UNL     1       5.663  -4.119   0.488  0.00  0.00    +0.003 A 
ATOM     21  C   UNL     1       6.800  -4.899   0.588  0.00  0.00    +0.023 A 
ATOM     22  C   UNL     1       7.500  -5.265  -0.555  0.00  0.00    +0.030 A 
ATOM     23  C   UNL     1       7.054  -4.853  -1.802  0.00  0.00    +0.036 A 
BRANCH  22  24
ATOM     24  N   UNL     1       8.649  -6.053  -0.449  0.00  0.00    -0.336 N 
ATOM     25  C   UNL     1       9.116  -6.494   0.867  0.00  0.00    +0.129 C 
ATOM     26  C   UNL     1       9.386  -6.439  -1.655  0.00  0.00    +0.129 C 
ENDBRANCH  22  24
ENDBRANCH  16  18
ENDBRANCH   4  16
BRANCH   3  27
ATOM     27  C   UNL     1       4.080  -2.381  -6.950  0.00  0.00    +0.120 C 
BRANCH  27  28
ATOM     28  C   UNL     1       4.972  -2.963  -8.048  0.00  0.00    +0.054 C 
BRANCH  28  29
ATOM     29  C   UNL     1       4.486  -2.489  -9.394  0.00  0.00    -0.040 C 
ATOM     30  C   UNL     1       4.943  -1.425 -10.094  0.00  0.00    -0.001 A 
ATOM     31  C   UNL     1       5.987  -0.431  -9.823  0.00  0.00    +0.010 A 
ATOM     32  C   UNL     1       6.221   0.540 -10.736  0.00  0.00    +0.001 A 
ATOM     33  C   UNL     1       5.492   0.620 -11.931  0.00  0.00    +0.002 A 
ATOM     34  C   UNL     1       4.518  -0.258 -12.250  0.00  0.00    +0.026 A 
ATOM     35  C   UNL     1       4.188  -1.320 -11.363  0.00  0.00    +0.043 A 
ATOM     36  N   UNL     1       3.299  -2.280 -11.444  0.00  0.00    -0.380 N 
ATOM     37  C   UNL     1       3.394  -3.108 -10.237  0.00  0.00    +0.144 C 
ATOM     38  H   UNL     1       2.684  -2.422 -12.181  0.00  0.00    +0.160 HD
ENDBRANCH  28  29
ENDBRANCH  27  28
ENDBRANCH   3  27
TORSDOF 8
