REMARK  Name = ZINC64479964
REMARK  9 active torsions:
REMARK  status: ('A' for Active; 'I' for Inactive)
REMARK    1  A    between atoms: C_4  and  C_7
REMARK    2  A    between atoms: C_7  and  C_8
REMARK    3  A    between atoms: C_8  and  N_9
REMARK    4  A    between atoms: C_10  and  C_12
REMARK    5  A    between atoms: C_17  and  N_18
REMARK    6  A    between atoms: C_19  and  C_21
REMARK    7  A    between atoms: N_23  and  C_24
REMARK    8  A    between atoms: C_24  and  C_25
REMARK    9  A    between atoms: C_25  and  C_26
REMARK                            x       y       z     vdW  Elec       q    Type
REMARK                         _______ _______ _______ _____ _____    ______ ____
ROOT
ATOM      1  N   UNL     1       7.482  -2.570   4.936  0.00  0.00    -0.277 N 
ATOM      2  C   UNL     1       8.298  -2.160   5.928  0.00  0.00    +0.303 C 
ATOM      3  O   UNL     1       9.493  -2.073   5.733  0.00  0.00    -0.265 OA
ATOM      4  H   UNL     1       6.521  -2.566   5.067  0.00  0.00    +0.155 HD
ENDROOT
BRANCH   1  10
ATOM      5  C   UNL     1       7.340  -2.741   2.525  0.00  0.00    +0.058 A 
ATOM      6  C   UNL     1       7.892  -3.170   1.316  0.00  0.00    +0.015 A 
ATOM      7  C   UNL     1       9.093  -3.846   1.310  0.00  0.00    +0.001 A 
ATOM      8  C   UNL     1       9.758  -4.102   2.498  0.00  0.00    +0.002 A 
ATOM      9  C   UNL     1       9.225  -3.684   3.701  0.00  0.00    +0.024 A 
ATOM     10  C   UNL     1       8.018  -2.997   3.726  0.00  0.00    +0.046 A 
BRANCH   5  12
ATOM     11  N   UNL     1       5.456  -1.685   1.377  0.00  0.00    -0.311 N 
ATOM     12  C   UNL     1       6.054  -2.017   2.538  0.00  0.00    +0.246 C 
ATOM     13  O   UNL     1       5.535  -1.720   3.596  0.00  0.00    -0.270 OA
ATOM     14  H   UNL     1       5.871  -1.921   0.532  0.00  0.00    +0.149 HD
BRANCH  11  15
ATOM     15  C   UNL     1       4.180  -0.966   1.390  0.00  0.00    +0.109 C 
BRANCH  15  16
ATOM     16  C   UNL     1       3.722  -0.714  -0.048  0.00  0.00    +0.054 C 
BRANCH  16  20
ATOM     17  C   UNL     1      -0.001   1.382  -0.012  0.00  0.00    +0.000 A 
ATOM     18  C   UNL     1       1.189   2.086  -0.021  0.00  0.00    +0.000 A 
ATOM     19  C   UNL     1       2.393   1.408  -0.032  0.00  0.00    +0.004 A 
ATOM     20  C   UNL     1       2.409   0.025  -0.035  0.00  0.00    -0.046 A 
ATOM     21  C   UNL     1       1.219  -0.679  -0.025  0.00  0.00    +0.004 A 
ATOM     22  C   UNL     1       0.014  -0.001  -0.015  0.00  0.00    +0.000 A 
ENDBRANCH  16  20
ENDBRANCH  15  16
ENDBRANCH  11  15
ENDBRANCH   5  12
ENDBRANCH   1  10
BRANCH   2  23
ATOM     23  C   UNL     1       7.732  -1.813   7.266  0.00  0.00    +0.299 C 
ATOM     24  O   UNL     1       6.537  -1.900   7.460  0.00  0.00    -0.265 OA
ATOM     25  N   UNL     1       8.548  -1.403   8.257  0.00  0.00    -0.307 N 
ATOM     26  H   UNL     1       9.503  -1.334   8.101  0.00  0.00    +0.149 HD
BRANCH  25  27
ATOM     27  C   UNL     1       7.993  -1.063   9.569  0.00  0.00    +0.109 C 
BRANCH  27  28
ATOM     28  C   UNL     1       9.124  -0.632  10.505  0.00  0.00    +0.052 C 
BRANCH  28  29
ATOM     29  C   UNL     1       8.553  -0.282  11.855  0.00  0.00    -0.040 C 
ATOM     30  C   UNL     1       8.462  -1.092  12.935  0.00  0.00    -0.001 A 
ATOM     31  C   UNL     1       8.852  -2.488  13.166  0.00  0.00    +0.010 A 
ATOM     32  C   UNL     1       8.628  -3.039  14.380  0.00  0.00    +0.001 A 
ATOM     33  C   UNL     1       8.034  -2.312  15.421  0.00  0.00    +0.002 A 
ATOM     34  C   UNL     1       7.649  -1.026  15.285  0.00  0.00    +0.026 A 
ATOM     35  C   UNL     1       7.837  -0.346  14.050  0.00  0.00    +0.043 A 
ATOM     36  N   UNL     1       7.553   0.877  13.675  0.00  0.00    -0.380 N 
ATOM     37  C   UNL     1       7.971   1.048  12.279  0.00  0.00    +0.144 C 
ATOM     38  H   UNL     1       7.138   1.557  14.229  0.00  0.00    +0.160 HD
ENDBRANCH  28  29
ENDBRANCH  27  28
ENDBRANCH  25  27
ENDBRANCH   2  23
TORSDOF 9
