REMARK  Name = ZINC22170847
REMARK  8 active torsions:
REMARK  status: ('A' for Active; 'I' for Inactive)
REMARK    1  A    between atoms: C_1  and  C_2
REMARK    2  A    between atoms: C_2  and  O_3
REMARK    3  A    between atoms: O_3  and  C_4
REMARK    4  A    between atoms: C_6  and  C_22
REMARK    5  A    between atoms: C_9  and  O_10
REMARK    6  A    between atoms: O_10  and  S_11
REMARK    7  A    between atoms: S_11  and  C_14
REMARK    8  A    between atoms: C_17  and  C_20
REMARK                            x       y       z     vdW  Elec       q    Type
REMARK                         _______ _______ _______ _____ _____    ______ ____
ROOT
ATOM      1  C   UNL     1       2.721   0.152  -0.237  0.00  0.00    +0.166 A 
ATOM      2  C   UNL     1       2.566   1.501   0.014  0.00  0.00    +0.057 A 
ATOM      3  C   UNL     1       1.341   2.124  -0.255  0.00  0.00    -0.019 A 
ATOM      4  C   UNL     1       0.280   1.375  -0.778  0.00  0.00    +0.027 A 
ATOM      5  C   UNL     1       0.444   0.029  -1.026  0.00  0.00    +0.067 A 
ATOM      6  C   UNL     1       1.660  -0.587  -0.758  0.00  0.00    +0.212 A 
ATOM      7 BR   UNL     1      -0.990  -0.981  -1.733  0.00  0.00    -0.046 Br
ENDROOT
BRANCH   3   8
ATOM      8  C   UNL     1       1.171   3.558   0.009  0.00  0.00    +0.028 C 
ATOM      9  C   UNL     1       2.132   4.244   0.678  0.00  0.00    +0.079 C 
ATOM     10  C   UNL     1       2.265   5.697   0.908  0.00  0.00    +0.275 C 
ATOM     11  O   UNL     1       1.448   6.489   0.478  0.00  0.00    -0.267 OA
ATOM     12  N   UNL     1       3.317   6.093   1.605  0.00  0.00    -0.161 NA
ATOM     13  C   UNL     1       4.221   5.211   2.079  0.00  0.00    +0.139 C 
ATOM     14  S   UNL     1       5.634   5.525   2.992  0.00  0.00    -0.026 S 
ATOM     15  S   UNL     1       3.582   3.636   1.530  0.00  0.00    -0.059 S 
ENDBRANCH   3   8
BRANCH   1  16
ATOM     16  O   UNL     1       3.909  -0.457   0.024  0.00  0.00    -0.488 OA
BRANCH  16  18
ATOM     17  C   UNL     1       6.203  -0.492   0.783  0.00  0.00    +0.048 C 
ATOM     18  C   UNL     1       4.953   0.361   0.557  0.00  0.00    +0.226 C 
ENDBRANCH  16  18
ENDBRANCH   1  16
BRANCH   6  19
ATOM     19  O   UNL     1       1.815  -1.914  -1.005  0.00  0.00    -0.337 OA
BRANCH  19  20
ATOM     20  S   UNL     1       2.317  -2.229  -2.406  0.00  0.00    +0.151 S 
ATOM     21  O   UNL     1       2.224  -3.638  -2.565  0.00  0.00    -0.131 OA
ATOM     22  O   UNL     1       1.668  -1.319  -3.284  0.00  0.00    -0.131 OA
BRANCH  20  23
ATOM     23  C   UNL     1       4.033  -1.830  -2.447  0.00  0.00    +0.128 A 
ATOM     24  C   UNL     1       4.439  -0.560  -2.814  0.00  0.00    +0.031 A 
ATOM     25  C   UNL     1       5.785  -0.246  -2.841  0.00  0.00    +0.005 A 
ATOM     26  C   UNL     1       6.725  -1.204  -2.511  0.00  0.00    -0.050 A 
ATOM     27  C   UNL     1       6.320  -2.475  -2.148  0.00  0.00    +0.005 A 
ATOM     28  C   UNL     1       4.974  -2.788  -2.117  0.00  0.00    +0.031 A 
ATOM     29  C   UNL     1       8.193  -0.863  -2.545  0.00  0.00    +0.044 C 
ENDBRANCH  20  23
ENDBRANCH  19  20
ENDBRANCH   6  19
TORSDOF 6
