REMARK  Name = ZINC36557373
REMARK  19 active torsions:
REMARK  status: ('A' for Active; 'I' for Inactive)
REMARK    1  A    between atoms: C_1  and  C_2
REMARK    2  A    between atoms: C_2  and  C_3
REMARK    3  A    between atoms: C_3  and  C_4
REMARK    4  A    between atoms: C_4  and  C_5
REMARK    5  A    between atoms: C_5  and  C_6
REMARK    6  A    between atoms: C_7  and  C_8
REMARK    7  A    between atoms: N_10  and  C_11
REMARK    8  A    between atoms: N_10  and  C_18
REMARK    9  A    between atoms: C_11  and  C_12
REMARK   10  A    between atoms: C_15  and  C_17
REMARK   11  A    between atoms: C_18  and  C_20
REMARK   12  A    between atoms: C_18  and  C_29
REMARK   13  A    between atoms: C_21  and  O_28
REMARK   14  A    between atoms: C_23  and  O_27
REMARK   15  A    between atoms: C_25  and  O_26
REMARK   16  A    between atoms: N_31  and  C_32
REMARK   17  A    between atoms: C_32  and  C_33
REMARK   18  A    between atoms: C_32  and  C_34
REMARK   19  A    between atoms: C_32  and  C_35
REMARK                            x       y       z     vdW  Elec       q    Type
REMARK                         _______ _______ _______ _____ _____    ______ ____
ROOT
ATOM      1  C   UNL     1       1.373  -8.100  -4.708  0.00  0.00    +0.200 C 
ENDROOT
BRANCH   1   2
ATOM      2  C   UNL     1       0.781  -9.116  -3.766  0.00  0.00    +0.065 A 
ATOM      3  C   UNL     1      -0.502  -8.937  -3.270  0.00  0.00    +0.129 A 
ATOM      4  C   UNL     1      -1.047  -9.871  -2.403  0.00  0.00    +0.091 A 
ATOM      5  C   UNL     1      -0.310 -10.986  -2.032  0.00  0.00    +0.124 A 
ATOM      6  C   UNL     1       0.972 -11.166  -2.528  0.00  0.00    +0.091 A 
ATOM      7  C   UNL     1       1.516 -10.233  -3.399  0.00  0.00    +0.129 A 
BRANCH   7   8
ATOM      8  O   UNL     1       2.771 -10.412  -3.889  0.00  0.00    -0.506 OA
ATOM      9  H   UNL     1       3.466 -10.019  -3.343  0.00  0.00    +0.292 HD
ENDBRANCH   7   8
BRANCH   5  10
ATOM     10  O   UNL     1      -0.844 -11.901  -1.181  0.00  0.00    -0.507 OA
ATOM     11  H   UNL     1      -1.328 -12.613  -1.622  0.00  0.00    +0.292 HD
ENDBRANCH   5  10
BRANCH   3  12
ATOM     12  O   UNL     1      -1.224  -7.844  -3.634  0.00  0.00    -0.506 OA
ATOM     13  H   UNL     1      -1.822  -7.998  -4.378  0.00  0.00    +0.292 HD
ENDBRANCH   3  12
ENDBRANCH   1   2
BRANCH   1  14
ATOM     14  C   UNL     1       0.764  -8.269  -6.076  0.00  0.00    +0.239 C 
ATOM     15  O   UNL     1       0.469  -7.293  -6.733  0.00  0.00    -0.273 OA
ATOM     16  N   UNL     1       0.547  -9.504  -6.570  0.00  0.00    -0.309 N 
ATOM     17  H   UNL     1       0.721 -10.284  -6.019  0.00  0.00    +0.149 HD
BRANCH  16  18
ATOM     18  C   UNL     1       0.048  -9.669  -7.937  0.00  0.00    +0.026 C 
ATOM     19  C   UNL     1       1.053  -9.068  -8.922  0.00  0.00    +0.031 C 
ATOM     20  C   UNL     1      -0.133 -11.158  -8.238  0.00  0.00    +0.031 C 
ATOM     21  C   UNL     1      -1.296  -8.953  -8.080  0.00  0.00    +0.031 C 
ENDBRANCH  16  18
ENDBRANCH   1  14
BRANCH   1  24
ATOM     22  C   UNL     1       1.863  -6.216  -3.243  0.00  0.00    +0.240 C 
ATOM     23  O   UNL     1       2.790  -6.853  -2.782  0.00  0.00    -0.271 OA
ATOM     24  N   UNL     1       1.093  -6.751  -4.211  0.00  0.00    -0.275 N 
BRANCH  22  26
ATOM     25  C   UNL     1       2.341  -4.332  -1.789  0.00  0.00    -0.022 C 
ATOM     26  C   UNL     1       1.581  -4.861  -2.744  0.00  0.00    +0.063 C 
BRANCH  25  27
ATOM     27  C   UNL     1       2.052  -2.945  -1.278  0.00  0.00    +0.027 C 
BRANCH  27  28
ATOM     28  C   UNL     1       1.873  -2.987   0.241  0.00  0.00    +0.004 C 
BRANCH  28  29
ATOM     29  C   UNL     1       1.580  -1.578   0.760  0.00  0.00    +0.000 C 
BRANCH  29  31
ATOM     30  C   UNL     1       1.108  -0.212   2.798  0.00  0.00    +0.004 C 
ATOM     31  C   UNL     1       1.401  -1.621   2.279  0.00  0.00    -0.003 C 
ENDBRANCH  29  31
ENDBRANCH  28  29
ENDBRANCH  27  28
ENDBRANCH  25  27
ENDBRANCH  22  26
BRANCH  24  32
ATOM     32  C   UNL     1      -0.025  -5.984  -4.766  0.00  0.00    +0.183 C 
BRANCH  32  33
ATOM     33  C   UNL     1       0.507  -4.919  -5.691  0.00  0.00    +0.122 A 
ATOM     34  C   UNL     1       0.428  -4.933  -7.034  0.00  0.00    +0.046 A 
ATOM     35  C   UNL     1       1.050  -3.749  -7.493  0.00  0.00    +0.045 A 
ATOM     36  C   UNL     1       1.471  -3.083  -6.403  0.00  0.00    +0.102 A 
ATOM     37  O   UNL     1       1.135  -3.793  -5.314  0.00  0.00    -0.463 OA
ATOM     38  C   UNL     1       2.194  -1.760  -6.403  0.00  0.00    +0.086 C 
ENDBRANCH  32  33
ENDBRANCH  24  32
ENDBRANCH   1  24
TORSDOF 14
