REMARK  Name = ZINC21317468
REMARK  4 active torsions:
REMARK  status: ('A' for Active; 'I' for Inactive)
REMARK    1  A    between atoms: C_11  and  C_32
REMARK    2  A    between atoms: C_14  and  C_16
REMARK    3  A    between atoms: C_16  and  N_17
REMARK    4  A    between atoms: C_20  and  C_23
REMARK                            x       y       z     vdW  Elec       q    Type
REMARK                         _______ _______ _______ _____ _____    ______ ____
ROOT
ATOM      1  C   UNL     1      -8.709   6.485   1.933  0.00  0.00    +0.002 A 
ATOM      2  C   UNL     1      -8.405   5.860   0.737  0.00  0.00    +0.002 A 
ATOM      3  C   UNL     1      -7.994   4.539   0.726  0.00  0.00    +0.025 A 
ATOM      4  C   UNL     1      -7.886   3.840   1.917  0.00  0.00    +0.058 A 
ATOM      5  C   UNL     1      -8.169   4.485   3.116  0.00  0.00    +0.055 A 
ATOM      6  C   UNL     1      -8.594   5.803   3.114  0.00  0.00    +0.025 A 
ATOM      7  N   UNL     1      -8.008   3.782   4.316  0.00  0.00    -0.284 N 
ATOM      8  C   UNL     1      -8.538   2.548   4.466  0.00  0.00    +0.219 C 
ATOM      9  O   UNL     1      -8.326   1.921   5.483  0.00  0.00    -0.275 OA
ATOM     10  C   UNL     1      -9.391   1.945   3.382  0.00  0.00    +0.128 C 
ATOM     11  C   UNL     1      -8.512   1.476   2.220  0.00  0.00    +0.194 C 
ATOM     12  N   UNL     1      -7.503   2.493   1.921  0.00  0.00    -0.259 N 
ATOM     13  C   UNL     1      -6.228   2.140   1.660  0.00  0.00    +0.204 C 
ATOM     14  O   UNL     1      -5.908   0.970   1.672  0.00  0.00    -0.277 OA
ATOM     15  H   UNL     1      -7.446   4.234   5.147  0.00  0.00    +0.155 HD
ENDROOT
BRANCH  11  16
ATOM     16  C   UNL     1      -9.384   1.246   0.984  0.00  0.00    +0.409 C 
ATOM     17  F   UNL     1      -8.582   0.810  -0.077  0.00  0.00    -0.169 F 
ATOM     18  F   UNL     1     -10.349   0.275   1.269  0.00  0.00    -0.169 F 
ATOM     19  F   UNL     1     -10.016   2.442   0.629  0.00  0.00    -0.169 F 
ENDBRANCH  11  16
BRANCH  13  20
ATOM     20  C   UNL     1      -5.201   3.199   1.354  0.00  0.00    +0.019 C 
BRANCH  20  21
ATOM     21  N   UNL     1      -3.882   2.571   1.199  0.00  0.00    +0.385 N 
ATOM     22  C   UNL     1      -3.840   1.723   0.001  0.00  0.00    -0.077 C 
ATOM     23  C   UNL     1      -2.506   0.974  -0.049  0.00  0.00    -0.006 C 
ATOM     24  C   UNL     1      -1.358   1.987  -0.078  0.00  0.00    +0.072 C 
ATOM     25  C   UNL     1      -1.453   2.889   1.156  0.00  0.00    -0.006 C 
ATOM     26  C   UNL     1      -2.817   3.582   1.171  0.00  0.00    -0.077 C 
ATOM     27  H   UNL     1      -3.708   1.925   2.073  0.00  0.00    -0.081 HD
BRANCH  24  28
ATOM     28  C   UNL     1      -0.041   1.256  -0.067  0.00  0.00    +0.219 C 
ATOM     29  O   UNL     1      -0.017   0.051   0.068  0.00  0.00    -0.275 OA
ATOM     30  N   UNL     1       1.111   1.940  -0.213  0.00  0.00    -0.301 N 
ATOM     31  C   UNL     1       2.362   1.221  -0.116  0.00  0.00    +0.108 C 
ATOM     32  C   UNL     1       2.838   1.192   1.351  0.00  0.00    +0.019 C 
ATOM     33  C   UNL     1       3.292   2.527   1.767  0.00  0.00    +0.002 C 
ATOM     34  C   UNL     1       2.205   3.597   1.743  0.00  0.00    +0.002 C 
ATOM     35  C   UNL     1       2.097   4.170   0.351  0.00  0.00    +0.019 C 
ATOM     36  C   UNL     1       1.044   3.394  -0.460  0.00  0.00    +0.108 C 
ENDBRANCH  24  28
ENDBRANCH  20  21
ENDBRANCH  13  20
TORSDOF 4
