REMARK  Name = ZINC09835493
REMARK  10 active torsions:
REMARK  status: ('A' for Active; 'I' for Inactive)
REMARK    1  A    between atoms: C_1  and  C_2
REMARK    2  A    between atoms: C_2  and  O_3
REMARK    3  A    between atoms: O_3  and  C_4
REMARK    4  A    between atoms: C_9  and  N_62
REMARK    5  A    between atoms: C_12  and  C_13
REMARK    6  A    between atoms: C_12  and  N_62
REMARK    7  A    between atoms: C_15  and  O_27
REMARK    8  A    between atoms: N_19  and  C_20
REMARK    9  A    between atoms: C_25  and  C_26
REMARK   10  A    between atoms: O_27  and  C_28
REMARK                            x       y       z     vdW  Elec       q    Type
REMARK                         _______ _______ _______ _____ _____    ______ ____
ROOT
ATOM      1  C   UNL     1       4.777   4.280   0.748  0.00  0.00    +0.114 C 
ATOM      2  C   UNL     1       3.534   3.439   0.418  0.00  0.00    +0.278 C 
ATOM      3  C   UNL     1       3.704   3.912  -1.012  0.00  0.00    +0.263 C 
ATOM      4  O   UNL     1       3.100   3.715  -2.045  0.00  0.00    -0.271 OA
ATOM      5  N   UNL     1       4.800   4.643  -0.680  0.00  0.00    -0.263 N 
ENDROOT
BRANCH   5   6
ATOM      6  C   UNL     1       5.654   5.457  -1.433  0.00  0.00    +0.040 A 
ATOM      7  C   UNL     1       6.861   4.955  -1.902  0.00  0.00    +0.024 A 
ATOM      8  C   UNL     1       7.701   5.761  -2.644  0.00  0.00    +0.002 A 
ATOM      9  C   UNL     1       7.341   7.068  -2.921  0.00  0.00    +0.000 A 
ATOM     10  C   UNL     1       6.141   7.571  -2.455  0.00  0.00    +0.005 A 
ATOM     11  C   UNL     1       5.293   6.768  -1.717  0.00  0.00    -0.029 A 
ATOM     12  C   UNL     1       3.982   7.315  -1.216  0.00  0.00    +0.045 C 
ENDBRANCH   5   6
BRANCH   1  13
ATOM     13  C   UNL     1       4.492   5.461   1.678  0.00  0.00    -0.055 C 
BRANCH  13  14
ATOM     14  N   UNL     1       5.734   6.233   1.874  0.00  0.00    +0.382 N 
ATOM     15  H   UNL     1       6.477   5.603   2.198  0.00  0.00    -0.085 HD
ATOM     16  H   UNL     1       6.012   6.659   0.982  0.00  0.00    -0.085 HD
BRANCH  14  22
ATOM     17  C   UNL     1       6.443  11.123   4.048  0.00  0.00    +0.403 C 
ATOM     18  O   UNL     1       7.485  11.321   4.641  0.00  0.00    -0.226 OA
ATOM     19  N   UNL     1       5.946   9.874   3.958  0.00  0.00    -0.268 N 
ATOM     20  C   UNL     1       6.651   8.741   4.572  0.00  0.00    +0.109 C 
ATOM     21  C   UNL     1       6.869   7.660   3.509  0.00  0.00    +0.003 C 
ATOM     22  C   UNL     1       5.524   7.295   2.876  0.00  0.00    -0.069 C 
ATOM     23  C   UNL     1       4.927   8.528   2.196  0.00  0.00    +0.003 C 
ATOM     24  C   UNL     1       4.686   9.619   3.245  0.00  0.00    +0.109 C 
BRANCH  17  25
ATOM     25  O   UNL     1       5.786  12.152   3.480  0.00  0.00    -0.451 OA
BRANCH  25  27
ATOM     26  C   UNL     1       5.498  14.502   2.912  0.00  0.00    +0.048 C 
ATOM     27  C   UNL     1       6.380  13.470   3.616  0.00  0.00    +0.230 C 
ENDBRANCH  25  27
ENDBRANCH  17  25
ENDBRANCH  14  22
ENDBRANCH  13  14
ENDBRANCH   1  13
BRANCH   2  28
ATOM     28  O   UNL     1       3.730   2.034   0.585  0.00  0.00    -0.478 OA
BRANCH  28  29
ATOM     29  C   UNL     1       2.618   1.273   0.766  0.00  0.00    +0.122 A 
ATOM     30  C   UNL     1       2.741  -0.079   1.054  0.00  0.00    +0.047 A 
ATOM     31  C   UNL     1       1.610  -0.851   1.237  0.00  0.00    +0.023 A 
ATOM     32  C   UNL     1       0.355  -0.276   1.134  0.00  0.00    +0.041 A 
ATOM     33  C   UNL     1       0.231   1.071   0.847  0.00  0.00    +0.023 A 
ATOM     34  C   UNL     1       1.359   1.847   0.663  0.00  0.00    +0.047 A 
ATOM     35 CL   UNL     1      -1.065  -1.248   1.364  0.00  0.00    -0.084 Cl
ENDBRANCH  28  29
ENDBRANCH   2  28
TORSDOF 8
