REMARK  Name = ZINC12469599
REMARK  8 active torsions:
REMARK  status: ('A' for Active; 'I' for Inactive)
REMARK    1  A    between atoms: C_1  and  C_2
REMARK    2  A    between atoms: C_11  and  S_15
REMARK    3  A    between atoms: S_15  and  C_16
REMARK    4  A    between atoms: C_16  and  C_17
REMARK    5  A    between atoms: N_19  and  C_20
REMARK    6  A    between atoms: C_23  and  S_26
REMARK    7  A    between atoms: S_26  and  N_29
REMARK    8  A    between atoms: N_29  and  C_30
REMARK                            x       y       z     vdW  Elec       q    Type
REMARK                         _______ _______ _______ _____ _____    ______ ____
ROOT
ATOM      1  C   UNL     1      -1.172  -0.429   7.668  0.00  0.00    +0.227 C 
ATOM      2  O   UNL     1      -2.143  -0.352   6.945  0.00  0.00    -0.275 OA
ATOM      3  N   UNL     1      -1.324  -0.749   8.969  0.00  0.00    -0.285 N 
ATOM      4  H   UNL     1      -0.544  -0.877   9.531  0.00  0.00    +0.155 HD
ENDROOT
BRANCH   3   5
ATOM      5  C   UNL     1      -2.607  -0.897   9.507  0.00  0.00    +0.034 A 
ATOM      6  C   UNL     1      -2.859  -0.514  10.818  0.00  0.00    +0.025 A 
ATOM      7  C   UNL     1      -4.128  -0.656  11.345  0.00  0.00    +0.030 A 
ATOM      8  C   UNL     1      -5.143  -1.189  10.573  0.00  0.00    +0.105 A 
ATOM      9  C   UNL     1      -4.894  -1.577   9.269  0.00  0.00    +0.030 A 
ATOM     10  C   UNL     1      -3.629  -1.432   8.734  0.00  0.00    +0.025 A 
BRANCH   8  11
ATOM     11  S   UNL     1      -6.759  -1.376  11.252  0.00  0.00    +0.059 S 
ATOM     12  O   UNL     1      -6.865  -0.435  12.311  0.00  0.00    -0.153 OA
ATOM     13  O   UNL     1      -7.661  -1.392  10.154  0.00  0.00    -0.153 OA
BRANCH  11  14
ATOM     14  N   UNL     1      -6.828  -2.879  11.944  0.00  0.00    -0.187 NA
ATOM     15  H   UNL     1      -7.428  -3.551  11.584  0.00  0.00    +0.148 HD
BRANCH  14  16
ATOM     16  C   UNL     1      -5.984  -3.193  13.099  0.00  0.00    +0.077 C 
ATOM     17  C   UNL     1      -4.717  -3.943  12.639  0.00  0.00    +0.020 C 
ATOM     18  C   UNL     1      -4.460  -4.979  13.762  0.00  0.00    +0.002 C 
ATOM     19  C   UNL     1      -5.892  -5.429  14.145  0.00  0.00    +0.002 C 
ATOM     20  C   UNL     1      -6.731  -4.138  14.057  0.00  0.00    +0.020 C 
ENDBRANCH  14  16
ENDBRANCH  11  14
ENDBRANCH   8  11
ENDBRANCH   3   5
BRANCH   1  21
ATOM     21  C   UNL     1       0.204  -0.168   7.112  0.00  0.00    +0.171 C 
BRANCH  21  22
ATOM     22  S   UNL     1       0.078   0.233   5.352  0.00  0.00    -0.096 S 
BRANCH  22  32
ATOM     23  C   UNL     1      -0.760   1.614  -1.222  0.00  0.00    +0.008 C 
ATOM     24  C   UNL     1      -0.015   1.096   0.010  0.00  0.00    -0.009 C 
ATOM     25  C   UNL     1      -0.708   1.595   1.281  0.00  0.00    +0.008 C 
ATOM     26  C   UNL     1      -0.125   0.885   2.503  0.00  0.00    +0.037 C 
ATOM     27  C   UNL     1       1.395   1.033   2.483  0.00  0.00    -0.025 A 
ATOM     28  C   UNL     1       2.038   1.363   1.340  0.00  0.00    -0.004 A 
ATOM     29  S   UNL     1       3.759   1.424   1.774  0.00  0.00    -0.073 S 
ATOM     30  C   UNL     1       3.616   1.008   3.482  0.00  0.00    +0.113 A 
ATOM     31  C   UNL     1       2.220   0.834   3.663  0.00  0.00    +0.043 A 
ATOM     32  C   UNL     1       1.780   0.484   4.972  0.00  0.00    +0.109 A 
ATOM     33  N   UNL     1       2.737   0.359   5.892  0.00  0.00    -0.229 NA
ATOM     34  C   UNL     1       4.019   0.537   5.648  0.00  0.00    +0.223 A 
ATOM     35  N   UNL     1       4.495   0.864   4.453  0.00  0.00    -0.228 NA
ATOM     36  C   UNL     1       1.427   1.621  -0.003  0.00  0.00    +0.046 C 
ENDBRANCH  22  32
ENDBRANCH  21  22
ENDBRANCH   1  21
TORSDOF 7
