REMARK  Name = ZINC33265466
REMARK  9 active torsions:
REMARK  status: ('A' for Active; 'I' for Inactive)
REMARK    1  A    between atoms: C_1  and  C_2
REMARK    2  A    between atoms: C_2  and  O_3
REMARK    3  A    between atoms: O_3  and  C_4
REMARK    4  A    between atoms: C_7  and  C_10
REMARK    5  A    between atoms: N_30  and  C_31
REMARK    6  A    between atoms: C_31  and  C_32
REMARK    7  A    between atoms: C_32  and  C_33
REMARK    8  A    between atoms: C_33  and  O_35
REMARK    9  A    between atoms: O_35  and  C_36
REMARK                            x       y       z     vdW  Elec       q    Type
REMARK                         _______ _______ _______ _____ _____    ______ ____
ROOT
ATOM      1  C   UNL     1      -4.235   1.549  -4.557  0.00  0.00    +0.155 C 
ATOM      2  C   UNL     1      -3.205   2.448  -5.174  0.00  0.00    +0.049 A 
ATOM      3  C   UNL     1      -3.196   3.033  -6.380  0.00  0.00    +0.025 A 
ATOM      4  C   UNL     1      -1.973   3.728  -6.504  0.00  0.00    +0.020 A 
ATOM      5  C   UNL     1      -1.286   3.552  -5.352  0.00  0.00    +0.092 A 
ATOM      6  N   UNL     1      -2.046   2.802  -4.521  0.00  0.00    -0.312 N 
ATOM      7  C   UNL     1      -1.849   2.401  -3.206  0.00  0.00    +0.090 A 
ATOM      8  C   UNL     1      -2.801   2.471  -2.238  0.00  0.00    +0.005 A 
ATOM      9  C   UNL     1      -2.447   1.989  -0.961  0.00  0.00    -0.030 A 
ATOM     10  C   UNL     1      -1.184   1.518  -0.792  0.00  0.00    -0.005 A 
ATOM     11  S   UNL     1      -0.443   1.703  -2.395  0.00  0.00    -0.075 S 
ATOM     12  C   UNL     1      -0.573   0.970   0.456  0.00  0.00    +0.043 C 
ATOM     13  C   UNL     1      -1.476   1.345   1.641  0.00  0.00    +0.005 C 
ATOM     14  C   UNL     1      -2.927   1.015   1.274  0.00  0.00    +0.005 C 
ATOM     15  C   UNL     1      -3.431   1.987   0.206  0.00  0.00    +0.036 C 
ATOM     16  C   UNL     1      -4.157   3.065  -2.548  0.00  0.00    +0.148 C 
ATOM     17  N   UNL     1      -4.958   2.216  -3.447  0.00  0.00    -0.269 N 
ATOM     18  C   UNL     1      -6.284   2.054  -3.270  0.00  0.00    +0.303 C 
ATOM     19  O   UNL     1      -6.917   1.347  -4.029  0.00  0.00    -0.253 OA
ATOM     20  N   UNL     1      -6.909   2.676  -2.250  0.00  0.00    -0.299 N 
ATOM     21  H   UNL     1      -6.336   3.317  -1.563  0.00  0.00    +0.150 HD
ENDROOT
BRANCH   1  25
ATOM     22  C   UNL     1      -2.303  -1.953  -3.052  0.00  0.00    +0.121 A 
ATOM     23  C   UNL     1      -3.378  -1.404  -2.368  0.00  0.00    +0.046 A 
ATOM     24  C   UNL     1      -4.001  -0.272  -2.856  0.00  0.00    +0.009 A 
ATOM     25  C   UNL     1      -3.554   0.314  -4.026  0.00  0.00    -0.021 A 
ATOM     26  C   UNL     1      -2.487  -0.234  -4.713  0.00  0.00    +0.009 A 
ATOM     27  C   UNL     1      -1.857  -1.363  -4.226  0.00  0.00    +0.046 A 
BRANCH  22  28
ATOM     28  O   UNL     1      -1.689  -3.067  -2.573  0.00  0.00    -0.492 OA
BRANCH  28  30
ATOM     29  C   UNL     1      -0.030  -4.823  -2.640  0.00  0.00    +0.048 C 
ATOM     30  C   UNL     1      -0.589  -3.577  -3.330  0.00  0.00    +0.225 C 
ENDBRANCH  28  30
ENDBRANCH  22  28
ENDBRANCH   1  25
BRANCH  20  31
ATOM     31  C   UNL     1      -8.351   2.500  -2.057  0.00  0.00    +0.117 C 
BRANCH  31  32
ATOM     32  C   UNL     1      -8.805   3.308  -0.840  0.00  0.00    +0.139 C 
BRANCH  32  33
ATOM     33  C   UNL     1     -10.288   3.127  -0.642  0.00  0.00    +0.308 C 
ATOM     34  O   UNL     1     -10.917   2.424  -1.397  0.00  0.00    -0.251 OA
BRANCH  33  35
ATOM     35  O   UNL     1     -10.910   3.746   0.373  0.00  0.00    -0.468 OA
ATOM     36  C   UNL     1     -12.339   3.526   0.504  0.00  0.00    +0.280 C 
ENDBRANCH  33  35
ENDBRANCH  32  33
ENDBRANCH  31  32
ENDBRANCH  20  31
TORSDOF 7
