REMARK  Name = ZINC23561340
REMARK  5 active torsions:
REMARK  status: ('A' for Active; 'I' for Inactive)
REMARK    1  A    between atoms: C_1  and  C_2
REMARK    2  A    between atoms: C_7  and  C_13
REMARK    3  A    between atoms: C_13  and  S_14
REMARK    4  A    between atoms: S_14  and  C_15
REMARK    5  A    between atoms: C_17  and  C_24
REMARK                            x       y       z     vdW  Elec       q    Type
REMARK                         _______ _______ _______ _____ _____    ______ ____
ROOT
ATOM      1  C   UNL     1       3.106   3.588  -2.134  0.00  0.00    +0.109 A 
ATOM      2  C   UNL     1       3.921   3.167  -1.048  0.00  0.00    +0.047 A 
ATOM      3  C   UNL     1       3.659   2.163  -0.023  0.00  0.00    +0.001 A 
ATOM      4  C   UNL     1       4.601   1.938   0.924  0.00  0.00    +0.056 A 
ATOM      5  S   UNL     1       5.910   3.064   0.483  0.00  0.00    -0.076 S 
ATOM      6  C   UNL     1       5.170   3.812  -0.944  0.00  0.00    +0.113 A 
ATOM      7  N   UNL     1       5.538   4.742  -1.804  0.00  0.00    -0.228 NA
ATOM      8  C   UNL     1       4.737   5.091  -2.793  0.00  0.00    +0.223 A 
ATOM      9  N   UNL     1       3.553   4.529  -2.951  0.00  0.00    -0.229 NA
ENDROOT
BRANCH   3  10
ATOM     10  C   UNL     1       2.384   1.407  -0.014  0.00  0.00    -0.017 A 
ATOM     11  C   UNL     1       2.018   0.639  -1.118  0.00  0.00    +0.008 A 
ATOM     12  C   UNL     1       0.830  -0.063  -1.103  0.00  0.00    +0.001 A 
ATOM     13  C   UNL     1       0.003  -0.005   0.004  0.00  0.00    +0.000 A 
ATOM     14  C   UNL     1       0.360   0.756   1.102  0.00  0.00    +0.001 A 
ATOM     15  C   UNL     1       1.546   1.462   1.100  0.00  0.00    +0.008 A 
ENDBRANCH   3  10
BRANCH   1  16
ATOM     16  S   UNL     1       1.518   2.867  -2.389  0.00  0.00    -0.099 S 
BRANCH  16  17
ATOM     17  C   UNL     1       0.992   3.778  -3.861  0.00  0.00    +0.131 C 
BRANCH  17  24
ATOM     18  C   UNL     1      -5.570   0.322  -6.451  0.00  0.00    +0.045 C 
ATOM     19  C   UNL     1      -4.207   0.806  -6.028  0.00  0.00    -0.034 A 
ATOM     20  C   UNL     1      -3.077   0.011  -6.268  0.00  0.00    +0.008 A 
ATOM     21  C   UNL     1      -1.848   0.456  -5.882  0.00  0.00    +0.047 A 
ATOM     22  C   UNL     1      -1.732   1.707  -5.250  0.00  0.00    +0.141 A 
ATOM     23  N   UNL     1      -0.532   2.143  -4.873  0.00  0.00    -0.233 NA
ATOM     24  C   UNL     1      -0.381   3.315  -4.275  0.00  0.00    +0.059 A 
ATOM     25  C   UNL     1      -1.483   4.110  -4.024  0.00  0.00    +0.094 A 
ATOM     26  C   UNL     1      -2.747   3.660  -4.422  0.00  0.00    +0.259 A 
ATOM     27  O   UNL     1      -3.740   4.342  -4.220  0.00  0.00    -0.267 OA
ATOM     28  N   UNL     1      -2.853   2.459  -5.029  0.00  0.00    -0.268 N 
ATOM     29  C   UNL     1      -4.076   2.005  -5.418  0.00  0.00    +0.099 A 
ENDBRANCH  17  24
ENDBRANCH  16  17
ENDBRANCH   1  16
TORSDOF 4
