REMARK  Name = ZINC49338716
REMARK  5 active torsions:
REMARK  status: ('A' for Active; 'I' for Inactive)
REMARK    1  A    between atoms: C_1  and  C_2
REMARK    2  A    between atoms: C_4  and  N_9
REMARK    3  A    between atoms: N_9  and  N_10
REMARK    4  A    between atoms: C_11  and  N_13
REMARK    5  A    between atoms: C_18  and  C_20
REMARK                            x       y       z     vdW  Elec       q    Type
REMARK                         _______ _______ _______ _____ _____    ______ ____
ROOT
ATOM      1  N   UNL     1       0.048  -4.171  -2.423  0.00  0.00    -0.219 N 
ATOM      2  C   UNL     1       0.051  -4.840  -3.593  0.00  0.00    +0.342 C 
ATOM      3  O   UNL     1       0.068  -6.059  -3.598  0.00  0.00    -0.249 OA
ATOM      4  H   UNL     1       0.059  -4.659  -1.585  0.00  0.00    +0.174 HD
ENDROOT
BRANCH   2   5
ATOM      5  N   UNL     1       0.036  -4.168  -4.747  0.00  0.00    -0.138 NA
ATOM      6  C   UNL     1       0.039  -4.829  -5.903  0.00  0.00    +0.165 A 
ATOM      7  N   UNL     1       0.051  -6.176  -6.107  0.00  0.00    -0.342 N 
ATOM      8  H   UNL     1       0.058  -6.789  -5.356  0.00  0.00    +0.167 HD
ATOM      9  C   UNL     1       0.052  -6.644  -7.385  0.00  0.00    +0.095 A 
ATOM     10  C   UNL     1       0.041  -5.740  -8.370  0.00  0.00    +0.006 A 
ATOM     11  S   UNL     1       0.021  -4.205  -7.464  0.00  0.00    -0.058 S 
ATOM     12  C   UNL     1       0.039  -5.962  -9.860  0.00  0.00    +0.053 C 
ENDBRANCH   2   5
BRANCH   1  13
ATOM     13  N   UNL     1       0.028  -2.770  -2.418  0.00  0.00    -0.263 N 
ATOM     14  H   UNL     1       0.017  -2.282  -3.256  0.00  0.00    +0.170 HD
BRANCH  13  18
ATOM     15  C   UNL     1      -0.018   1.503   0.010  0.00  0.00    +0.045 C 
ATOM     16  C   UNL     1       0.002  -0.004   0.002  0.00  0.00    -0.035 A 
ATOM     17  C   UNL     1       0.006  -0.687  -1.198  0.00  0.00    +0.029 A 
ATOM     18  C   UNL     1       0.025  -2.076  -1.205  0.00  0.00    +0.045 A 
ATOM     19  C   UNL     1       0.041  -2.774  -0.004  0.00  0.00    +0.025 A 
ATOM     20  C   UNL     1       0.037  -2.085   1.193  0.00  0.00    +0.017 A 
ATOM     21  C   UNL     1       0.023  -0.701   1.197  0.00  0.00    +0.021 A 
ATOM     22 BR   UNL     1       0.025   0.238   2.838  0.00  0.00    -0.050 Br
ENDBRANCH  13  18
ENDBRANCH   1  13
TORSDOF 3
