REMARK  Name = ZINC65364282
REMARK  4 active torsions:
REMARK  status: ('A' for Active; 'I' for Inactive)
REMARK    1  A    between atoms: C_1  and  C_2
REMARK    2  A    between atoms: C_2  and  C_3
REMARK    3  A    between atoms: C_10  and  N_20
REMARK    4  A    between atoms: C_11  and  C_18
REMARK                            x       y       z     vdW  Elec       q    Type
REMARK                         _______ _______ _______ _____ _____    ______ ____
ROOT
ATOM      1  C   UNL     1      -1.364  -0.639  -0.001  0.00  0.00    +0.044 A 
ATOM      2  C   UNL     1      -2.095  -0.940  -1.085  0.00  0.00    +0.048 A 
ATOM      3  C   UNL     1      -3.307  -1.522  -0.649  0.00  0.00    +0.245 A 
ATOM      4  N   UNL     1      -3.290  -1.560   0.651  0.00  0.00    -0.135 NA
ATOM      5  N   UNL     1      -2.073  -1.015   1.089  0.00  0.00    -0.278 N 
ATOM      6  H   UNL     1      -1.790  -0.922   2.012  0.00  0.00    +0.189 HD
ATOM      7  O   UNL     1      -4.261  -1.939  -1.524  0.00  0.00    -0.422 OA
ATOM      8  C   UNL     1      -3.915  -2.034  -2.823  0.00  0.00    +0.200 C 
ATOM      9  C   UNL     1      -2.791  -1.509  -3.356  0.00  0.00    +0.097 C 
ATOM     10  C   UNL     1      -1.781  -0.739  -2.544  0.00  0.00    +0.042 C 
ATOM     11  C   UNL     1      -1.868   0.748  -2.889  0.00  0.00    +0.017 C 
ATOM     12  C   UNL     1      -1.555   0.947  -4.374  0.00  0.00    +0.001 C 
ATOM     13  C   UNL     1      -0.145   0.433  -4.671  0.00  0.00    +0.000 C 
ATOM     14  C   UNL     1      -0.063  -1.056  -4.330  0.00  0.00    +0.001 C 
ATOM     15  C   UNL     1      -0.375  -1.257  -2.845  0.00  0.00    +0.017 C 
ENDROOT
BRANCH   8  16
ATOM     16  N   UNL     1      -4.763  -2.711  -3.663  0.00  0.00    -0.328 N 
ATOM     17  H   UNL     1      -5.580  -3.102  -3.315  0.00  0.00    +0.145 HD
ATOM     18  H   UNL     1      -4.546  -2.799  -4.604  0.00  0.00    +0.145 HD
ENDBRANCH   8  16
BRANCH   1  20
ATOM     19  C   UNL     1       0.421   0.298   1.442  0.00  0.00    +0.010 C 
ATOM     20  C   UNL     1       0.002  -0.004   0.002  0.00  0.00    +0.052 C 
ENDBRANCH   1  20
BRANCH   9  21
ATOM     21  C   UNL     1      -2.547  -1.691  -4.755  0.00  0.00    +0.101 C 
ATOM     22  N   UNL     1      -2.354  -1.836  -5.865  0.00  0.00    -0.191 NA
ENDBRANCH   9  21
TORSDOF 3
