REMARK  Name = ZINC00876196
REMARK  8 active torsions:
REMARK  status: ('A' for Active; 'I' for Inactive)
REMARK    1  A    between atoms: C_10  and  N_11
REMARK    2  A    between atoms: C_12  and  C_14
REMARK    3  A    between atoms: C_14  and  S_15
REMARK    4  A    between atoms: S_15  and  C_16
REMARK    5  A    between atoms: C_19  and  C_28
REMARK    6  A    between atoms: N_20  and  C_21
REMARK    7  A    between atoms: C_21  and  C_22
REMARK    8  A    between atoms: C_31  and  N_34
REMARK                            x       y       z     vdW  Elec       q    Type
REMARK                         _______ _______ _______ _____ _____    ______ ____
ROOT
ATOM      1  C   UNL     1       5.736  -1.379   0.218  0.00  0.00    +0.192 A 
ATOM      2  N   UNL     1       4.842  -2.289  -0.098  0.00  0.00    -0.122 NA
ATOM      3  N   UNL     1       3.686  -1.744  -0.234  0.00  0.00    -0.128 NA
ATOM      4  C   UNL     1       3.771  -0.452  -0.014  0.00  0.00    +0.165 A 
ATOM      5  N   UNL     1       5.088  -0.178   0.278  0.00  0.00    -0.300 N 
ENDROOT
BRANCH   4   6
ATOM      6  C   UNL     1       2.663   0.524  -0.074  0.00  0.00    +0.019 A 
ATOM      7  C   UNL     1       2.802   1.780   0.517  0.00  0.00    +0.014 A 
ATOM      8  C   UNL     1       1.764   2.687   0.457  0.00  0.00    +0.033 A 
ATOM      9  C   UNL     1       0.587   2.353  -0.189  0.00  0.00    +0.126 A 
ATOM     10  C   UNL     1       0.442   1.110  -0.777  0.00  0.00    +0.033 A 
ATOM     11  C   UNL     1       1.472   0.194  -0.724  0.00  0.00    +0.014 A 
BRANCH   9  12
ATOM     12  N   UNL     1      -0.525   3.329  -0.244  0.00  0.00    +0.056 N 
ATOM     13  O   UNL     1      -0.402   4.423   0.277  0.00  0.00    -0.126 OA
ATOM     14  O   UNL     1      -1.563   3.039  -0.812  0.00  0.00    -0.126 OA
ENDBRANCH   9  12
ENDBRANCH   4   6
BRANCH   1  15
ATOM     15  S   UNL     1       7.452  -1.655   0.505  0.00  0.00    -0.077 S 
BRANCH  15  16
ATOM     16  C   UNL     1       7.532  -3.443   0.238  0.00  0.00    +0.173 C 
BRANCH  16  18
ATOM     17  N   UNL     1       9.249  -5.223   0.287  0.00  0.00    -0.284 N 
ATOM     18  C   UNL     1       8.949  -3.918   0.435  0.00  0.00    +0.228 C 
ATOM     19  O   UNL     1       9.819  -3.125   0.728  0.00  0.00    -0.275 OA
ATOM     20  H   UNL     1       8.569  -5.846  -0.015  0.00  0.00    +0.155 HD
BRANCH  17  30
ATOM     21  C   UNL     1      12.235  -8.820  -1.617  0.00  0.00    +0.001 A 
ATOM     22  C   UNL     1      10.946  -8.380  -1.912  0.00  0.00    +0.001 A 
ATOM     23  C   UNL     1      10.376  -7.360  -1.213  0.00  0.00    +0.010 A 
ATOM     24  C   UNL     1      11.096  -6.739  -0.180  0.00  0.00    +0.003 A 
ATOM     25  C   UNL     1      12.406  -7.186   0.121  0.00  0.00    -0.016 A 
ATOM     26  C   UNL     1      12.961  -8.242  -0.622  0.00  0.00    +0.008 A 
ATOM     27  C   UNL     1      13.127  -6.566   1.156  0.00  0.00    +0.008 A 
ATOM     28  C   UNL     1      12.564  -5.545   1.860  0.00  0.00    +0.002 A 
ATOM     29  C   UNL     1      11.280  -5.094   1.570  0.00  0.00    +0.024 A 
ATOM     30  C   UNL     1      10.538  -5.679   0.566  0.00  0.00    +0.041 A 
ENDBRANCH  17  30
ENDBRANCH  16  18
ENDBRANCH  15  16
ENDBRANCH   1  15
BRANCH   5  31
ATOM     31  C   UNL     1       5.671   1.129   0.589  0.00  0.00    +0.157 C 
BRANCH  31  32
ATOM     32  C   UNL     1       5.605   1.371   2.099  0.00  0.00    +0.138 C 
ATOM     33  C   UNL     1       6.112   2.792   2.424  0.00  0.00    +0.035 C 
ATOM     34  C   UNL     1       6.917   2.563   3.732  0.00  0.00    +0.031 C 
ATOM     35  C   UNL     1       7.493   1.147   3.479  0.00  0.00    +0.160 C 
ATOM     36  O   UNL     1       6.457   0.441   2.777  0.00  0.00    -0.375 OA
ENDBRANCH  31  32
ENDBRANCH   5  31
TORSDOF 8
