REMARK  Name = ZINC18119143
REMARK  9 active torsions:
REMARK  status: ('A' for Active; 'I' for Inactive)
REMARK    1  A    between atoms: C_1  and  C_2
REMARK    2  A    between atoms: C_2  and  C_3
REMARK    3  A    between atoms: C_3  and  C_4
REMARK    4  A    between atoms: C_4  and  N_5
REMARK    5  A    between atoms: C_6  and  N_33
REMARK    6  A    between atoms: C_7  and  N_14
REMARK    7  A    between atoms: N_14  and  C_15
REMARK    8  A    between atoms: C_15  and  C_16
REMARK    9  A    between atoms: C_22  and  C_24
REMARK                            x       y       z     vdW  Elec       q    Type
REMARK                         _______ _______ _______ _____ _____    ______ ____
ROOT
ATOM      1  N   UNL     1      -0.223  -3.095  -2.466  0.00  0.00    -0.255 N 
ATOM      2  C   UNL     1      -0.170  -3.063  -3.812  0.00  0.00    +0.258 C 
ATOM      3  O   UNL     1      -0.076  -1.998  -4.393  0.00  0.00    -0.269 OA
ENDROOT
BRANCH   1   6
ATOM      4  N   UNL     1       0.813  -0.255  -0.378  0.00  0.00    -0.280 N 
ATOM      5  C   UNL     1       0.876  -1.430  -1.090  0.00  0.00    +0.127 A 
ATOM      6  C   UNL     1      -0.255  -1.890  -1.733  0.00  0.00    +0.140 A 
ATOM      7  C   UNL     1      -1.439  -1.134  -1.649  0.00  0.00    +0.277 A 
ATOM      8  O   UNL     1      -2.452  -1.515  -2.211  0.00  0.00    -0.266 OA
ATOM      9  N   UNL     1      -1.446   0.014  -0.943  0.00  0.00    -0.273 N 
ATOM     10  H   UNL     1      -2.287   0.552  -0.883  0.00  0.00    +0.173 HD
ATOM     11  C   UNL     1      -0.335   0.444  -0.319  0.00  0.00    +0.331 A 
ATOM     12  O   UNL     1      -0.369   1.483   0.312  0.00  0.00    -0.246 OA
BRANCH   5  13
ATOM     13  N   UNL     1       2.051  -2.141  -1.155  0.00  0.00    -0.343 N 
ATOM     14  H   UNL     1       2.800  -1.894  -0.590  0.00  0.00    +0.144 HD
ATOM     15  H   UNL     1       2.132  -2.889  -1.768  0.00  0.00    +0.144 HD
ENDBRANCH   5  13
BRANCH   4  16
ATOM     16  C   UNL     1       2.005   0.242   0.315  0.00  0.00    +0.128 C 
BRANCH  16  17
ATOM     17  C   UNL     1       2.036  -0.315   1.739  0.00  0.00    +0.021 C 
BRANCH  17  19
ATOM     18  C   UNL     1       3.312  -0.354   3.887  0.00  0.00    +0.004 C 
ATOM     19  C   UNL     1       3.280   0.204   2.462  0.00  0.00    -0.002 C 
ENDBRANCH  17  19
ENDBRANCH  16  17
ENDBRANCH   4  16
ENDBRANCH   1   6
BRANCH   2  20
ATOM     20  C   UNL     1      -0.224  -4.316  -4.579  0.00  0.00    +0.076 A 
ATOM     21  C   UNL     1      -0.345  -4.482  -5.923  0.00  0.00    +0.029 A 
ATOM     22  C   UNL     1      -0.374  -5.777  -6.471  0.00  0.00    -0.010 A 
ATOM     23  C   UNL     1      -0.489  -6.152  -7.834  0.00  0.00    +0.009 A 
ATOM     24  C   UNL     1      -0.508  -7.461  -8.196  0.00  0.00    +0.001 A 
ATOM     25  C   UNL     1      -0.416  -8.478  -7.254  0.00  0.00    +0.001 A 
ATOM     26  C   UNL     1      -0.303  -8.158  -5.916  0.00  0.00    +0.015 A 
ATOM     27  C   UNL     1      -0.283  -6.834  -5.534  0.00  0.00    +0.020 A 
ATOM     28  S   UNL     1      -0.156  -5.994  -3.975  0.00  0.00    -0.084 S 
ENDBRANCH   2  20
BRANCH   1  29
ATOM     29  C   UNL     1      -0.249  -4.380  -1.764  0.00  0.00    +0.149 C 
BRANCH  29  30
ATOM     30  C   UNL     1      -1.673  -4.737  -1.421  0.00  0.00    -0.030 A 
ATOM     31  C   UNL     1      -2.163  -4.481  -0.154  0.00  0.00    +0.005 A 
ATOM     32  C   UNL     1      -3.471  -4.804   0.159  0.00  0.00    +0.000 A 
ATOM     33  C   UNL     1      -4.284  -5.391  -0.792  0.00  0.00    +0.000 A 
ATOM     34  C   UNL     1      -3.792  -5.652  -2.057  0.00  0.00    +0.000 A 
ATOM     35  C   UNL     1      -2.486  -5.325  -2.371  0.00  0.00    +0.005 A 
ENDBRANCH  29  30
ENDBRANCH   1  29
TORSDOF 8
