REMARK  Name = ZINC45896263
REMARK  4 active torsions:
REMARK  status: ('A' for Active; 'I' for Inactive)
REMARK    1  A    between atoms: C_1  and  N_2
REMARK    2  A    between atoms: C_11  and  O_12
REMARK    3  A    between atoms: C_13  and  N_14
REMARK    4  A    between atoms: N_17  and  C_18
REMARK                            x       y       z     vdW  Elec       q    Type
REMARK                         _______ _______ _______ _____ _____    ______ ____
ROOT
ATOM      1  N   UNL     1      -2.452   1.389   0.048  0.00  0.00    -0.262 N 
ATOM      2  C   UNL     1      -3.640   2.014   0.162  0.00  0.00    +0.308 C 
ATOM      3  O   UNL     1      -4.662   1.363   0.266  0.00  0.00    -0.252 OA
ATOM      4  N   UNL     1      -3.696   3.361   0.161  0.00  0.00    -0.269 N 
ATOM      5  H   UNL     1      -1.644   1.905  -0.099  0.00  0.00    +0.157 HD
ATOM      6  H   UNL     1      -2.892   3.879   0.002  0.00  0.00    +0.156 HD
ENDROOT
BRANCH   1  18
ATOM      7  C   UNL     1      -0.803   1.550   1.830  0.00  0.00    +0.139 C 
ATOM      8  N   UNL     1      -0.749   0.087   1.887  0.00  0.00    -0.385 N 
ATOM      9  C   UNL     1      -1.508  -0.631   1.086  0.00  0.00    +0.074 A 
ATOM     10  C   UNL     1      -1.495  -2.111   1.133  0.00  0.00    +0.042 A 
ATOM     11  C   UNL     1      -0.679  -2.799   2.025  0.00  0.00    +0.013 A 
ATOM     12  C   UNL     1      -0.695  -4.178   2.037  0.00  0.00    +0.001 A 
ATOM     13  C   UNL     1      -1.519  -4.874   1.166  0.00  0.00    +0.004 A 
ATOM     14  C   UNL     1      -2.331  -4.201   0.278  0.00  0.00    +0.047 A 
ATOM     15  C   UNL     1      -2.329  -2.813   0.251  0.00  0.00    +0.141 A 
ATOM     16  O   UNL     1      -3.117  -2.135  -0.611  0.00  0.00    -0.424 OA
ATOM     17  C   UNL     1      -3.142  -0.794  -0.665  0.00  0.00    +0.309 A 
ATOM     18  C   UNL     1      -2.382  -0.016   0.143  0.00  0.00    +0.140 A 
ATOM     19  H   UNL     1      -0.154  -0.352   2.514  0.00  0.00    +0.159 HD
BRANCH  17  20
ATOM     20  O   UNL     1      -3.962  -0.196  -1.559  0.00  0.00    -0.479 OA
ATOM     21  H   UNL     1      -4.476  -0.814  -2.097  0.00  0.00    +0.295 HD
ENDBRANCH  17  20
ENDBRANCH   1  18
BRANCH   4  22
ATOM     22  C   UNL     1      -4.916   4.011   0.390  0.00  0.00    +0.038 A 
ATOM     23  C   UNL     1      -5.840   3.465   1.270  0.00  0.00    +0.027 A 
ATOM     24  C   UNL     1      -7.043   4.105   1.496  0.00  0.00    +0.051 A 
ATOM     25  C   UNL     1      -7.332   5.295   0.845  0.00  0.00    +0.162 A 
ATOM     26  C   UNL     1      -6.407   5.846  -0.035  0.00  0.00    +0.164 A 
ATOM     27  C   UNL     1      -5.199   5.205  -0.258  0.00  0.00    +0.072 A 
ATOM     28  O   UNL     1      -6.669   7.017  -0.678  0.00  0.00    -0.485 OA
ATOM     29  C   UNL     1      -8.037   7.441  -0.712  0.00  0.00    +0.270 C 
ATOM     30  C   UNL     1      -8.623   7.288   0.698  0.00  0.00    +0.270 C 
ATOM     31  O   UNL     1      -8.524   5.910   1.077  0.00  0.00    -0.485 OA
ENDBRANCH   4  22
TORSDOF 3
