REMARK  Name = ZINC35161150
REMARK  7 active torsions:
REMARK  status: ('A' for Active; 'I' for Inactive)
REMARK    1  A    between atoms: C_1  and  O_2
REMARK    2  A    between atoms: O_2  and  C_3
REMARK    3  A    between atoms: C_3  and  CA_5
REMARK    4  A    between atoms: CA_5  and  C_7
REMARK    5  A    between atoms: CA_5  and  N_9
REMARK    6  A    between atoms: C_7  and  O_8
REMARK    7  A    between atoms: C_10  and  C_12
REMARK                            x       y       z     vdW  Elec       q    Type
REMARK                         _______ _______ _______ _____ _____    ______ ____
ROOT
ATOM      1  N   UNL     1       1.398  -2.528   2.296  0.00  0.00    -0.297 N 
ATOM      2  C   UNL     1       2.015  -3.725   2.337  0.00  0.00    +0.246 C 
ATOM      3  O   UNL     1       1.975  -4.463   1.372  0.00  0.00    -0.270 OA
ATOM      4  H   UNL     1       1.431  -1.939   3.066  0.00  0.00    +0.150 HD
ENDROOT
BRANCH   2   5
ATOM      5  C   UNL     1       2.741  -4.141   3.555  0.00  0.00    +0.051 A 
ATOM      6  C   UNL     1       2.785  -3.299   4.668  0.00  0.00    +0.029 A 
ATOM      7  C   UNL     1       3.464  -3.693   5.802  0.00  0.00    +0.019 A 
ATOM      8  C   UNL     1       4.102  -4.922   5.839  0.00  0.00    +0.016 A 
ATOM      9  C   UNL     1       4.062  -5.762   4.741  0.00  0.00    +0.016 A 
ATOM     10  C   UNL     1       3.382  -5.381   3.601  0.00  0.00    +0.026 A 
ATOM     11  I   UNL     1       3.316  -6.658   1.942  0.00  0.00    -0.043 I 
ATOM     12 BR   UNL     1       3.525  -2.554   7.310  0.00  0.00    -0.050 Br
ENDBRANCH   2   5
BRANCH   1  13
ATOM     13  CA  UNL     1       0.679  -2.115   1.088  0.00  0.00    +0.208 C 
BRANCH  13  14
ATOM     14  C   UNL     1       0.618  -0.611   1.029  0.00  0.00    +0.330 C 
ATOM     15  O   UNL     1       1.124   0.049   1.905  0.00  0.00    -0.249 OA
BRANCH  14  17
ATOM     16  C   UNL     1      -0.017   1.425   0.010  0.00  0.00    +0.280 C 
ATOM     17  O   UNL     1       0.002  -0.004   0.002  0.00  0.00    -0.467 OA
ENDBRANCH  14  17
ENDBRANCH  13  14
BRANCH  13  18
ATOM     18  C   UNL     1      -0.742  -2.682   1.123  0.00  0.00    +0.189 C 
BRANCH  18  19
ATOM     19  O   UNL     1      -1.462  -2.097   2.210  0.00  0.00    -0.393 OA
ATOM     20  H   UNL     1      -2.373  -2.411   2.293  0.00  0.00    +0.209 HD
ENDBRANCH  18  19
ENDBRANCH  13  18
ENDBRANCH   1  13
TORSDOF 6
