REMARK  Name = ZINC35039142
REMARK  8 active torsions:
REMARK  status: ('A' for Active; 'I' for Inactive)
REMARK    1  A    between atoms: C_1  and  C_2
REMARK    2  A    between atoms: C_2  and  C_3
REMARK    3  A    between atoms: C_3  and  C_4
REMARK    4  A    between atoms: C_4  and  N_5
REMARK    5  A    between atoms: N_11  and  C_14
REMARK    6  A    between atoms: C_14  and  C_16
REMARK    7  A    between atoms: C_14  and  C_17
REMARK    8  A    between atoms: N_27  and  C_28
REMARK                            x       y       z     vdW  Elec       q    Type
REMARK                         _______ _______ _______ _____ _____    ______ ____
ROOT
ATOM      1  C   UNL     1      -9.411  -5.194  -1.374  0.00  0.00    +0.104 A 
ATOM      2  N   UNL     1      -9.698  -4.646  -0.233  0.00  0.00    -0.235 NA
ATOM      3  C   UNL     1     -10.424  -3.502  -0.156  0.00  0.00    +0.078 A 
ATOM      4  C   UNL     1     -10.732  -2.912   1.072  0.00  0.00    +0.028 A 
ATOM      5  C   UNL     1     -11.471  -1.751   1.103  0.00  0.00    +0.002 A 
ATOM      6  C   UNL     1     -11.916  -1.158  -0.072  0.00  0.00    +0.001 A 
ATOM      7  C   UNL     1     -11.625  -1.722  -1.295  0.00  0.00    +0.015 A 
ATOM      8  C   UNL     1     -10.877  -2.896  -1.349  0.00  0.00    +0.065 A 
ATOM      9  C   UNL     1     -10.535  -3.542  -2.624  0.00  0.00    +0.266 A 
ATOM     10  O   UNL     1     -10.894  -3.071  -3.688  0.00  0.00    -0.267 OA
ATOM     11  N   UNL     1      -9.801  -4.678  -2.571  0.00  0.00    -0.266 N 
ENDROOT
BRANCH  11  12
ATOM     12  C   UNL     1      -9.444  -5.330  -3.758  0.00  0.00    +0.051 A 
ATOM     13  C   UNL     1     -10.370  -6.125  -4.420  0.00  0.00    +0.027 A 
ATOM     14  C   UNL     1     -10.016  -6.767  -5.590  0.00  0.00    +0.017 A 
ATOM     15  C   UNL     1      -8.739  -6.620  -6.102  0.00  0.00    +0.018 A 
ATOM     16  C   UNL     1      -7.814  -5.830  -5.444  0.00  0.00    +0.017 A 
ATOM     17  C   UNL     1      -8.165  -5.180  -4.277  0.00  0.00    +0.027 A 
ATOM     18 BR   UNL     1      -8.257  -7.502  -7.704  0.00  0.00    -0.050 Br
ENDBRANCH  11  12
BRANCH   1  19
ATOM     19  C   UNL     1      -8.600  -6.464  -1.373  0.00  0.00    -0.003 C 
ATOM     20  C   UNL     1      -9.530  -7.664  -1.183  0.00  0.00    -0.005 C 
BRANCH  19  27
ATOM     21  N   UNL     1      -3.057  -5.304   1.139  0.00  0.00    -0.299 N 
ATOM     22  C   UNL     1      -3.753  -6.453   1.034  0.00  0.00    +0.302 C 
ATOM     23  O   UNL     1      -3.170  -7.520   1.050  0.00  0.00    -0.253 OA
ATOM     24  N   UNL     1      -5.095  -6.421   0.912  0.00  0.00    -0.289 N 
ATOM     25  C   UNL     1      -5.809  -5.144   0.761  0.00  0.00    +0.091 C 
ATOM     26  C   UNL     1      -6.751  -5.254  -0.443  0.00  0.00    -0.059 C 
ATOM     27  N   UNL     1      -7.625  -6.422  -0.275  0.00  0.00    +0.388 N 
ATOM     28  C   UNL     1      -6.824  -7.652  -0.286  0.00  0.00    -0.059 C 
ATOM     29  C   UNL     1      -5.885  -7.661   0.920  0.00  0.00    +0.091 C 
ATOM     30  H   UNL     1      -3.514  -4.452   1.058  0.00  0.00    +0.150 HD
ATOM     31  H   UNL     1      -8.115  -6.349   0.604  0.00  0.00    -0.081 HD
BRANCH  21  32
ATOM     32  C   UNL     1      -1.612  -5.341   1.374  0.00  0.00    +0.106 C 
BRANCH  32  33
ATOM     33  C   UNL     1      -1.071  -3.912   1.452  0.00  0.00    +0.018 C 
BRANCH  33  35
ATOM     34  C   UNL     1       0.980  -2.521   1.775  0.00  0.00    +0.004 C 
ATOM     35  C   UNL     1       0.439  -3.950   1.698  0.00  0.00    -0.002 C 
ENDBRANCH  33  35
ENDBRANCH  32  33
ENDBRANCH  21  32
ENDBRANCH  19  27
ENDBRANCH   1  19
TORSDOF 6
