REMARK  Name = ZINC34790458
REMARK  8 active torsions:
REMARK  status: ('A' for Active; 'I' for Inactive)
REMARK    1  A    between atoms: C_1  and  C_2
REMARK    2  A    between atoms: C_17  and  C_38
REMARK    3  A    between atoms: C_22  and  N_24
REMARK    4  A    between atoms: N_24  and  C_25
REMARK    5  A    between atoms: C_25  and  C_26
REMARK    6  A    between atoms: C_26  and  C_28
REMARK    7  A    between atoms: C_26  and  O_37
REMARK    8  A    between atoms: C_32  and  N_34
REMARK                            x       y       z     vdW  Elec       q    Type
REMARK                         _______ _______ _______ _____ _____    ______ ____
ROOT
ATOM      1  C   UNL     1       1.053   1.605   0.389  0.00  0.00    +0.012 C 
ATOM      2  C   UNL     1       0.930   0.081   0.367  0.00  0.00    -0.026 C 
ATOM      3  C   UNL     1      -0.520  -0.280   0.705  0.00  0.00    +0.007 C 
ATOM      4  C   UNL     1      -0.694  -1.797   0.738  0.00  0.00    +0.001 C 
ATOM      5  C   UNL     1       0.219  -2.382   1.818  0.00  0.00    +0.000 C 
ATOM      6  C   UNL     1       1.671  -2.046   1.486  0.00  0.00    +0.004 C 
ATOM      7  C   UNL     1       1.867  -0.530   1.411  0.00  0.00    -0.005 C 
ATOM      8  C   UNL     1       3.329  -0.243   1.068  0.00  0.00    +0.004 C 
ATOM      9  C   UNL     1       3.672  -0.780  -0.325  0.00  0.00    +0.004 C 
ATOM     10  C   UNL     1       2.743  -0.116  -1.341  0.00  0.00    -0.004 C 
ATOM     11  C   UNL     1       1.298  -0.478  -1.008  0.00  0.00    -0.001 C 
ATOM     12  C   UNL     1       0.332  -0.048  -2.092  0.00  0.00    +0.005 C 
ATOM     13  C   UNL     1       0.693  -0.599  -3.479  0.00  0.00    +0.005 C 
ATOM     14  C   UNL     1       2.029  -1.286  -3.478  0.00  0.00    -0.041 C 
ATOM     15  C   UNL     1       3.086  -0.421  -2.765  0.00  0.00    -0.003 C 
ATOM     16  C   UNL     1       4.378  -1.202  -3.039  0.00  0.00    +0.003 C 
ATOM     17  C   UNL     1       4.195  -1.686  -4.505  0.00  0.00    -0.015 C 
ATOM     18  C   UNL     1       2.700  -1.470  -4.857  0.00  0.00    -0.065 C 
ATOM     19  C   UNL     1       1.925  -2.697  -2.886  0.00  0.00    +0.010 C 
ENDROOT
BRANCH  18  20
ATOM     20  N   UNL     1       2.539  -0.284  -5.696  0.00  0.00    +0.383 N 
ATOM     21  H   UNL     1       1.559  -0.057  -5.774  0.00  0.00    -0.085 HD
ATOM     22  H   UNL     1       3.031   0.492  -5.280  0.00  0.00    -0.085 HD
BRANCH  20  23
ATOM     23  C   UNL     1       3.087  -0.551  -7.033  0.00  0.00    -0.046 C 
BRANCH  23  24
ATOM     24  C   UNL     1       2.919   0.690  -7.911  0.00  0.00    +0.128 C 
BRANCH  24  25
ATOM     25  C   UNL     1       3.481   0.416  -9.282  0.00  0.00    -0.019 A 
ATOM     26  C   UNL     1       2.697  -0.200 -10.240  0.00  0.00    +0.006 A 
ATOM     27  C   UNL     1       3.213  -0.451 -11.498  0.00  0.00    +0.003 A 
ATOM     28  C   UNL     1       4.513  -0.088 -11.797  0.00  0.00    +0.033 A 
ATOM     29  C   UNL     1       5.296   0.528 -10.840  0.00  0.00    +0.127 A 
ATOM     30  C   UNL     1       4.779   0.784  -9.583  0.00  0.00    +0.038 A 
BRANCH  29  31
ATOM     31  N   UNL     1       6.688   0.917 -11.160  0.00  0.00    +0.056 N 
ATOM     32  O   UNL     1       7.139   0.696 -12.260  0.00  0.00    -0.126 OA
ATOM     33  O   UNL     1       7.373   1.456 -10.322  0.00  0.00    -0.126 OA
ENDBRANCH  29  31
ENDBRANCH  24  25
BRANCH  24  34
ATOM     34  O   UNL     1       1.530   1.011  -8.021  0.00  0.00    -0.389 OA
ATOM     35  H   UNL     1       0.995   0.308  -8.414  0.00  0.00    +0.210 HD
ENDBRANCH  24  34
ENDBRANCH  23  24
ENDBRANCH  20  23
ENDBRANCH  18  20
TORSDOF 6
