REMARK  Name = ZINC15399261
REMARK  9 active torsions:
REMARK  status: ('A' for Active; 'I' for Inactive)
REMARK    1  A    between atoms: C_1  and  C_2
REMARK    2  A    between atoms: C_9  and  N_15
REMARK    3  A    between atoms: C_10  and  C_11
REMARK    4  A    between atoms: C_11  and  O_13
REMARK    5  A    between atoms: O_13  and  C_14
REMARK    6  A    between atoms: C_16  and  C_18
REMARK    7  A    between atoms: C_18  and  N_19
REMARK    8  A    between atoms: C_22  and  C_26
REMARK    9  A    between atoms: C_22  and  C_27
REMARK                            x       y       z     vdW  Elec       q    Type
REMARK                         _______ _______ _______ _____ _____    ______ ____
ROOT
ATOM      1  N   UNL     1      -4.165   0.653   1.689  0.00  0.00    -0.278 N 
ATOM      2  C   UNL     1      -2.944   1.168   1.441  0.00  0.00    +0.236 C 
ATOM      3  O   UNL     1      -2.214   1.469   2.362  0.00  0.00    -0.274 OA
ATOM      4  H   UNL     1      -4.748   0.412   0.953  0.00  0.00    +0.155 HD
ENDROOT
BRANCH   1  12
ATOM      5  C   UNL     1      -6.120  -0.328   9.200  0.00  0.00    +0.008 C 
ATOM      6  C   UNL     1      -5.984  -0.568   7.695  0.00  0.00    -0.009 C 
ATOM      7  C   UNL     1      -7.298  -0.208   6.994  0.00  0.00    +0.008 C 
ATOM      8  C   UNL     1      -7.256  -0.676   5.538  0.00  0.00    +0.037 C 
ATOM      9  C   UNL     1      -5.988  -0.138   4.887  0.00  0.00    -0.021 A 
ATOM     10  C   UNL     1      -4.950   0.294   5.636  0.00  0.00    -0.004 A 
ATOM     11  S   UNL     1      -3.731   0.816   4.463  0.00  0.00    -0.077 S 
ATOM     12  C   UNL     1      -4.585   0.466   2.997  0.00  0.00    +0.086 A 
ATOM     13  C   UNL     1      -5.796  -0.041   3.449  0.00  0.00    +0.091 A 
ATOM     14  C   UNL     1      -4.864   0.319   7.131  0.00  0.00    +0.046 C 
BRANCH  13  15
ATOM     15  C   UNL     1      -6.840  -0.465   2.514  0.00  0.00    +0.342 C 
ATOM     16  O   UNL     1      -6.870  -1.614   2.116  0.00  0.00    -0.245 OA
BRANCH  15  17
ATOM     17  O   UNL     1      -7.768   0.419   2.092  0.00  0.00    -0.464 OA
ATOM     18  C   UNL     1      -8.772  -0.072   1.165  0.00  0.00    +0.280 C 
ENDBRANCH  15  17
ENDBRANCH  13  15
ENDBRANCH   1  12
BRANCH   2  19
ATOM     19  C   UNL     1      -2.487   1.371   0.020  0.00  0.00    +0.214 C 
BRANCH  19  20
ATOM     20  N   UNL     1      -1.137   1.940   0.018  0.00  0.00    -0.215 N 
ATOM     21  C   UNL     1      -0.871   3.261   0.028  0.00  0.00    +0.251 C 
ATOM     22  O   UNL     1      -1.675   4.169   0.040  0.00  0.00    -0.272 OA
ATOM     23  C   UNL     1       0.640   3.376   0.014  0.00  0.00    +0.135 C 
ATOM     24  N   UNL     1       1.094   1.974   0.002  0.00  0.00    -0.281 N 
ATOM     25  C   UNL     1      -0.014   1.211   0.009  0.00  0.00    +0.310 C 
ATOM     26  O   UNL     1       0.002  -0.004   0.002  0.00  0.00    -0.252 OA
ATOM     27  C   UNL     1       1.113   4.105  -1.245  0.00  0.00    +0.047 C 
ATOM     28  H   UNL     1       2.012   1.662  -0.008  0.00  0.00    +0.152 HD
BRANCH  23  29
ATOM     29  C   UNL     1       1.130   4.081   1.253  0.00  0.00    -0.013 A 
ATOM     30  C   UNL     1       2.334   3.716   1.825  0.00  0.00    +0.009 A 
ATOM     31  C   UNL     1       2.786   4.362   2.960  0.00  0.00    +0.041 A 
ATOM     32  C   UNL     1       2.032   5.375   3.526  0.00  0.00    +0.158 A 
ATOM     33  C   UNL     1       0.823   5.741   2.953  0.00  0.00    +0.159 A 
ATOM     34  C   UNL     1       0.377   5.096   1.812  0.00  0.00    +0.047 A 
ATOM     35  F   UNL     1       0.086   6.729   3.503  0.00  0.00    -0.202 F 
ATOM     36  F   UNL     1       2.472   6.006   4.636  0.00  0.00    -0.202 F 
ENDBRANCH  23  29
ENDBRANCH  19  20
ENDBRANCH   2  19
TORSDOF 6
