REMARK  Name = ZINC12883426
REMARK  5 active torsions:
REMARK  status: ('A' for Active; 'I' for Inactive)
REMARK    1  A    between atoms: C_16  and  C_18
REMARK    2  A    between atoms: C_18  and  C_19
REMARK    3  A    between atoms: C_19  and  C_20
REMARK    4  A    between atoms: N_24  and  C_27
REMARK    5  A    between atoms: C_27  and  C_28
REMARK                            x       y       z     vdW  Elec       q    Type
REMARK                         _______ _______ _______ _____ _____    ______ ____
ROOT
ATOM      1  C   UNL     1      -5.519   5.829  -7.276  0.00  0.00    +0.002 A 
ATOM      2  C   UNL     1      -4.805   6.000  -6.103  0.00  0.00    +0.004 A 
ATOM      3  C   UNL     1      -5.295   5.500  -4.918  0.00  0.00    -0.026 A 
ATOM      4  C   UNL     1      -6.508   4.819  -4.883  0.00  0.00    +0.054 A 
ATOM      5  C   UNL     1      -7.221   4.650  -6.069  0.00  0.00    +0.062 A 
ATOM      6  C   UNL     1      -6.726   5.154  -7.255  0.00  0.00    +0.022 A 
ATOM      7 CL   UNL     1      -8.737   3.804  -6.054  0.00  0.00    -0.082 Cl
ATOM      8  N   UNL     1      -6.795   4.409  -3.579  0.00  0.00    -0.285 N 
ATOM      9  C   UNL     1      -5.834   4.776  -2.708  0.00  0.00    +0.211 C 
ATOM     10  O   UNL     1      -5.816   4.556  -1.516  0.00  0.00    -0.277 OA
ATOM     11  C   UNL     1      -4.789   5.510  -3.503  0.00  0.00    +0.050 C 
ATOM     12  C   UNL     1      -3.419   4.830  -3.391  0.00  0.00    +0.088 C 
ATOM     13  C   UNL     1      -2.400   6.004  -3.397  0.00  0.00    +0.073 C 
ATOM     14  C   UNL     1      -3.262   7.277  -3.521  0.00  0.00    -0.057 C 
ATOM     15  C   UNL     1      -1.795   5.948  -2.013  0.00  0.00    +0.224 C 
ATOM     16  O   UNL     1      -0.951   6.706  -1.586  0.00  0.00    -0.275 OA
ATOM     17  N   UNL     1      -2.335   4.930  -1.332  0.00  0.00    -0.237 N 
ATOM     18  C   UNL     1      -3.258   4.237  -2.009  0.00  0.00    +0.225 C 
ATOM     19  O   UNL     1      -3.869   3.281  -1.582  0.00  0.00    -0.275 OA
ATOM     20  H   UNL     1      -7.593   3.917  -3.329  0.00  0.00    +0.155 HD
ATOM     21  N   UNL     1      -4.577   6.865  -3.026  0.00  0.00    +0.394 N 
ATOM     22  H   UNL     1      -4.593   6.887  -2.000  0.00  0.00    -0.083 HD
ATOM     23  H   UNL     1      -5.306   7.489  -3.393  0.00  0.00    -0.083 HD
ENDROOT
BRANCH  14  24
ATOM     24  C   UNL     1      -2.673   8.404  -2.670  0.00  0.00    -0.004 C 
BRANCH  24  25
ATOM     25  C   UNL     1      -3.469   9.690  -2.904  0.00  0.00    +0.123 C 
BRANCH  25  26
ATOM     26  C   UNL     1      -2.889  10.799  -2.065  0.00  0.00    +0.356 C 
ATOM     27  O   UNL     1      -1.937  10.584  -1.353  0.00  0.00    -0.246 OA
ATOM     28  O   UNL     1      -3.430  12.027  -2.109  0.00  0.00    -0.246 OA
ENDBRANCH  25  26
ENDBRANCH  24  25
ENDBRANCH  14  24
BRANCH  17  29
ATOM     29  C   UNL     1      -1.952   4.605   0.044  0.00  0.00    +0.151 C 
BRANCH  29  30
ATOM     30  C   UNL     1      -0.808   3.623   0.028  0.00  0.00    -0.026 A 
ATOM     31  C   UNL     1       0.495   4.083   0.018  0.00  0.00    +0.009 A 
ATOM     32  C   UNL     1       1.547   3.187   0.004  0.00  0.00    +0.050 A 
ATOM     33  C   UNL     1       1.297   1.824  -0.001  0.00  0.00    +0.166 A 
ATOM     34  C   UNL     1      -0.016   1.361   0.009  0.00  0.00    +0.167 A 
ATOM     35  C   UNL     1      -1.066   2.265   0.019  0.00  0.00    +0.054 A 
ATOM     36  O   UNL     1       0.002  -0.004   0.002  0.00  0.00    -0.453 OA
ATOM     37  C   UNL     1       1.336  -0.373   0.399  0.00  0.00    +0.466 C 
ATOM     38  O   UNL     1       2.138   0.749  -0.014  0.00  0.00    -0.453 OA
ENDBRANCH  29  30
ENDBRANCH  17  29
TORSDOF 5
