REMARK  Name = ZINC36307691
REMARK  16 active torsions:
REMARK  status: ('A' for Active; 'I' for Inactive)
REMARK    1  A    between atoms: C_1  and  C_2
REMARK    2  A    between atoms: C_2  and  C_3
REMARK    3  A    between atoms: C_3  and  N_4
REMARK    4  A    between atoms: N_4  and  C_5
REMARK    5  A    between atoms: N_4  and  C_26
REMARK    6  A    between atoms: C_5  and  C_6
REMARK    7  A    between atoms: C_7  and  C_20
REMARK    8  A    between atoms: N_9  and  C_19
REMARK    9  A    between atoms: C_10  and  O_11
REMARK   10  A    between atoms: O_11  and  C_12
REMARK   11  A    between atoms: C_26  and  C_27
REMARK   12  A    between atoms: C_27  and  C_29
REMARK   13  A    between atoms: C_27  and  O_38
REMARK   14  A    between atoms: C_29  and  O_30
REMARK   15  A    between atoms: O_30  and  C_31
REMARK   16  A    between atoms: C_36  and  C_37
REMARK                            x       y       z     vdW  Elec       q    Type
REMARK                         _______ _______ _______ _____ _____    ______ ____
ROOT
ATOM      1  C   UNL     1      -2.836  -1.810  -1.901  0.00  0.00    +0.025 A 
ATOM      2  C   UNL     1      -3.800  -0.819  -2.167  0.00  0.00    +0.098 A 
ATOM      3  N   UNL     1      -3.958  -0.742  -3.471  0.00  0.00    -0.168 NA
ATOM      4  N   UNL     1      -3.105  -1.676  -4.074  0.00  0.00    -0.235 N 
ATOM      5  C   UNL     1      -2.421  -2.316  -3.090  0.00  0.00    +0.221 A 
ATOM      6  C   UNL     1      -2.970  -1.915  -5.512  0.00  0.00    +0.176 C 
ENDROOT
BRANCH   2   7
ATOM      7  C   UNL     1      -4.514  -0.003  -1.154  0.00  0.00    +0.002 A 
ATOM      8  C   UNL     1      -4.696   1.363  -1.358  0.00  0.00    +0.010 A 
ATOM      9  C   UNL     1      -5.361   2.117  -0.412  0.00  0.00    +0.001 A 
ATOM     10  C   UNL     1      -5.846   1.519   0.737  0.00  0.00    +0.000 A 
ATOM     11  C   UNL     1      -5.667   0.163   0.945  0.00  0.00    +0.001 A 
ATOM     12  C   UNL     1      -5.009  -0.602   0.003  0.00  0.00    +0.010 A 
ENDBRANCH   2   7
BRANCH   1  13
ATOM     13  C   UNL     1      -2.347  -2.229  -0.538  0.00  0.00    -0.035 C 
BRANCH  13  14
ATOM     14  N   UNL     1      -1.093  -1.528  -0.232  0.00  0.00    +0.384 N 
ATOM     15  H   UNL     1      -0.424  -1.696  -0.969  0.00  0.00    -0.081 HD
BRANCH  14  16
ATOM     16  C   UNL     1      -1.351  -0.086  -0.125  0.00  0.00    -0.079 C 
BRANCH  16  18
ATOM     17  C   UNL     1      -0.280   2.167   0.025  0.00  0.00    +0.002 C 
ATOM     18  C   UNL     1      -0.026   0.658   0.054  0.00  0.00    -0.022 C 
ENDBRANCH  16  18
ENDBRANCH  14  16
BRANCH  14  19
ATOM     19  C   UNL     1      -0.553  -2.024   1.042  0.00  0.00    -0.043 C 
BRANCH  19  20
ATOM     20  C   UNL     1      -0.144  -3.490   0.885  0.00  0.00    +0.135 C 
BRANCH  20  21
ATOM     21  O   UNL     1       0.928  -3.588  -0.055  0.00  0.00    -0.390 OA
ATOM     22  H   UNL     1       1.745  -3.159   0.235  0.00  0.00    +0.210 HD
ENDBRANCH  20  21
BRANCH  20  23
ATOM     23  C   UNL     1       0.312  -4.039   2.238  0.00  0.00    +0.258 C 
BRANCH  23  24
ATOM     24  O   UNL     1       0.584  -5.437   2.118  0.00  0.00    -0.489 OA
BRANCH  24  25
ATOM     25  C   UNL     1       1.002  -6.083   3.238  0.00  0.00    +0.124 A 
ATOM     26  C   UNL     1       1.144  -5.386   4.430  0.00  0.00    +0.046 A 
ATOM     27  C   UNL     1       1.570  -6.045   5.567  0.00  0.00    +0.004 A 
ATOM     28  C   UNL     1       1.855  -7.397   5.518  0.00  0.00    +0.000 A 
ATOM     29  C   UNL     1       1.715  -8.093   4.332  0.00  0.00    +0.007 A 
ATOM     30  C   UNL     1       1.284  -7.440   3.193  0.00  0.00    -0.009 A 
ATOM     31  C   UNL     1       1.126  -8.201   1.902  0.00  0.00    +0.047 C 
ENDBRANCH  24  25
ENDBRANCH  23  24
ENDBRANCH  20  23
ENDBRANCH  19  20
ENDBRANCH  14  19
ENDBRANCH  13  14
ENDBRANCH   1  13
BRANCH   5  32
ATOM     32  O   UNL     1      -1.492  -3.289  -3.265  0.00  0.00    -0.438 OA
BRANCH  32  33
ATOM     33  C   UNL     1      -1.926  -4.572  -3.385  0.00  0.00    +0.131 A 
ATOM     34  C   UNL     1      -3.286  -4.843  -3.434  0.00  0.00    +0.049 A 
ATOM     35  C   UNL     1      -3.725  -6.147  -3.555  0.00  0.00    +0.042 A 
ATOM     36  C   UNL     1      -2.810  -7.183  -3.627  0.00  0.00    +0.124 A 
ATOM     37  C   UNL     1      -1.453  -6.914  -3.578  0.00  0.00    +0.042 A 
ATOM     38  C   UNL     1      -1.010  -5.611  -3.463  0.00  0.00    +0.049 A 
ATOM     39  F   UNL     1      -3.241  -8.458  -3.745  0.00  0.00    -0.205 F 
ENDBRANCH  32  33
ENDBRANCH   5  32
TORSDOF 13
