REMARK  Name = ZINC15218865
REMARK  11 active torsions:
REMARK  status: ('A' for Active; 'I' for Inactive)
REMARK    1  A    between atoms: C_1  and  C_2
REMARK    2  A    between atoms: C_4  and  C_31
REMARK    3  A    between atoms: C_5  and  S_9
REMARK    4  A    between atoms: C_6  and  C_8
REMARK    5  A    between atoms: S_9  and  N_12
REMARK    6  A    between atoms: N_12  and  C_13
REMARK    7  A    between atoms: C_18  and  C_19
REMARK    8  A    between atoms: C_19  and  O_21
REMARK    9  A    between atoms: O_21  and  C_22
REMARK   10  A    between atoms: C_22  and  C_24
REMARK   11  A    between atoms: C_22  and  C_25
REMARK                            x       y       z     vdW  Elec       q    Type
REMARK                         _______ _______ _______ _____ _____    ______ ____
ROOT
ATOM      1  C   UNL     1       3.233  -3.617   1.939  0.00  0.00    +0.062 A 
ATOM      2  C   UNL     1       4.480  -4.230   1.920  0.00  0.00    +0.025 A 
ATOM      3  C   UNL     1       5.584  -3.537   1.469  0.00  0.00    +0.002 A 
ATOM      4  C   UNL     1       5.459  -2.229   1.026  0.00  0.00    +0.001 A 
ATOM      5  C   UNL     1       4.231  -1.606   1.032  0.00  0.00    +0.017 A 
ATOM      6  C   UNL     1       3.102  -2.295   1.486  0.00  0.00    +0.081 A 
ENDROOT
BRANCH   1   7
ATOM      7  N   UNL     1       2.121  -4.311   2.398  0.00  0.00    -0.215 N 
ATOM      8  H   UNL     1       1.826  -4.201   3.315  0.00  0.00    +0.174 HD
BRANCH   7   9
ATOM      9  S   UNL     1       1.299  -5.326   1.379  0.00  0.00    +0.073 S 
ATOM     10  O   UNL     1       0.253  -5.909   2.144  0.00  0.00    -0.150 OA
ATOM     11  O   UNL     1       1.054  -4.593   0.187  0.00  0.00    -0.150 OA
BRANCH   9  16
ATOM     12  C   UNL     1       5.063  -9.805  -0.095  0.00  0.00    +0.044 C 
ATOM     13  C   UNL     1       4.123  -8.686   0.273  0.00  0.00    -0.050 A 
ATOM     14  C   UNL     1       3.974  -7.602  -0.572  0.00  0.00    +0.008 A 
ATOM     15  C   UNL     1       3.111  -6.576  -0.234  0.00  0.00    -0.023 A 
ATOM     16  C   UNL     1       2.398  -6.634   0.949  0.00  0.00    +0.114 A 
ATOM     17  C   UNL     1       2.552  -7.715   1.796  0.00  0.00    -0.023 A 
ATOM     18  C   UNL     1       3.410  -8.744   1.456  0.00  0.00    +0.008 A 
ATOM     19  C   UNL     1       1.779  -7.775   3.089  0.00  0.00    +0.046 C 
ATOM     20  C   UNL     1       2.949  -5.395  -1.155  0.00  0.00    +0.046 C 
ENDBRANCH   9  16
ENDBRANCH   7   9
ENDBRANCH   1   7
BRANCH   6  21
ATOM     21  C   UNL     1       1.785  -1.635   1.495  0.00  0.00    +0.342 C 
ATOM     22  O   UNL     1       0.807  -2.237   1.891  0.00  0.00    -0.245 OA
BRANCH  21  23
ATOM     23  O   UNL     1       1.666  -0.363   1.065  0.00  0.00    -0.449 OA
BRANCH  23  24
ATOM     24  C   UNL     1       0.338   0.223   1.102  0.00  0.00    +0.259 C 
ATOM     25  C   UNL     1      -0.377  -0.048  -0.223  0.00  0.00    +0.062 C 
BRANCH  24  26
ATOM     26  C   UNL     1       0.451   1.710   1.317  0.00  0.00    +0.261 C 
ATOM     27  O   UNL     1       1.543   2.238   1.338  0.00  0.00    -0.271 OA
ATOM     28  N   UNL     1      -0.660   2.454   1.482  0.00  0.00    -0.237 N 
ATOM     29  C   UNL     1      -0.559   3.784   1.674  0.00  0.00    +0.303 C 
ATOM     30  O   UNL     1       0.535   4.313   1.699  0.00  0.00    -0.253 OA
ATOM     31  N   UNL     1      -1.670   4.528   1.838  0.00  0.00    -0.313 N 
ATOM     32  H   UNL     1      -1.534   2.032   1.461  0.00  0.00    +0.159 HD
ATOM     33  H   UNL     1      -2.544   4.106   1.818  0.00  0.00    +0.146 HD
ATOM     34  H   UNL     1      -1.597   5.486   1.977  0.00  0.00    +0.146 HD
ENDBRANCH  24  26
ENDBRANCH  23  24
ENDBRANCH  21  23
ENDBRANCH   6  21
TORSDOF 7
