REMARK  Name = ZINC35780957
REMARK  12 active torsions:
REMARK  status: ('A' for Active; 'I' for Inactive)
REMARK    1  A    between atoms: C_1  and  C_2
REMARK    2  A    between atoms: C_2  and  C_3
REMARK    3  A    between atoms: C_2  and  C_4
REMARK    4  A    between atoms: C_11  and  C_15
REMARK    5  A    between atoms: C_15  and  N_16
REMARK    6  A    between atoms: N_16  and  C_17
REMARK    7  A    between atoms: N_16  and  C_30
REMARK    8  A    between atoms: C_17  and  C_18
REMARK    9  A    between atoms: C_18  and  C_20
REMARK   10  A    between atoms: C_18  and  O_29
REMARK   11  A    between atoms: C_20  and  O_21
REMARK   12  A    between atoms: O_21  and  C_22
REMARK                            x       y       z     vdW  Elec       q    Type
REMARK                         _______ _______ _______ _____ _____    ______ ____
ROOT
ATOM      1  N   UNL     1      -7.729  -1.749   1.589  0.00  0.00    +0.388 N 
ATOM      2  H   UNL     1      -7.759  -0.747   1.472  0.00  0.00    -0.081 HD
ENDROOT
BRANCH   1   3
ATOM      3  C   UNL     1      -6.630  -2.103   2.497  0.00  0.00    -0.068 C 
ATOM      4  C   UNL     1      -5.302  -1.638   1.896  0.00  0.00    -0.015 C 
ATOM      5  C   UNL     1      -4.157  -2.007   2.842  0.00  0.00    -0.002 C 
ATOM      6  C   UNL     1      -4.125  -3.525   3.036  0.00  0.00    -0.000 C 
ATOM      7  C   UNL     1      -5.454  -3.990   3.636  0.00  0.00    -0.002 C 
ATOM      8  C   UNL     1      -6.598  -3.621   2.691  0.00  0.00    -0.015 C 
ENDBRANCH   1   3
BRANCH   1   9
ATOM      9  C   UNL     1      -7.511  -2.387   0.283  0.00  0.00    -0.003 C 
BRANCH   9  17
ATOM     10  C   UNL     1      -3.783   2.162  -2.080  0.00  0.00    -0.005 A 
ATOM     11  C   UNL     1      -4.024   0.991  -2.692  0.00  0.00    +0.027 A 
ATOM     12  C   UNL     1      -4.897   0.025  -2.053  0.00  0.00    +0.072 A 
ATOM     13  C   UNL     1      -5.300  -1.275  -2.504  0.00  0.00    +0.260 A 
ATOM     14  O   UNL     1      -4.897  -1.713  -3.568  0.00  0.00    -0.267 OA
ATOM     15  N   UNL     1      -6.128  -2.004  -1.733  0.00  0.00    -0.312 N 
ATOM     16  H   UNL     1      -6.404  -2.885  -2.033  0.00  0.00    +0.170 HD
ATOM     17  C   UNL     1      -6.585  -1.533  -0.545  0.00  0.00    +0.094 A 
ATOM     18  N   UNL     1      -6.237  -0.353  -0.107  0.00  0.00    -0.229 NA
ATOM     19  C   UNL     1      -5.422   0.427  -0.811  0.00  0.00    +0.116 A 
ATOM     20  S   UNL     1      -4.724   2.040  -0.571  0.00  0.00    -0.073 S 
BRANCH  10  22
ATOM     21  C   UNL     1      -3.770   4.566  -2.687  0.00  0.00    +0.013 C 
ATOM     22  C   UNL     1      -2.918   3.302  -2.552  0.00  0.00    +0.020 C 
ATOM     23  C   UNL     1      -1.799   3.547  -1.538  0.00  0.00    +0.013 C 
ENDBRANCH  10  22
ENDBRANCH   9  17
ENDBRANCH   1   9
BRANCH   1  24
ATOM     24  C   UNL     1      -9.002  -2.215   2.155  0.00  0.00    -0.043 C 
BRANCH  24  25
ATOM     25  C   UNL     1      -9.279  -1.474   3.464  0.00  0.00    +0.135 C 
BRANCH  25  26
ATOM     26  O   UNL     1      -9.337  -0.068   3.214  0.00  0.00    -0.390 OA
ATOM     27  H   UNL     1     -10.026   0.192   2.587  0.00  0.00    +0.210 HD
ENDBRANCH  25  26
BRANCH  25  28
ATOM     28  C   UNL     1     -10.615  -1.944   4.043  0.00  0.00    +0.258 C 
BRANCH  28  29
ATOM     29  O   UNL     1     -10.819  -1.340   5.322  0.00  0.00    -0.489 OA
BRANCH  29  30
ATOM     30  C   UNL     1     -11.967  -1.655   5.978  0.00  0.00    +0.121 A 
ATOM     31  C   UNL     1     -12.876  -2.532   5.404  0.00  0.00    +0.047 A 
ATOM     32  C   UNL     1     -14.043  -2.850   6.071  0.00  0.00    +0.023 A 
ATOM     33  C   UNL     1     -14.305  -2.295   7.311  0.00  0.00    +0.041 A 
ATOM     34  C   UNL     1     -13.400  -1.420   7.885  0.00  0.00    +0.023 A 
ATOM     35  C   UNL     1     -12.229  -1.104   7.224  0.00  0.00    +0.047 A 
ATOM     36 CL   UNL     1     -15.772  -2.697   8.148  0.00  0.00    -0.084 Cl
ENDBRANCH  29  30
ENDBRANCH  28  29
ENDBRANCH  25  28
ENDBRANCH  24  25
ENDBRANCH   1  24
TORSDOF 10
