REMARK  Name = ZINC48533248
REMARK  10 active torsions:
REMARK  status: ('A' for Active; 'I' for Inactive)
REMARK    1  A    between atoms: C_1  and  C_2
REMARK    2  A    between atoms: C_2  and  O_3
REMARK    3  A    between atoms: O_3  and  C_4
REMARK    4  A    between atoms: C_4  and  C_6
REMARK    5  A    between atoms: N_11  and  S_12
REMARK    6  A    between atoms: S_12  and  C_15
REMARK    7  A    between atoms: C_18  and  C_21
REMARK    8  A    between atoms: C_29  and  C_31
REMARK    9  A    between atoms: C_34  and  O_37
REMARK   10  A    between atoms: O_37  and  C_38
REMARK                            x       y       z     vdW  Elec       q    Type
REMARK                         _______ _______ _______ _____ _____    ______ ____
ROOT
ATOM      1  C   UNL     1       1.241  -3.239  -2.751  0.00  0.00    +0.201 C 
ATOM      2  C   UNL     1       0.413  -3.349  -4.035  0.00  0.00    +0.048 C 
ATOM      3  C   UNL     1       0.697  -4.772  -4.550  0.00  0.00    +0.033 C 
ATOM      4  C   UNL     1       0.851  -5.556  -3.220  0.00  0.00    +0.111 C 
ATOM      5  N   UNL     1       1.514  -4.614  -2.297  0.00  0.00    -0.162 NA
ATOM      6  C   UNL     1       0.800  -2.308  -5.045  0.00  0.00    -0.016 A 
ATOM      7  C   UNL     1       2.007  -2.020  -5.655  0.00  0.00    +0.006 A 
ATOM      8  C   UNL     1       2.097  -0.987  -6.567  0.00  0.00    +0.000 A 
ATOM      9  C   UNL     1       0.975  -0.238  -6.873  0.00  0.00    +0.002 A 
ATOM     10  C   UNL     1      -0.231  -0.520  -6.269  0.00  0.00    +0.023 A 
ATOM     11  C   UNL     1      -0.332  -1.562  -5.346  0.00  0.00    +0.031 A 
ATOM     12  N   UNL     1      -1.448  -2.006  -4.631  0.00  0.00    -0.336 N 
ATOM     13  C   UNL     1      -1.075  -3.138  -3.772  0.00  0.00    +0.113 C 
ATOM     14  H   UNL     1      -2.337  -1.623  -4.693  0.00  0.00    +0.147 HD
ENDROOT
BRANCH  13  15
ATOM     15  C   UNL     1      -1.309  -2.796  -2.323  0.00  0.00    -0.026 A 
ATOM     16  C   UNL     1      -1.404  -3.806  -1.383  0.00  0.00    +0.009 A 
ATOM     17  C   UNL     1      -1.619  -3.495  -0.054  0.00  0.00    +0.046 A 
ATOM     18  C   UNL     1      -1.740  -2.170   0.337  0.00  0.00    +0.120 A 
ATOM     19  C   UNL     1      -1.644  -1.159  -0.608  0.00  0.00    +0.046 A 
ATOM     20  C   UNL     1      -1.423  -1.474  -1.935  0.00  0.00    +0.009 A 
BRANCH  18  21
ATOM     21  O   UNL     1      -1.952  -1.862   1.643  0.00  0.00    -0.495 OA
ATOM     22  C   UNL     1      -2.176  -0.486   1.958  0.00  0.00    +0.277 C 
ENDBRANCH  18  21
ENDBRANCH  13  15
BRANCH   5  23
ATOM     23  S   UNL     1       2.415  -5.032  -0.972  0.00  0.00    +0.062 S 
ATOM     24  O   UNL     1       2.841  -6.372  -1.177  0.00  0.00    -0.153 OA
ATOM     25  O   UNL     1       3.329  -3.967  -0.750  0.00  0.00    -0.153 OA
BRANCH  23  26
ATOM     26  C   UNL     1       1.325  -5.057   0.413  0.00  0.00    +0.106 A 
ATOM     27  C   UNL     1       1.256  -3.965   1.258  0.00  0.00    +0.029 A 
ATOM     28  C   UNL     1       0.401  -3.984   2.344  0.00  0.00    +0.005 A 
ATOM     29  C   UNL     1      -0.386  -5.095   2.584  0.00  0.00    -0.050 A 
ATOM     30  C   UNL     1      -0.318  -6.187   1.739  0.00  0.00    +0.005 A 
ATOM     31  C   UNL     1       0.534  -6.165   0.650  0.00  0.00    +0.029 A 
ATOM     32  C   UNL     1      -1.317  -5.117   3.769  0.00  0.00    +0.044 C 
ENDBRANCH  23  26
ENDBRANCH   5  23
BRANCH   1  33
ATOM     33  C   UNL     1       0.461  -2.495  -1.698  0.00  0.00    +0.327 C 
ATOM     34  O   UNL     1       0.025  -3.086  -0.739  0.00  0.00    -0.249 OA
BRANCH  33  35
ATOM     35  O   UNL     1       0.251  -1.175  -1.826  0.00  0.00    -0.464 OA
BRANCH  35  37
ATOM     36  C   UNL     1       2.103   0.160  -1.034  0.00  0.00    +0.048 C 
ATOM     37  C   UNL     1       0.686  -0.342  -0.750  0.00  0.00    +0.229 C 
ENDBRANCH  35  37
ENDBRANCH  33  35
ENDBRANCH   1  33
TORSDOF 7
