REMARK  Name = ZINC36158869
REMARK  9 active torsions:
REMARK  status: ('A' for Active; 'I' for Inactive)
REMARK    1  A    between atoms: C_4  and  C_7
REMARK    2  A    between atoms: C_7  and  C_8
REMARK    3  A    between atoms: C_8  and  C_10
REMARK    4  A    between atoms: C_8  and  O_33
REMARK    5  A    between atoms: C_10  and  N_11
REMARK    6  A    between atoms: N_11  and  C_12
REMARK    7  A    between atoms: N_11  and  C_18
REMARK    8  A    between atoms: C_12  and  C_13
REMARK    9  A    between atoms: C_18  and  C_19
REMARK                            x       y       z     vdW  Elec       q    Type
REMARK                         _______ _______ _______ _____ _____    ______ ____
ROOT
ATOM      1  N   UNL     1       5.889  -1.839   2.801  0.00  0.00    +0.391 N 
ATOM      2  H   UNL     1       5.284  -2.447   3.332  0.00  0.00    -0.080 HD
ENDROOT
BRANCH   1   3
ATOM      3  C   UNL     1       5.424  -1.779   1.409  0.00  0.00    -0.046 C 
BRANCH   3   4
ATOM      4  C   UNL     1       5.262  -3.199   0.864  0.00  0.00    +0.102 C 
BRANCH   4   5
ATOM      5  O   UNL     1       6.549  -3.807   0.731  0.00  0.00    -0.393 OA
ATOM      6  H   UNL     1       7.146  -3.338   0.133  0.00  0.00    +0.210 HD
ENDBRANCH   4   5
BRANCH   4   7
ATOM      7  C   UNL     1       4.580  -3.146  -0.505  0.00  0.00    +0.064 C 
BRANCH   7  11
ATOM      8  C   UNL     1       3.814  -7.119  -1.873  0.00  0.00    +0.000 A 
ATOM      9  C   UNL     1       2.868  -6.454  -1.116  0.00  0.00    +0.000 A 
ATOM     10  C   UNL     1       3.116  -5.169  -0.673  0.00  0.00    +0.004 A 
ATOM     11  C   UNL     1       4.310  -4.548  -0.987  0.00  0.00    -0.045 A 
ATOM     12  C   UNL     1       5.257  -5.213  -1.743  0.00  0.00    +0.004 A 
ATOM     13  C   UNL     1       5.009  -6.498  -2.187  0.00  0.00    +0.000 A 
ENDBRANCH   7  11
ENDBRANCH   4   7
ENDBRANCH   3   4
ENDBRANCH   1   3
BRANCH   1  14
ATOM     14  C   UNL     1       5.862  -0.491   3.385  0.00  0.00    -0.002 C 
BRANCH  14  15
ATOM     15  C   UNL     1       4.436  -0.013   3.481  0.00  0.00    +0.089 A 
ATOM     16  C   UNL     1       3.644  -0.115   4.563  0.00  0.00    +0.042 A 
ATOM     17  C   UNL     1       2.398   0.456   4.215  0.00  0.00    +0.041 A 
ATOM     18  C   UNL     1       2.504   0.872   2.940  0.00  0.00    +0.195 A 
ATOM     19  O   UNL     1       3.742   0.590   2.502  0.00  0.00    -0.470 OA
ENDBRANCH  14  15
ENDBRANCH   1  14
BRANCH   1  20
ATOM     20  C   UNL     1       7.262  -2.360   2.837  0.00  0.00    -0.003 C 
BRANCH  20  21
ATOM     21  C   UNL     1       7.687  -2.558   4.269  0.00  0.00    +0.094 A 
ATOM     22  N   UNL     1       8.932  -3.030   4.535  0.00  0.00    -0.312 N 
ATOM     23  H   UNL     1       9.530  -3.234   3.799  0.00  0.00    +0.170 HD
ATOM     24  C   UNL     1       9.352  -3.222   5.800  0.00  0.00    +0.260 A 
ATOM     25  O   UNL     1      10.473  -3.647   6.024  0.00  0.00    -0.267 OA
ATOM     26  C   UNL     1       8.459  -2.916   6.877  0.00  0.00    +0.075 A 
ATOM     27  C   UNL     1       8.702  -3.046   8.322  0.00  0.00    -0.023 A 
ATOM     28  C   UNL     1       7.696  -2.693   9.141  0.00  0.00    -0.004 A 
ATOM     29  S   UNL     1       6.385  -2.171   8.060  0.00  0.00    -0.073 S 
ATOM     30  C   UNL     1       7.197  -2.434   6.506  0.00  0.00    +0.116 A 
ATOM     31  N   UNL     1       6.853  -2.265   5.231  0.00  0.00    -0.229 NA
ATOM     32  C   UNL     1       8.056  -2.872  10.591  0.00  0.00    +0.043 C 
ATOM     33  C   UNL     1       9.290  -3.800  10.573  0.00  0.00    +0.010 C 
ATOM     34  C   UNL     1       9.883  -3.506   9.181  0.00  0.00    +0.037 C 
ENDBRANCH  20  21
ENDBRANCH   1  20
TORSDOF 9
