REMARK  Name = ZINC63386337
REMARK  10 active torsions:
REMARK  status: ('A' for Active; 'I' for Inactive)
REMARK    1  A    between atoms: C_1  and  C_2
REMARK    2  A    between atoms: C_2  and  C_4
REMARK    3  A    between atoms: C_2  and  N_14
REMARK    4  A    between atoms: C_4  and  C_5
REMARK    5  A    between atoms: C_15  and  C_17
REMARK    6  A    between atoms: C_17  and  O_18
REMARK    7  A    between atoms: O_18  and  C_19
REMARK    8  A    between atoms: C_23  and  C_30
REMARK    9  A    between atoms: C_33  and  O_36
REMARK   10  A    between atoms: O_36  and  C_37
REMARK                            x       y       z     vdW  Elec       q    Type
REMARK                         _______ _______ _______ _____ _____    ______ ____
ROOT
ATOM      1  O   UNL     1      -3.917  -1.239   2.538  0.00  0.00    -0.483 OA
ENDROOT
BRANCH   1   2
ATOM      2  C   UNL     1      -5.184  -1.691   2.725  0.00  0.00    +0.125 A 
ATOM      3  C   UNL     1      -5.950  -2.073   1.626  0.00  0.00    +0.046 A 
ATOM      4  C   UNL     1      -7.225  -2.530   1.799  0.00  0.00    +0.016 A 
ATOM      5  C   UNL     1      -7.764  -2.615   3.085  0.00  0.00    +0.026 A 
ATOM      6  C   UNL     1      -9.136  -3.104   3.302  0.00  0.00    -0.000 A 
ATOM      7  C   UNL     1      -9.604  -3.162   4.603  0.00  0.00    +0.101 A 
ATOM      8  C   UNL     1      -8.769  -2.759   5.656  0.00  0.00    +0.338 A 
ATOM      9  O   UNL     1      -9.189  -2.813   6.799  0.00  0.00    -0.245 OA
ATOM     10  O   UNL     1      -7.520  -2.316   5.441  0.00  0.00    -0.422 OA
ATOM     11  C   UNL     1      -6.997  -2.232   4.198  0.00  0.00    +0.143 A 
ATOM     12  C   UNL     1      -5.701  -1.774   4.007  0.00  0.00    +0.092 A 
BRANCH   6  13
ATOM     13  C   UNL     1      -9.986  -3.520   2.166  0.00  0.00    -0.017 A 
ATOM     14  C   UNL     1      -9.634  -4.632   1.398  0.00  0.00    +0.012 A 
ATOM     15  C   UNL     1     -10.429  -5.016   0.341  0.00  0.00    +0.046 A 
ATOM     16  C   UNL     1     -11.580  -4.299   0.038  0.00  0.00    +0.120 A 
ATOM     17  C   UNL     1     -11.933  -3.192   0.800  0.00  0.00    +0.046 A 
ATOM     18  C   UNL     1     -11.147  -2.805   1.862  0.00  0.00    +0.012 A 
BRANCH  16  19
ATOM     19  O   UNL     1     -12.361  -4.681  -1.005  0.00  0.00    -0.495 OA
ATOM     20  C   UNL     1     -13.529  -3.899  -1.260  0.00  0.00    +0.277 C 
ENDBRANCH  16  19
ENDBRANCH   6  13
ENDBRANCH   1   2
BRANCH   1  21
ATOM     21  C   UNL     1      -3.442  -1.177   1.191  0.00  0.00    +0.324 C 
BRANCH  21  23
ATOM     22  N   UNL     1      -1.372  -0.511   0.012  0.00  0.00    -0.310 N 
ATOM     23  C   UNL     1      -2.029  -0.655   1.181  0.00  0.00    +0.251 C 
ATOM     24  O   UNL     1      -1.481  -0.365   2.224  0.00  0.00    -0.272 OA
ATOM     25  H   UNL     1      -1.810  -0.743  -0.822  0.00  0.00    +0.149 HD
BRANCH  22  27
ATOM     26  C   UNL     1      -0.019   1.526   0.010  0.00  0.00    +0.028 C 
ATOM     27  C   UNL     1       0.002  -0.004   0.002  0.00  0.00    +0.074 C 
BRANCH  27  28
ATOM     28  C   UNL     1       0.718  -0.497  -1.257  0.00  0.00    +0.055 C 
BRANCH  28  29
ATOM     29  C   UNL     1       0.847  -1.998  -1.206  0.00  0.00    -0.040 C 
ATOM     30  C   UNL     1       0.016  -2.905  -1.767  0.00  0.00    -0.001 A 
ATOM     31  C   UNL     1      -1.211  -2.772  -2.561  0.00  0.00    +0.010 A 
ATOM     32  C   UNL     1      -1.838  -3.890  -2.993  0.00  0.00    +0.001 A 
ATOM     33  C   UNL     1      -1.347  -5.170  -2.701  0.00  0.00    +0.002 A 
ATOM     34  C   UNL     1      -0.226  -5.373  -1.977  0.00  0.00    +0.026 A 
ATOM     35  C   UNL     1       0.514  -4.268  -1.473  0.00  0.00    +0.043 A 
ATOM     36  N   UNL     1       1.611  -4.205  -0.758  0.00  0.00    -0.380 N 
ATOM     37  C   UNL     1       1.936  -2.794  -0.522  0.00  0.00    +0.144 C 
ATOM     38  H   UNL     1       2.124  -4.965  -0.441  0.00  0.00    +0.160 HD
ENDBRANCH  28  29
ENDBRANCH  27  28
ENDBRANCH  22  27
ENDBRANCH  21  23
ENDBRANCH   1  21
TORSDOF 8
