REMARK  Name = ZINC13398762
REMARK  7 active torsions:
REMARK  status: ('A' for Active; 'I' for Inactive)
REMARK    1  A    between atoms: C_3  and  S_22
REMARK    2  A    between atoms: C_6  and  N_7
REMARK    3  A    between atoms: C_8  and  C_10
REMARK    4  A    between atoms: C_10  and  N_11
REMARK    5  A    between atoms: C_13  and  C_18
REMARK    6  A    between atoms: S_22  and  N_25
REMARK    7  A    between atoms: C_29  and  C_32
REMARK                            x       y       z     vdW  Elec       q    Type
REMARK                         _______ _______ _______ _____ _____    ______ ____
ROOT
ATOM      1  C   UNL     1       4.853  -1.130  -4.067  0.00  0.00    +0.025 A 
ATOM      2  C   UNL     1       5.245  -1.240  -5.387  0.00  0.00    +0.030 A 
ATOM      3  C   UNL     1       6.420  -1.896  -5.708  0.00  0.00    +0.106 A 
ATOM      4  C   UNL     1       7.207  -2.439  -4.709  0.00  0.00    +0.030 A 
ATOM      5  C   UNL     1       6.822  -2.328  -3.388  0.00  0.00    +0.025 A 
ATOM      6  C   UNL     1       5.644  -1.670  -3.062  0.00  0.00    +0.034 A 
ENDROOT
BRANCH   6   7
ATOM      7  N   UNL     1       5.251  -1.556  -1.724  0.00  0.00    -0.284 N 
ATOM      8  C   UNL     1       6.180  -1.401  -0.759  0.00  0.00    +0.237 C 
ATOM      9  O   UNL     1       7.359  -1.444  -1.041  0.00  0.00    -0.274 OA
ATOM     10  H   UNL     1       4.310  -1.589  -1.490  0.00  0.00    +0.155 HD
BRANCH   8  11
ATOM     11  C   UNL     1       5.754  -1.175   0.668  0.00  0.00    +0.220 C 
BRANCH  11  12
ATOM     12  N   UNL     1       6.940  -1.038   1.516  0.00  0.00    -0.306 N 
ATOM     13  C   UNL     1       7.486  -2.140   2.091  0.00  0.00    +0.102 A 
ATOM     14  C   UNL     1       8.582  -2.039   2.878  0.00  0.00    +0.071 A 
ATOM     15  C   UNL     1       9.165  -0.785   3.107  0.00  0.00    +0.019 A 
ATOM     16  C   UNL     1       8.616   0.322   2.529  0.00  0.00    +0.071 A 
ATOM     17  C   UNL     1       7.478   0.181   1.717  0.00  0.00    +0.252 A 
ATOM     18  O   UNL     1       6.976   1.163   1.194  0.00  0.00    -0.268 OA
BRANCH  14  19
ATOM     19  C   UNL     1       9.175  -3.273   3.507  0.00  0.00    +0.419 C 
ATOM     20  F   UNL     1      10.210  -3.757   2.701  0.00  0.00    -0.166 F 
ATOM     21  F   UNL     1       9.680  -2.954   4.773  0.00  0.00    -0.166 F 
ATOM     22  F   UNL     1       8.185  -4.254   3.634  0.00  0.00    -0.166 F 
ENDBRANCH  14  19
ENDBRANCH  11  12
ENDBRANCH   8  11
ENDBRANCH   6   7
BRANCH   3  23
ATOM     23  S   UNL     1       6.913  -2.041  -7.393  0.00  0.00    +0.061 S 
ATOM     24  O   UNL     1       6.285  -0.977  -8.094  0.00  0.00    -0.153 OA
ATOM     25  O   UNL     1       8.323  -2.223  -7.389  0.00  0.00    -0.153 OA
BRANCH  23  26
ATOM     26  N   UNL     1       6.257  -3.445  -7.977  0.00  0.00    -0.176 NA
ATOM     27  C   UNL     1       4.925  -3.447  -8.598  0.00  0.00    +0.109 C 
ATOM     28  C   UNL     1       4.058  -4.501  -7.902  0.00  0.00    +0.018 C 
ATOM     29  C   UNL     1       4.774  -5.853  -7.945  0.00  0.00    +0.017 C 
ATOM     30  C   UNL     1       6.104  -5.752  -7.196  0.00  0.00    +0.118 C 
ATOM     31  C   UNL     1       6.997  -4.711  -7.889  0.00  0.00    +0.124 C 
BRANCH  30  32
ATOM     32  C   UNL     1       6.793  -7.092  -7.210  0.00  0.00    +0.360 C 
ATOM     33  O   UNL     1       7.884  -7.206  -7.715  0.00  0.00    -0.246 OA
ATOM     34  O   UNL     1       6.193  -8.160  -6.661  0.00  0.00    -0.246 OA
ENDBRANCH  30  32
ENDBRANCH  23  26
ENDBRANCH   3  23
TORSDOF 7
