REMARK  Name = ZINC05530715
REMARK  11 active torsions:
REMARK  status: ('A' for Active; 'I' for Inactive)
REMARK    1  A    between atoms: C_1  and  C_2
REMARK    2  A    between atoms: C_5  and  O_9
REMARK    3  A    between atoms: C_6  and  C_8
REMARK    4  A    between atoms: O_9  and  C_10
REMARK    5  A    between atoms: C_11  and  C_21
REMARK    6  A    between atoms: C_22  and  C_23
REMARK    7  A    between atoms: C_22  and  C_25
REMARK    8  A    between atoms: N_27  and  C_28
REMARK    9  A    between atoms: C_28  and  C_29
REMARK   10  A    between atoms: C_29  and  O_30
REMARK   11  A    between atoms: O_30  and  C_31
REMARK                            x       y       z     vdW  Elec       q    Type
REMARK                         _______ _______ _______ _____ _____    ______ ____
ROOT
ATOM      1  C   UNL     1      -1.258   3.413  -0.366  0.00  0.00    +0.235 A 
ATOM      2  C   UNL     1      -1.327   2.010  -0.184  0.00  0.00    +0.103 A 
ATOM      3  C   UNL     1      -0.113   1.293  -0.021  0.00  0.00    +0.269 A 
ATOM      4  O   UNL     1      -0.123   0.086   0.141  0.00  0.00    -0.266 OA
ATOM      5  N   UNL     1       1.054   1.972  -0.053  0.00  0.00    -0.268 N 
ATOM      6  C   UNL     1       2.225   1.292   0.097  0.00  0.00    +0.096 A 
ATOM      7  C   UNL     1       3.411   1.941   0.070  0.00  0.00    +0.018 A 
ATOM      8  C   UNL     1       3.448   3.329  -0.115  0.00  0.00    +0.005 A 
ATOM      9  C   UNL     1       2.280   4.019  -0.267  0.00  0.00    +0.047 A 
ATOM     10  C   UNL     1       1.057   3.326  -0.236  0.00  0.00    +0.144 A 
ATOM     11  N   UNL     1      -0.079   4.010  -0.387  0.00  0.00    -0.194 NA
ENDROOT
BRANCH   2  12
ATOM     12  C   UNL     1      -2.567   1.346  -0.164  0.00  0.00    +0.042 C 
ATOM     13  C   UNL     1      -3.545   1.729   0.743  0.00  0.00    +0.114 C 
BRANCH  13  14
ATOM     14  C   UNL     1      -4.879   1.124   0.682  0.00  0.00    +0.254 C 
ATOM     15  O   UNL     1      -5.129   0.286  -0.164  0.00  0.00    -0.269 OA
ATOM     16  N   UNL     1      -5.829   1.496   1.563  0.00  0.00    -0.309 N 
ATOM     17  H   UNL     1      -5.630   2.164   2.238  0.00  0.00    +0.149 HD
BRANCH  16  18
ATOM     18  C   UNL     1      -7.162   0.891   1.502  0.00  0.00    +0.132 C 
BRANCH  18  19
ATOM     19  C   UNL     1      -8.042   1.484   2.604  0.00  0.00    +0.178 C 
BRANCH  19  20
ATOM     20  O   UNL     1      -8.246   2.876   2.353  0.00  0.00    -0.381 OA
ATOM     21  C   UNL     1      -9.060   3.530   3.330  0.00  0.00    +0.194 C 
ENDBRANCH  19  20
ENDBRANCH  18  19
ENDBRANCH  16  18
ENDBRANCH  13  14
BRANCH  13  22
ATOM     22  C   UNL     1      -3.251   2.715   1.739  0.00  0.00    +0.104 C 
ATOM     23  N   UNL     1      -3.017   3.497   2.529  0.00  0.00    -0.191 NA
ENDBRANCH  13  22
ENDBRANCH   2  12
BRANCH   1  24
ATOM     24  O   UNL     1      -2.390   4.136  -0.522  0.00  0.00    -0.437 OA
BRANCH  24  29
ATOM     25  C   UNL     1      -1.903   9.718  -1.097  0.00  0.00    +0.044 C 
ATOM     26  C   UNL     1      -2.033   8.225  -0.944  0.00  0.00    -0.050 A 
ATOM     27  C   UNL     1      -2.253   7.676   0.307  0.00  0.00    +0.007 A 
ATOM     28  C   UNL     1      -2.372   6.308   0.451  0.00  0.00    +0.047 A 
ATOM     29  C   UNL     1      -2.272   5.483  -0.661  0.00  0.00    +0.133 A 
ATOM     30  C   UNL     1      -2.047   6.035  -1.913  0.00  0.00    -0.008 A 
ATOM     31  C   UNL     1      -1.933   7.405  -2.053  0.00  0.00    +0.010 A 
ATOM     32  C   UNL     1      -1.932   5.142  -3.122  0.00  0.00    +0.047 C 
ENDBRANCH  24  29
ENDBRANCH   1  24
TORSDOF 8
