REMARK  Name = ZINC35572474
REMARK  14 active torsions:
REMARK  status: ('A' for Active; 'I' for Inactive)
REMARK    1  A    between atoms: C_1  and  C_2
REMARK    2  A    between atoms: C_2  and  C_37
REMARK    3  A    between atoms: C_6  and  O_36
REMARK    4  A    between atoms: C_8  and  C_14
REMARK    5  A    between atoms: C_14  and  N_15
REMARK    6  A    between atoms: N_15  and  C_16
REMARK    7  A    between atoms: N_15  and  C_31
REMARK    8  A    between atoms: C_16  and  C_17
REMARK    9  A    between atoms: C_20  and  O_23
REMARK   10  A    between atoms: O_23  and  C_24
REMARK   11  A    between atoms: C_24  and  C_25
REMARK   12  A    between atoms: C_31  and  C_32
REMARK   13  A    between atoms: C_32  and  O_34
REMARK   14  A    between atoms: O_34  and  C_35
REMARK                            x       y       z     vdW  Elec       q    Type
REMARK                         _______ _______ _______ _____ _____    ______ ____
ROOT
ATOM      1  N   UNL     1      -2.890  -0.172   4.935  0.00  0.00    +0.391 N 
ATOM      2  H   UNL     1      -3.435   0.597   4.576  0.00  0.00    -0.080 HD
ENDROOT
BRANCH   1   3
ATOM      3  C   UNL     1      -2.933  -1.289   3.982  0.00  0.00    -0.043 C 
BRANCH   3   9
ATOM      4  C   UNL     1      -8.608  -1.156   3.246  0.00  0.00    +0.074 C 
ATOM      5  C   UNL     1      -7.728  -1.594   2.073  0.00  0.00    +0.168 C 
ATOM      6  O   UNL     1      -6.861  -2.660   2.492  0.00  0.00    -0.338 OA
ATOM      7  C   UNL     1      -5.628  -2.446   1.767  0.00  0.00    +0.208 C 
ATOM      8  C   UNL     1      -4.445  -2.827   2.690  0.00  0.00    +0.175 C 
ATOM      9  C   UNL     1      -4.390  -1.648   3.682  0.00  0.00    +0.136 C 
ATOM     10  O   UNL     1      -5.050  -0.536   3.072  0.00  0.00    -0.345 OA
ATOM     11  C   UNL     1      -5.543  -0.887   1.758  0.00  0.00    +0.285 C 
ATOM     12  O   UNL     1      -6.923  -0.491   1.636  0.00  0.00    -0.318 OA
ATOM     13  C   UNL     1      -8.611  -2.075   0.919  0.00  0.00    +0.074 C 
BRANCH   8  14
ATOM     14  O   UNL     1      -3.231  -2.920   1.942  0.00  0.00    -0.387 OA
ATOM     15  H   UNL     1      -3.245  -3.598   1.252  0.00  0.00    +0.210 HD
ENDBRANCH   8  14
ENDBRANCH   3   9
ENDBRANCH   1   3
BRANCH   1  16
ATOM     16  C   UNL     1      -3.445  -0.607   6.224  0.00  0.00    -0.042 C 
BRANCH  16  17
ATOM     17  C   UNL     1      -3.514   0.570   7.163  0.00  0.00    -0.064 A 
ATOM     18  C   UNL     1      -2.439   0.864   7.981  0.00  0.00    +0.005 A 
ATOM     19  C   UNL     1      -2.500   1.942   8.843  0.00  0.00    +0.046 A 
ATOM     20  C   UNL     1      -3.641   2.729   8.887  0.00  0.00    +0.121 A 
ATOM     21  C   UNL     1      -4.718   2.432   8.065  0.00  0.00    +0.046 A 
ATOM     22  C   UNL     1      -4.650   1.357   7.201  0.00  0.00    +0.005 A 
BRANCH  20  23
ATOM     23  O   UNL     1      -3.704   3.790   9.735  0.00  0.00    -0.487 OA
BRANCH  23  24
ATOM     24  C   UNL     1      -4.910   4.556   9.727  0.00  0.00    +0.264 C 
BRANCH  24  25
ATOM     25  C   UNL     1      -4.796   5.682  10.722  0.00  0.00    -0.010 A 
ATOM     26  C   UNL     1      -5.194   5.489  12.032  0.00  0.00    +0.007 A 
ATOM     27  C   UNL     1      -5.090   6.521  12.945  0.00  0.00    +0.000 A 
ATOM     28  C   UNL     1      -4.588   7.746  12.549  0.00  0.00    +0.000 A 
ATOM     29  C   UNL     1      -4.189   7.939  11.240  0.00  0.00    +0.000 A 
ATOM     30  C   UNL     1      -4.289   6.905  10.328  0.00  0.00    +0.007 A 
ENDBRANCH  24  25
ENDBRANCH  23  24
ENDBRANCH  20  23
ENDBRANCH  16  17
ENDBRANCH   1  16
BRANCH   1  31
ATOM     31  C   UNL     1      -1.498   0.258   5.121  0.00  0.00    +0.044 C 
BRANCH  31  32
ATOM     32  C   UNL     1      -0.988   0.877   3.845  0.00  0.00    +0.290 C 
ATOM     33  O   UNL     1      -1.692   0.902   2.863  0.00  0.00    -0.253 OA
BRANCH  32  34
ATOM     34  O   UNL     1       0.247   1.400   3.799  0.00  0.00    -0.469 OA
ATOM     35  C   UNL     1       0.625   2.068   2.594  0.00  0.00    +0.280 C 
ENDBRANCH  32  34
ENDBRANCH  31  32
ENDBRANCH   1  31
TORSDOF 11
