REMARK  Name = ZINC26479360
REMARK  8 active torsions:
REMARK  status: ('A' for Active; 'I' for Inactive)
REMARK    1  A    between atoms: C_1  and  C_2
REMARK    2  A    between atoms: C_2  and  C_4
REMARK    3  A    between atoms: C_2  and  S_20
REMARK    4  A    between atoms: N_6  and  C_7
REMARK    5  A    between atoms: C_10  and  N_17
REMARK    6  A    between atoms: C_12  and  C_13
REMARK    7  A    between atoms: S_20  and  C_21
REMARK    8  A    between atoms: C_25  and  C_27
REMARK                            x       y       z     vdW  Elec       q    Type
REMARK                         _______ _______ _______ _____ _____    ______ ____
ROOT
ATOM      1  C   UNL     1      -6.168   3.509   4.189  0.00  0.00    +0.230 C 
ATOM      2  O   UNL     1      -6.915   3.632   3.241  0.00  0.00    -0.274 OA
ATOM      3  N   UNL     1      -6.664   3.518   5.442  0.00  0.00    -0.284 N 
ATOM      4  H   UNL     1      -6.001   3.316   6.297  0.00  0.00    +0.155 HD
ENDROOT
BRANCH   3   5
ATOM      5  C   UNL     1      -8.021   3.783   5.657  0.00  0.00    +0.045 A 
ATOM      6  C   UNL     1      -8.742   4.520   4.725  0.00  0.00    +0.026 A 
ATOM      7  C   UNL     1     -10.081   4.779   4.939  0.00  0.00    +0.034 A 
ATOM      8  C   UNL     1     -10.704   4.307   6.080  0.00  0.00    +0.127 A 
ATOM      9  C   UNL     1      -9.990   3.574   7.009  0.00  0.00    +0.047 A 
ATOM     10  C   UNL     1      -8.651   3.306   6.798  0.00  0.00    +0.078 A 
BRANCH  10  11
ATOM     11  C   UNL     1      -7.875   2.502   7.809  0.00  0.00    +0.419 C 
ATOM     12  F   UNL     1      -8.719   2.136   8.862  0.00  0.00    -0.166 F 
ATOM     13  F   UNL     1      -7.367   1.351   7.197  0.00  0.00    -0.166 F 
ATOM     14  F   UNL     1      -6.817   3.272   8.304  0.00  0.00    -0.166 F 
ENDBRANCH  10  11
BRANCH   8  15
ATOM     15  N   UNL     1     -12.140   4.587   6.306  0.00  0.00    +0.056 N 
ATOM     16  O   UNL     1     -12.771   5.232   5.488  0.00  0.00    -0.126 OA
ATOM     17  O   UNL     1     -12.691   4.172   7.310  0.00  0.00    -0.126 OA
ENDBRANCH   8  15
ENDBRANCH   3   5
BRANCH   1  19
ATOM     18  C   UNL     1      -3.988   4.689   4.192  0.00  0.00    +0.029 C 
ATOM     19  C   UNL     1      -4.687   3.348   3.965  0.00  0.00    +0.137 C 
BRANCH  19  20
ATOM     20  S   UNL     1      -4.390   2.791   2.269  0.00  0.00    -0.074 S 
BRANCH  20  21
ATOM     21  C   UNL     1      -2.647   2.544   2.328  0.00  0.00    +0.189 A 
ATOM     22  N   UNL     1      -1.997   2.786   3.458  0.00  0.00    -0.230 NA
ATOM     23  C   UNL     1      -0.688   2.611   3.536  0.00  0.00    +0.116 A 
ATOM     24  C   UNL     1       0.003   2.170   2.418  0.00  0.00    +0.052 A 
ATOM     25  C   UNL     1      -0.707   1.927   1.253  0.00  0.00    +0.148 A 
ATOM     26  N   UNL     1      -2.015   2.127   1.241  0.00  0.00    -0.218 NA
BRANCH  25  27
ATOM     27  C   UNL     1       0.003   1.446   0.014  0.00  0.00    +0.434 C 
ATOM     28  F   UNL     1       0.033   0.047   0.007  0.00  0.00    -0.164 F 
ATOM     29  F   UNL     1       1.311   1.940   0.004  0.00  0.00    -0.164 F 
ATOM     30  F   UNL     1      -0.677   1.903  -1.120  0.00  0.00    -0.164 F 
ENDBRANCH  25  27
ENDBRANCH  20  21
ENDBRANCH  19  20
ENDBRANCH   1  19
TORSDOF 7
