REMARK  Name = ZINC28059521
REMARK  6 active torsions:
REMARK  status: ('A' for Active; 'I' for Inactive)
REMARK    1  A    between atoms: C_1  and  O_2
REMARK    2  A    between atoms: O_2  and  C_3
REMARK    3  A    between atoms: C_6  and  C_11
REMARK    4  A    between atoms: C_8  and  O_9
REMARK    5  A    between atoms: O_9  and  C_10
REMARK    6  A    between atoms: C_22  and  C_24
REMARK                            x       y       z     vdW  Elec       q    Type
REMARK                         _______ _______ _______ _____ _____    ______ ____
ROOT
ATOM      1  C   UNL     1       2.694  -0.198   2.253  0.00  0.00    +0.174 C 
ATOM      2  C   UNL     1       3.046   0.989   1.389  0.00  0.00    +0.025 C 
ATOM      3  C   UNL     1       3.821   1.984   1.825  0.00  0.00    +0.050 C 
ATOM      4  C   UNL     1       4.113   3.107   0.902  0.00  0.00    +0.038 A 
ATOM      5  C   UNL     1       4.606   4.320   1.365  0.00  0.00    +0.013 A 
ATOM      6  C   UNL     1       4.865   5.337   0.466  0.00  0.00    +0.001 A 
ATOM      7  C   UNL     1       4.635   5.150  -0.886  0.00  0.00    +0.004 A 
ATOM      8  C   UNL     1       4.144   3.945  -1.355  0.00  0.00    +0.046 A 
ATOM      9  C   UNL     1       3.881   2.919  -0.467  0.00  0.00    +0.131 A 
ATOM     10  O   UNL     1       3.397   1.722  -0.887  0.00  0.00    -0.479 OA
ATOM     11  C   UNL     1       2.490   1.047  -0.016  0.00  0.00    +0.234 C 
ATOM     12  N   UNL     1       4.368   1.997   3.113  0.00  0.00    -0.282 N 
ATOM     13  C   UNL     1       4.317   0.817   3.837  0.00  0.00    +0.240 A 
ATOM     14  N   UNL     1       3.539  -0.224   3.438  0.00  0.00    -0.201 N 
ATOM     15  N   UNL     1       3.745  -1.226   4.385  0.00  0.00    -0.042 NA
ATOM     16  N   UNL     1       4.582  -0.750   5.249  0.00  0.00    -0.021 NA
ATOM     17  N   UNL     1       4.920   0.453   4.931  0.00  0.00    -0.092 NA
ATOM     18  H   UNL     1       4.815   2.919   3.512  0.00  0.00    +0.155 HD
ENDROOT
BRANCH  11  19
ATOM     19  C   UNL     1       1.175   1.783   0.000  0.00  0.00    -0.002 A 
ATOM     20  C   UNL     1       1.153   3.155   0.173  0.00  0.00    +0.007 A 
ATOM     21  C   UNL     1      -0.053   3.830   0.193  0.00  0.00    +0.001 A 
ATOM     22  C   UNL     1      -1.237   3.135   0.030  0.00  0.00    +0.015 A 
ATOM     23  C   UNL     1      -1.215   1.763  -0.143  0.00  0.00    +0.018 A 
ATOM     24  C   UNL     1      -0.008   1.087  -0.158  0.00  0.00    +0.022 A 
ATOM     25 BR   UNL     1      -2.835   0.811  -0.359  0.00  0.00    -0.050 Br
ENDBRANCH  11  19
BRANCH   1  29
ATOM     26  C   UNL     1      -1.404   0.092   3.441  0.00  0.00    +0.162 A 
ATOM     27  C   UNL     1      -0.504   1.083   3.799  0.00  0.00    +0.050 A 
ATOM     28  C   UNL     1       0.820   0.986   3.413  0.00  0.00    +0.010 A 
ATOM     29  C   UNL     1       1.250  -0.098   2.670  0.00  0.00    -0.015 A 
ATOM     30  C   UNL     1       0.356  -1.087   2.305  0.00  0.00    +0.055 A 
ATOM     31  C   UNL     1      -0.972  -0.999   2.693  0.00  0.00    +0.162 A 
BRANCH  26  33
ATOM     32  C   UNL     1      -3.079   1.334   4.585  0.00  0.00    +0.277 C 
ATOM     33  O   UNL     1      -2.707   0.186   3.819  0.00  0.00    -0.491 OA
ENDBRANCH  26  33
BRANCH  31  34
ATOM     34  O   UNL     1      -1.851  -1.974   2.339  0.00  0.00    -0.491 OA
ATOM     35  C   UNL     1      -1.337  -3.064   1.571  0.00  0.00    +0.277 C 
ENDBRANCH  31  34
ENDBRANCH   1  29
TORSDOF 4
