REMARK  Name = ZINC32944078
REMARK  8 active torsions:
REMARK  status: ('A' for Active; 'I' for Inactive)
REMARK    1  A    between atoms: C_1  and  C_2
REMARK    2  A    between atoms: C_5  and  C_8
REMARK    3  A    between atoms: C_9  and  C_10
REMARK    4  A    between atoms: C_11  and  S_16
REMARK    5  A    between atoms: C_12  and  C_15
REMARK    6  A    between atoms: S_16  and  N_19
REMARK    7  A    between atoms: C_23  and  C_26
REMARK    8  A    between atoms: N_28  and  C_29
REMARK                            x       y       z     vdW  Elec       q    Type
REMARK                         _______ _______ _______ _____ _____    ______ ____
ROOT
ATOM      1  S   UNL     1      -8.634   3.377   0.528  0.00  0.00    +0.066 S 
ATOM      2  O   UNL     1      -9.785   3.744  -0.220  0.00  0.00    -0.153 OA
ATOM      3  O   UNL     1      -8.480   2.087   1.105  0.00  0.00    -0.153 OA
ENDROOT
BRANCH   1   5
ATOM      4  C   UNL     1      -9.001   5.816   1.905  0.00  0.00    +0.187 A 
ATOM      5  C   UNL     1      -8.499   4.538   1.847  0.00  0.00    +0.174 A 
ATOM      6  C   UNL     1      -7.857   4.371   3.089  0.00  0.00    +0.107 A 
ATOM      7  N   UNL     1      -8.008   5.489   3.741  0.00  0.00    -0.081 NA
ATOM      8  O   UNL     1      -8.640   6.302   3.108  0.00  0.00    -0.353 OA
ATOM      9  C   UNL     1      -7.133   3.139   3.569  0.00  0.00    +0.071 C 
BRANCH   4  11
ATOM     10  C   UNL     1     -10.197   7.769   1.076  0.00  0.00    +0.011 C 
ATOM     11  C   UNL     1      -9.771   6.508   0.869  0.00  0.00    +0.051 C 
BRANCH  10  16
ATOM     12  C   UNL     1     -13.220  10.488  -2.990  0.00  0.00    +0.044 C 
ATOM     13  C   UNL     1     -12.427   9.775  -1.925  0.00  0.00    -0.050 A 
ATOM     14  C   UNL     1     -12.139  10.420  -0.734  0.00  0.00    +0.004 A 
ATOM     15  C   UNL     1     -11.414   9.774   0.245  0.00  0.00    +0.008 A 
ATOM     16  C   UNL     1     -10.971   8.466   0.034  0.00  0.00    -0.025 A 
ATOM     17  C   UNL     1     -11.261   7.823  -1.173  0.00  0.00    +0.008 A 
ATOM     18  C   UNL     1     -11.992   8.479  -2.141  0.00  0.00    +0.004 A 
ENDBRANCH  10  16
ENDBRANCH   4  11
ENDBRANCH   1   5
BRANCH   1  19
ATOM     19  N   UNL     1      -7.329   3.610  -0.465  0.00  0.00    -0.176 NA
ATOM     20  C   UNL     1      -7.402   4.556  -1.586  0.00  0.00    +0.109 C 
ATOM     21  C   UNL     1      -6.235   5.543  -1.475  0.00  0.00    +0.018 C 
ATOM     22  C   UNL     1      -4.920   4.764  -1.394  0.00  0.00    +0.015 C 
ATOM     23  C   UNL     1      -4.925   3.879  -0.145  0.00  0.00    +0.091 C 
ATOM     24  C   UNL     1      -6.077   2.874  -0.241  0.00  0.00    +0.122 C 
BRANCH  23  25
ATOM     25  C   UNL     1      -3.617   3.138  -0.048  0.00  0.00    +0.222 C 
ATOM     26  O   UNL     1      -3.606   1.925  -0.056  0.00  0.00    -0.275 OA
ATOM     27  N   UNL     1      -2.460   3.822   0.046  0.00  0.00    -0.283 N 
ATOM     28  H   UNL     1      -2.475   4.917   0.144  0.00  0.00    +0.155 HD
BRANCH  27  29
ATOM     29  C   UNL     1      -1.238   3.138   0.019  0.00  0.00    +0.069 A 
ATOM     30  C   UNL     1      -1.149   1.897  -0.597  0.00  0.00    +0.027 A 
ATOM     31  C   UNL     1       0.056   1.222  -0.617  0.00  0.00    +0.022 A 
ATOM     32  C   UNL     1       1.178   1.785  -0.034  0.00  0.00    +0.044 A 
ATOM     33  C   UNL     1       1.095   3.025   0.576  0.00  0.00    +0.060 A 
ATOM     34  C   UNL     1      -0.110   3.703   0.604  0.00  0.00    +0.146 A 
ATOM     35  F   UNL     1      -0.192   4.913   1.200  0.00  0.00    -0.203 F 
ATOM     36 CL   UNL     1       2.691   0.936  -0.068  0.00  0.00    -0.083 Cl
ENDBRANCH  27  29
ENDBRANCH  23  25
ENDBRANCH   1  19
TORSDOF 6
