REMARK  Name = ZINC12913115
REMARK  7 active torsions:
REMARK  status: ('A' for Active; 'I' for Inactive)
REMARK    1  A    between atoms: C_1  and  C_2
REMARK    2  A    between atoms: C_7  and  N_8
REMARK    3  A    between atoms: C_9  and  C_11
REMARK    4  A    between atoms: C_11  and  N_47
REMARK    5  A    between atoms: C_12  and  C_13
REMARK    6  A    between atoms: C_12  and  N_47
REMARK    7  A    between atoms: C_18  and  N_47
REMARK                            x       y       z     vdW  Elec       q    Type
REMARK                         _______ _______ _______ _____ _____    ______ ____
ROOT
ATOM      1  N   UNL     1       3.822  -4.694  -0.359  0.00  0.00    +0.393 N 
ATOM      2  H   UNL     1       4.322  -4.153  -1.073  0.00  0.00    -0.080 HD
ENDROOT
BRANCH   1   3
ATOM      3  C   UNL     1       4.421  -4.415   0.963  0.00  0.00    -0.045 C 
ATOM      4  C   UNL     1       5.932  -4.187   0.785  0.00  0.00    +0.009 C 
ATOM      5  C   UNL     1       6.633  -4.196   2.165  0.00  0.00    +0.164 C 
ATOM      6  S   UNL     1       5.540  -5.285   3.167  0.00  0.00    -0.033 S 
ATOM      7  O   UNL     1       4.984  -4.527   4.233  0.00  0.00    -0.174 OA
ATOM      8  O   UNL     1       6.228  -6.495   3.452  0.00  0.00    -0.174 OA
ATOM      9  C   UNL     1       4.223  -5.623   1.923  0.00  0.00    +0.151 C 
ENDBRANCH   1   3
BRANCH   1  10
ATOM     10  C   UNL     1       2.399  -4.295  -0.362  0.00  0.00    +0.020 C 
BRANCH  10  12
ATOM     11  N   UNL     1       1.116  -2.189  -0.170  0.00  0.00    -0.287 N 
ATOM     12  C   UNL     1       2.316  -2.792  -0.282  0.00  0.00    +0.201 C 
ATOM     13  O   UNL     1       3.329  -2.126  -0.318  0.00  0.00    -0.278 OA
ATOM     14  H   UNL     1       0.312  -2.722  -0.070  0.00  0.00    +0.155 HD
BRANCH  11  21
ATOM     15  C   UNL     1      -1.129  -0.955   1.068  0.00  0.00    +0.046 C 
ATOM     16  C   UNL     1      -0.049  -0.149   0.393  0.00  0.00    -0.028 A 
ATOM     17  C   UNL     1      -0.131   1.229   0.363  0.00  0.00    +0.019 A 
ATOM     18  C   UNL     1       0.859   1.969  -0.257  0.00  0.00    +0.014 A 
ATOM     19  C   UNL     1       1.935   1.331  -0.848  0.00  0.00    +0.016 A 
ATOM     20  C   UNL     1       2.023  -0.046  -0.821  0.00  0.00    +0.024 A 
ATOM     21  C   UNL     1       1.030  -0.792  -0.199  0.00  0.00    +0.036 A 
ATOM     22  I   UNL     1       0.730   4.060  -0.302  0.00  0.00    -0.044 I 
ENDBRANCH  11  21
ENDBRANCH  10  12
ENDBRANCH   1  10
BRANCH   1  23
ATOM     23  C   UNL     1       3.943  -6.133  -0.675  0.00  0.00    -0.002 C 
BRANCH  23  24
ATOM     24  C   UNL     1       5.397  -6.459  -0.904  0.00  0.00    +0.089 A 
ATOM     25  C   UNL     1       6.229  -7.015  -0.006  0.00  0.00    +0.042 A 
ATOM     26  C   UNL     1       7.487  -7.144  -0.639  0.00  0.00    +0.041 A 
ATOM     27  C   UNL     1       7.350  -6.652  -1.883  0.00  0.00    +0.195 A 
ATOM     28  O   UNL     1       6.081  -6.239  -2.038  0.00  0.00    -0.470 OA
ENDBRANCH  23  24
ENDBRANCH   1  23
TORSDOF 6
