REMARK  Name = ZINC63350064
REMARK  14 active torsions:
REMARK  status: ('A' for Active; 'I' for Inactive)
REMARK    1  A    between atoms: C_1  and  C_2
REMARK    2  A    between atoms: C_2  and  O_3
REMARK    3  A    between atoms: O_3  and  C_4
REMARK    4  A    between atoms: C_4  and  C_6
REMARK    5  A    between atoms: C_11  and  C_12
REMARK    6  A    between atoms: C_12  and  O_13
REMARK    7  A    between atoms: O_13  and  C_14
REMARK    8  A    between atoms: C_14  and  C_15
REMARK    9  A    between atoms: C_17  and  C_23
REMARK   10  A    between atoms: C_20  and  O_21
REMARK   11  A    between atoms: O_21  and  C_22
REMARK   12  A    between atoms: C_36  and  C_39
REMARK   13  A    between atoms: C_39  and  O_41
REMARK   14  A    between atoms: O_41  and  C_42
REMARK                            x       y       z     vdW  Elec       q    Type
REMARK                         _______ _______ _______ _____ _____    ______ ____
ROOT
ATOM      1  C   UNL     1      -1.812  -8.376  -0.218  0.00  0.00    +0.020 A 
ATOM      2  C   UNL     1      -3.177  -8.583  -0.169  0.00  0.00    +0.014 A 
ATOM      3  C   UNL     1      -3.681  -9.870  -0.138  0.00  0.00    -0.028 A 
ATOM      4  C   UNL     1      -2.821 -10.953  -0.157  0.00  0.00    +0.009 A 
ATOM      5  C   UNL     1      -1.456 -10.751  -0.206  0.00  0.00    +0.046 A 
ATOM      6  C   UNL     1      -0.947  -9.460  -0.243  0.00  0.00    +0.125 A 
ENDROOT
BRANCH   3   7
ATOM      7  C   UNL     1      -5.171 -10.094  -0.083  0.00  0.00    +0.111 C 
ATOM      8  C   UNL     1      -5.691 -10.445  -1.479  0.00  0.00    +0.128 C 
ATOM      9  C   UNL     1      -7.158 -10.820  -1.304  0.00  0.00    -0.035 C 
ATOM     10  C   UNL     1      -7.843 -10.056  -2.143  0.00  0.00    -0.001 A 
ATOM     11  C   UNL     1      -9.273 -10.014  -2.490  0.00  0.00    +0.010 A 
ATOM     12  C   UNL     1      -9.643  -9.074  -3.400  0.00  0.00    +0.001 A 
ATOM     13  C   UNL     1      -8.744  -8.182  -3.993  0.00  0.00    +0.002 A 
ATOM     14  C   UNL     1      -7.411  -8.153  -3.737  0.00  0.00    +0.026 A 
ATOM     15  C   UNL     1      -6.902  -9.098  -2.801  0.00  0.00    +0.043 A 
ATOM     16  N   UNL     1      -5.664  -9.305  -2.394  0.00  0.00    -0.376 N 
ATOM     17  C   UNL     1      -7.603 -11.817  -0.261  0.00  0.00    +0.063 C 
ATOM     18  C   UNL     1      -6.906 -11.407   1.049  0.00  0.00    +0.168 C 
ATOM     19  N   UNL     1      -5.471 -11.216   0.820  0.00  0.00    -0.295 NA
ATOM     20  H   UNL     1      -5.041 -12.068   0.493  0.00  0.00    +0.123 HD
ATOM     21  H   UNL     1      -4.877  -8.798  -2.645  0.00  0.00    +0.160 HD
BRANCH  18  22
ATOM     22  C   UNL     1      -7.504 -10.117   1.550  0.00  0.00    +0.324 C 
ATOM     23  O   UNL     1      -6.788  -9.179   1.809  0.00  0.00    -0.249 OA
BRANCH  22  24
ATOM     24  O   UNL     1      -8.833 -10.011   1.710  0.00  0.00    -0.467 OA
ATOM     25  C   UNL     1      -9.331  -8.761   2.189  0.00  0.00    +0.280 C 
ENDBRANCH  22  24
ENDBRANCH  18  22
ENDBRANCH   3   7
BRANCH   6  26
ATOM     26  O   UNL     1       0.396  -9.259  -0.297  0.00  0.00    -0.495 OA
ATOM     27  C   UNL     1       1.226 -10.422  -0.320  0.00  0.00    +0.277 C 
ENDBRANCH   6  26
BRANCH   1  28
ATOM     28  C   UNL     1      -1.263  -6.973  -0.252  0.00  0.00    +0.199 C 
BRANCH  28  29
ATOM     29  O   UNL     1      -2.343  -6.038  -0.218  0.00  0.00    -0.370 OA
BRANCH  29  30
ATOM     30  C   UNL     1      -1.929  -4.670  -0.246  0.00  0.00    +0.196 C 
BRANCH  30  36
ATOM     31  C   UNL     1      -2.991  -2.390  -0.224  0.00  0.00    +0.064 A 
ATOM     32  C   UNL     1      -4.121  -1.570  -0.192  0.00  0.00    +0.015 A 
ATOM     33  C   UNL     1      -5.378  -2.135  -0.139  0.00  0.00    +0.001 A 
ATOM     34  C   UNL     1      -5.521  -3.511  -0.115  0.00  0.00    +0.000 A 
ATOM     35  C   UNL     1      -4.406  -4.329  -0.146  0.00  0.00    +0.007 A 
ATOM     36  C   UNL     1      -3.143  -3.777  -0.206  0.00  0.00    -0.008 A 
BRANCH  31  37
ATOM     37  C   UNL     1      -1.641  -1.792  -0.281  0.00  0.00    +0.340 C 
ATOM     38  O   UNL     1      -0.661  -2.507  -0.313  0.00  0.00    -0.245 OA
BRANCH  37  39
ATOM     39  O   UNL     1      -1.499  -0.452  -0.298  0.00  0.00    -0.461 OA
BRANCH  39  41
ATOM     40  C   UNL     1      -0.203   1.587  -0.366  0.00  0.00    +0.048 C 
ATOM     41  C   UNL     1      -0.165   0.057  -0.355  0.00  0.00    +0.229 C 
ENDBRANCH  39  41
ENDBRANCH  37  39
ENDBRANCH  31  37
ENDBRANCH  30  36
ENDBRANCH  29  30
ENDBRANCH  28  29
ENDBRANCH   1  28
TORSDOF 11
