REMARK  Name = ZINC12690776
REMARK  10 active torsions:
REMARK  status: ('A' for Active; 'I' for Inactive)
REMARK    1  A    between atoms: C_4  and  C_7
REMARK    2  A    between atoms: C_7  and  N_8
REMARK    3  A    between atoms: C_9  and  C_11
REMARK    4  A    between atoms: C_16  and  N_17
REMARK    5  A    between atoms: C_18  and  C_20
REMARK    6  A    between atoms: C_20  and  N_21
REMARK    7  A    between atoms: C_22  and  C_24
REMARK    8  A    between atoms: N_26  and  C_27
REMARK    9  A    between atoms: C_27  and  C_28
REMARK   10  A    between atoms: C_28  and  C_29
REMARK                            x       y       z     vdW  Elec       q    Type
REMARK                         _______ _______ _______ _____ _____    ______ ____
ROOT
ATOM      1  N   UNL     1      -4.100   7.550   0.078  0.00  0.00    -0.284 N 
ATOM      2  C   UNL     1      -3.831   6.229   0.073  0.00  0.00    +0.234 C 
ATOM      3  O   UNL     1      -4.739   5.426   0.059  0.00  0.00    -0.274 OA
ATOM      4  H   UNL     1      -3.377   8.192   0.154  0.00  0.00    +0.155 HD
ENDROOT
BRANCH   1  10
ATOM      5  C   UNL     1      -5.711   9.168  -0.734  0.00  0.00    +0.058 A 
ATOM      6  C   UNL     1      -7.035   9.601  -0.831  0.00  0.00    +0.015 A 
ATOM      7  C   UNL     1      -8.042   8.875  -0.233  0.00  0.00    +0.001 A 
ATOM      8  C   UNL     1      -7.747   7.715   0.466  0.00  0.00    +0.002 A 
ATOM      9  C   UNL     1      -6.444   7.271   0.565  0.00  0.00    +0.024 A 
ATOM     10  C   UNL     1      -5.416   7.993  -0.026  0.00  0.00    +0.046 A 
BRANCH   5  12
ATOM     11  N   UNL     1      -4.900  11.124  -1.957  0.00  0.00    -0.307 N 
ATOM     12  C   UNL     1      -4.628   9.941  -1.372  0.00  0.00    +0.246 C 
ATOM     13  O   UNL     1      -3.491   9.510  -1.371  0.00  0.00    -0.270 OA
ATOM     14  H   UNL     1      -5.807  11.468  -1.958  0.00  0.00    +0.149 HD
BRANCH  11  15
ATOM     15  C   UNL     1      -3.825  11.892  -2.591  0.00  0.00    +0.139 C 
BRANCH  15  19
ATOM     16  C   UNL     1      -5.422  15.504  -4.218  0.00  0.00    +0.000 A 
ATOM     17  C   UNL     1      -4.952  15.480  -2.918  0.00  0.00    +0.000 A 
ATOM     18  C   UNL     1      -4.436  14.311  -2.392  0.00  0.00    +0.005 A 
ATOM     19  C   UNL     1      -4.389  13.166  -3.165  0.00  0.00    -0.030 A 
ATOM     20  C   UNL     1      -4.853  13.191  -4.466  0.00  0.00    +0.005 A 
ATOM     21  C   UNL     1      -5.375  14.359  -4.991  0.00  0.00    +0.000 A 
ENDBRANCH  15  19
ENDBRANCH  11  15
ENDBRANCH   5  12
ENDBRANCH   1  10
BRANCH   2  22
ATOM     22  C   UNL     1      -2.402   5.752   0.085  0.00  0.00    +0.200 C 
BRANCH  22  23
ATOM     23  N   UNL     1      -2.377   4.287   0.077  0.00  0.00    -0.299 N 
ATOM     24  C   UNL     1      -1.198   3.633   0.085  0.00  0.00    +0.299 C 
ATOM     25  O   UNL     1      -0.158   4.258   0.099  0.00  0.00    -0.265 OA
ATOM     26  H   UNL     1      -3.208   3.788   0.066  0.00  0.00    +0.150 HD
BRANCH  24  27
ATOM     27  C   UNL     1      -1.173   2.139   0.076  0.00  0.00    +0.299 C 
ATOM     28  O   UNL     1      -2.213   1.514   0.063  0.00  0.00    -0.265 OA
ATOM     29  N   UNL     1       0.006   1.485   0.085  0.00  0.00    -0.307 N 
ATOM     30  H   UNL     1       0.838   1.984   0.092  0.00  0.00    +0.149 HD
BRANCH  29  31
ATOM     31  C   UNL     1       0.031   0.020   0.077  0.00  0.00    +0.110 C 
BRANCH  31  32
ATOM     32  C   UNL     1       1.482  -0.465   0.082  0.00  0.00    +0.061 C 
BRANCH  32  33
ATOM     33  C   UNL     1       1.508  -1.972   0.073  0.00  0.00    -0.009 A 
ATOM     34  C   UNL     1       1.523  -2.820  -0.984  0.00  0.00    +0.011 A 
ATOM     35  C   UNL     1       1.550  -4.182  -0.751  0.00  0.00    +0.008 A 
ATOM     36  C   UNL     1       1.550  -4.630   0.528  0.00  0.00    +0.045 A 
ATOM     37  S   UNL     1       1.520  -3.104   1.454  0.00  0.00    -0.102 S 
ENDBRANCH  32  33
ENDBRANCH  31  32
ENDBRANCH  29  31
ENDBRANCH  24  27
ENDBRANCH  22  23
ENDBRANCH   2  22
TORSDOF 10
