REMARK  Name = ZINC12056643
REMARK  10 active torsions:
REMARK  status: ('A' for Active; 'I' for Inactive)
REMARK    1  A    between atoms: C_1  and  C_2
REMARK    2  A    between atoms: C_2  and  C_3
REMARK    3  A    between atoms: C_2  and  C_4
REMARK    4  A    between atoms: C_4  and  C_5
REMARK    5  A    between atoms: C_5  and  C_19
REMARK    6  A    between atoms: N_8  and  C_12
REMARK    7  A    between atoms: C_12  and  C_13
REMARK    8  A    between atoms: C_13  and  C_14
REMARK    9  A    between atoms: C_24  and  C_25
REMARK   10  A    between atoms: C_24  and  N_69
REMARK                            x       y       z     vdW  Elec       q    Type
REMARK                         _______ _______ _______ _____ _____    ______ ____
ROOT
ATOM      1  C   UNL     1       3.456  -0.853  -5.066  0.00  0.00    +0.115 C 
ATOM      2  C   UNL     1       3.643   0.601  -5.450  0.00  0.00    +0.247 C 
ATOM      3  O   UNL     1       2.774   1.419  -5.667  0.00  0.00    -0.273 OA
ATOM      4  N   UNL     1       4.975   0.796  -5.501  0.00  0.00    -0.224 N 
ATOM      5  C   UNL     1       5.649  -0.321  -5.206  0.00  0.00    +0.309 C 
ATOM      6  O   UNL     1       6.862  -0.394  -5.186  0.00  0.00    -0.252 OA
ATOM      7  N   UNL     1       4.834  -1.356  -4.932  0.00  0.00    -0.285 N 
ATOM      8  H   UNL     1       5.102  -2.257  -4.694  0.00  0.00    +0.151 HD
ENDROOT
BRANCH   1   9
ATOM      9  C   UNL     1       2.711  -0.967  -3.734  0.00  0.00    +0.018 C 
ATOM     10  C   UNL     1       3.376  -0.058  -2.696  0.00  0.00    -0.013 C 
ATOM     11  C   UNL     1       2.590  -0.129  -1.385  0.00  0.00    -0.078 C 
ATOM     12  C   UNL     1       0.531  -0.589  -2.577  0.00  0.00    -0.078 C 
ATOM     13  C   UNL     1       1.255  -0.531  -3.924  0.00  0.00    -0.013 C 
ATOM     14  N   UNL     1       1.205   0.325  -1.631  0.00  0.00    +0.382 N 
ATOM     15  H   UNL     1       1.230   1.267  -2.038  0.00  0.00    -0.081 HD
BRANCH  14  16
ATOM     16  C   UNL     1       0.457   0.375  -0.357  0.00  0.00    -0.043 C 
BRANCH  16  17
ATOM     17  C   UNL     1      -0.872   1.044  -0.600  0.00  0.00    -0.062 A 
ATOM     18  C   UNL     1      -0.974   2.429  -0.480  0.00  0.00    +0.002 A 
ATOM     19  C   UNL     1      -2.159   3.063  -0.692  0.00  0.00    +0.010 A 
ATOM     20  C   UNL     1      -3.295   2.313  -1.038  0.00  0.00    +0.000 A 
ATOM     21  C   UNL     1      -4.540   2.930  -1.266  0.00  0.00    +0.011 A 
ATOM     22  C   UNL     1      -5.601   2.137  -1.599  0.00  0.00    +0.020 A 
ATOM     23  C   UNL     1      -5.432   0.758  -1.704  0.00  0.00    +0.111 A 
ATOM     24  N   UNL     1      -4.272   0.186  -1.491  0.00  0.00    -0.255 NA
ATOM     25  C   UNL     1      -3.192   0.905  -1.168  0.00  0.00    +0.071 A 
ATOM     26  C   UNL     1      -1.952   0.287  -0.934  0.00  0.00    +0.030 A 
ENDBRANCH  16  17
ENDBRANCH  14  16
ENDBRANCH   1   9
BRANCH   1  27
ATOM     27  C   UNL     1       2.710  -1.612  -6.165  0.00  0.00    +0.038 C 
BRANCH  27  29
ATOM     28  C   UNL     1       2.912  -2.554  -8.470  0.00  0.00    +0.007 C 
ATOM     29  C   UNL     1       3.552  -1.619  -7.442  0.00  0.00    -0.015 C 
ATOM     30  C   UNL     1       3.621  -0.202  -8.015  0.00  0.00    +0.007 C 
ENDBRANCH  27  29
ENDBRANCH   1  27
BRANCH   4  31
ATOM     31  C   UNL     1       5.608   2.074  -5.840  0.00  0.00    +0.123 C 
BRANCH  31  32
ATOM     32  C   UNL     1       5.828   2.149  -7.352  0.00  0.00    +0.062 C 
BRANCH  32  33
ATOM     33  C   UNL     1       6.479   3.463  -7.700  0.00  0.00    -0.009 A 
ATOM     34  C   UNL     1       7.797   3.769  -7.775  0.00  0.00    +0.011 A 
ATOM     35  C   UNL     1       8.168   5.055  -8.121  0.00  0.00    +0.008 A 
ATOM     36  C   UNL     1       7.202   5.975  -8.364  0.00  0.00    +0.045 A 
ATOM     37  S   UNL     1       5.713   5.022  -8.112  0.00  0.00    -0.102 S 
ENDBRANCH  32  33
ENDBRANCH  31  32
ENDBRANCH   4  31
TORSDOF 8
