REMARK  Name = ZINC33052076
REMARK  7 active torsions:
REMARK  status: ('A' for Active; 'I' for Inactive)
REMARK    1  A    between atoms: C_1  and  C_2
REMARK    2  A    between atoms: C_2  and  C_3
REMARK    3  A    between atoms: N_6  and  C_8
REMARK    4  A    between atoms: C_19  and  C_34
REMARK    5  A    between atoms: N_25  and  C_26
REMARK    6  A    between atoms: C_29  and  C_33
REMARK    7  A    between atoms: C_31  and  C_32
REMARK                            x       y       z     vdW  Elec       q    Type
REMARK                         _______ _______ _______ _____ _____    ______ ____
ROOT
ATOM      1  C   UNL     1      -0.978   1.523   0.816  0.00  0.00    +0.070 A 
ATOM      2  C   UNL     1      -1.937   0.906   1.613  0.00  0.00    +0.036 A 
ATOM      3  C   UNL     1      -2.220   1.752   2.648  0.00  0.00    +0.146 A 
ATOM      4  N   UNL     1      -1.494   2.873   2.482  0.00  0.00    -0.215 N 
ATOM      5  N   UNL     1      -0.699   2.695   1.337  0.00  0.00    -0.169 NA
ATOM      6  N   UNL     1      -3.108   1.371   3.659  0.00  0.00    -0.303 N 
ATOM      7  C   UNL     1      -4.126   2.049   4.237  0.00  0.00    +0.093 A 
ATOM      8  C   UNL     1      -4.761   1.204   5.081  0.00  0.00    +0.020 A 
ATOM      9  C   UNL     1      -4.084  -0.035   5.032  0.00  0.00    +0.025 A 
ATOM     10  C   UNL     1      -3.055   0.103   4.181  0.00  0.00    +0.050 A 
ATOM     11  C   UNL     1      -1.993  -0.891   3.814  0.00  0.00    +0.155 C 
ATOM     12  N   UNL     1      -2.181  -1.407   2.438  0.00  0.00    -0.268 N 
ATOM     13  C   UNL     1      -2.618  -0.418   1.423  0.00  0.00    +0.151 C 
ATOM     14  C   UNL     1      -1.968  -2.700   2.127  0.00  0.00    +0.308 C 
ATOM     15  O   UNL     1      -1.610  -3.482   2.987  0.00  0.00    -0.252 OA
ATOM     16  N   UNL     1      -2.151  -3.128   0.862  0.00  0.00    -0.269 N 
ATOM     17  H   UNL     1      -2.566  -2.446   0.105  0.00  0.00    +0.156 HD
ENDROOT
BRANCH  16  18
ATOM     18  C   UNL     1      -1.812  -4.440   0.511  0.00  0.00    +0.038 A 
ATOM     19  C   UNL     1      -0.855  -5.131   1.243  0.00  0.00    +0.024 A 
ATOM     20  C   UNL     1      -0.523  -6.426   0.894  0.00  0.00    +0.005 A 
ATOM     21  C   UNL     1      -1.143  -7.034  -0.182  0.00  0.00    -0.050 A 
ATOM     22  C   UNL     1      -2.096  -6.348  -0.913  0.00  0.00    +0.008 A 
ATOM     23  C   UNL     1      -2.436  -5.055  -0.566  0.00  0.00    -0.029 A 
ATOM     24  C   UNL     1      -3.479  -4.311  -1.359  0.00  0.00    +0.045 C 
ATOM     25  C   UNL     1      -0.779  -8.447  -0.559  0.00  0.00    +0.044 C 
ENDBRANCH  16  18
BRANCH  11  26
ATOM     26  C   UNL     1      -0.644  -0.227   3.910  0.00  0.00    -0.018 A 
ATOM     27  C   UNL     1      -0.449   0.815   4.798  0.00  0.00    +0.006 A 
ATOM     28  C   UNL     1       0.788   1.425   4.888  0.00  0.00    +0.003 A 
ATOM     29  C   UNL     1       1.831   0.995   4.090  0.00  0.00    +0.038 A 
ATOM     30  C   UNL     1       1.637  -0.048   3.200  0.00  0.00    +0.124 A 
ATOM     31  C   UNL     1       0.399  -0.662   3.115  0.00  0.00    +0.044 A 
ATOM     32  F   UNL     1       2.656  -0.469   2.419  0.00  0.00    -0.205 F 
ENDBRANCH  11  26
BRANCH   4  33
ATOM     33  C   UNL     1      -1.522   4.009   3.303  0.00  0.00    +0.068 A 
ATOM     34  C   UNL     1      -1.708   3.872   4.672  0.00  0.00    +0.028 A 
ATOM     35  C   UNL     1      -1.731   4.992   5.480  0.00  0.00    +0.002 A 
ATOM     36  C   UNL     1      -1.578   6.249   4.925  0.00  0.00    +0.000 A 
ATOM     37  C   UNL     1      -1.397   6.389   3.562  0.00  0.00    +0.002 A 
ATOM     38  C   UNL     1      -1.369   5.272   2.749  0.00  0.00    +0.028 A 
ENDBRANCH   4  33
BRANCH   1  40
ATOM     39  C   UNL     1      -1.194   1.340  -1.647  0.00  0.00    +0.010 C 
ATOM     40  C   UNL     1      -0.359   0.941  -0.429  0.00  0.00    +0.054 C 
ENDBRANCH   1  40
TORSDOF 4
