REMARK  Name = ZINC23005561
REMARK  15 active torsions:
REMARK  status: ('A' for Active; 'I' for Inactive)
REMARK    1  A    between atoms: C_1  and  C_2
REMARK    2  A    between atoms: C_3  and  C_36
REMARK    3  A    between atoms: N_4  and  C_28
REMARK    4  A    between atoms: C_5  and  N_9
REMARK    5  A    between atoms: C_6  and  C_7
REMARK    6  A    between atoms: C_10  and  C_12
REMARK    7  A    between atoms: C_12  and  N_13
REMARK    8  A    between atoms: N_13  and  C_14
REMARK    9  A    between atoms: N_13  and  C_15
REMARK   10  A    between atoms: C_15  and  C_17
REMARK   11  A    between atoms: C_15  and  C_18
REMARK   12  A    between atoms: C_21  and  S_24
REMARK   13  A    between atoms: S_24  and  C_27
REMARK   14  A    between atoms: C_31  and  O_34
REMARK   15  A    between atoms: O_34  and  C_35
REMARK                            x       y       z     vdW  Elec       q    Type
REMARK                         _______ _______ _______ _____ _____    ______ ____
ROOT
ATOM      1  N   UNL     1      -0.924   2.422  -0.105  0.00  0.00    -0.272 N 
ATOM      2  C   UNL     1      -2.210   2.028  -0.187  0.00  0.00    +0.202 C 
ATOM      3  O   UNL     1      -2.488   0.849  -0.126  0.00  0.00    -0.278 OA
ATOM      4  H   UNL     1      -0.674   3.493  -0.143  0.00  0.00    +0.156 HD
ENDROOT
BRANCH   1   9
ATOM      5  C   UNL     1       3.310   0.018   1.250  0.00  0.00    +0.047 C 
ATOM      6  C   UNL     1       1.987   0.366   0.619  0.00  0.00    -0.010 A 
ATOM      7  C   UNL     1       1.274  -0.400  -0.223  0.00  0.00    +0.027 A 
ATOM      8  N   UNL     1       0.129   0.264  -0.580  0.00  0.00    -0.300 N 
ATOM      9  C   UNL     1       0.084   1.479   0.029  0.00  0.00    +0.128 A 
ATOM     10  C   UNL     1       1.228   1.610   0.803  0.00  0.00    +0.095 A 
ATOM     11  C   UNL     1       1.670  -1.774  -0.699  0.00  0.00    +0.064 C 
BRANCH   8  12
ATOM     12  C   UNL     1      -0.854  -0.238  -1.448  0.00  0.00    +0.048 A 
ATOM     13  C   UNL     1      -1.559  -1.385  -1.109  0.00  0.00    +0.030 A 
ATOM     14  C   UNL     1      -2.529  -1.875  -1.961  0.00  0.00    +0.047 A 
ATOM     15  C   UNL     1      -2.791  -1.227  -3.160  0.00  0.00    +0.120 A 
ATOM     16  C   UNL     1      -2.083  -0.084  -3.501  0.00  0.00    +0.047 A 
ATOM     17  C   UNL     1      -1.117   0.410  -2.647  0.00  0.00    +0.030 A 
BRANCH  15  18
ATOM     18  O   UNL     1      -3.743  -1.714  -4.000  0.00  0.00    -0.495 OA
ATOM     19  C   UNL     1      -4.433  -2.894  -3.586  0.00  0.00    +0.277 C 
ENDBRANCH  15  18
ENDBRANCH   8  12
BRANCH  10  20
ATOM     20  C   UNL     1       1.595   2.731   1.616  0.00  0.00    +0.103 C 
ATOM     21  N   UNL     1       1.886   3.619   2.260  0.00  0.00    -0.191 NA
ENDBRANCH  10  20
ENDBRANCH   1   9
BRANCH   2  22
ATOM     22  C   UNL     1      -3.303   3.051  -0.356  0.00  0.00    +0.019 C 
BRANCH  22  23
ATOM     23  N   UNL     1      -4.604   2.372  -0.419  0.00  0.00    +0.388 N 
ATOM     24  C   UNL     1      -4.709   1.547  -1.630  0.00  0.00    -0.095 C 
ATOM     25  H   UNL     1      -4.680   1.706   0.452  0.00  0.00    -0.081 HD
BRANCH  23  26
ATOM     26  C   UNL     1      -5.707   3.340  -0.345  0.00  0.00    -0.041 C 
ATOM     27  C   UNL     1      -5.621   4.112   0.973  0.00  0.00    -0.008 C 
BRANCH  26  28
ATOM     28  C   UNL     1      -7.023   2.608  -0.413  0.00  0.00    -0.061 A 
ATOM     29  C   UNL     1      -7.181   1.408   0.254  0.00  0.00    +0.004 A 
ATOM     30  C   UNL     1      -8.390   0.739   0.196  0.00  0.00    +0.027 A 
ATOM     31  C   UNL     1      -9.436   1.265  -0.538  0.00  0.00    +0.088 A 
ATOM     32  C   UNL     1      -9.276   2.463  -1.210  0.00  0.00    +0.027 A 
ATOM     33  C   UNL     1      -8.069   3.134  -1.147  0.00  0.00    +0.004 A 
BRANCH  31  34
ATOM     34  S   UNL     1     -10.974   0.409  -0.619  0.00  0.00    -0.006 S 
ATOM     35  O   UNL     1     -11.026  -0.357   0.577  0.00  0.00    -0.170 OA
ATOM     36  O   UNL     1     -11.939   1.420  -0.873  0.00  0.00    -0.170 OA
ATOM     37  C   UNL     1     -10.823  -0.687  -2.057  0.00  0.00    +0.200 C 
ENDBRANCH  31  34
ENDBRANCH  26  28
ENDBRANCH  23  26
ENDBRANCH  22  23
ENDBRANCH   2  22
TORSDOF 9
