REMARK  Name = ZINC39330108
REMARK  5 active torsions:
REMARK  status: ('A' for Active; 'I' for Inactive)
REMARK    1  A    between atoms: C_4  and  C_7
REMARK    2  A    between atoms: C_17  and  S_19
REMARK    3  A    between atoms: S_19  and  C_20
REMARK    4  A    between atoms: C_24  and  C_33
REMARK    5  A    between atoms: N_26  and  C_27
REMARK                            x       y       z     vdW  Elec       q    Type
REMARK                         _______ _______ _______ _____ _____    ______ ____
ROOT
ATOM      1  S   UNL     1       3.206  -2.539   1.095  0.00  0.00    -0.104 S 
ENDROOT
BRANCH   1  12
ATOM      2  C   UNL     1       3.456  -1.073  -1.156  0.00  0.00    -0.010 C 
ATOM      3  C   UNL     1       4.489  -0.233  -1.581  0.00  0.00    +0.001 A 
ATOM      4  C   UNL     1       4.208   1.045  -2.109  0.00  0.00    +0.010 A 
ATOM      5  C   UNL     1       5.233   1.842  -2.515  0.00  0.00    +0.001 A 
ATOM      6  C   UNL     1       6.558   1.424  -2.420  0.00  0.00    +0.002 A 
ATOM      7  C   UNL     1       6.891   0.203  -1.918  0.00  0.00    +0.024 A 
ATOM      8  C   UNL     1       5.884  -0.675  -1.479  0.00  0.00    +0.041 A 
ATOM      9  N   UNL     1       6.213  -1.874  -0.987  0.00  0.00    -0.284 N 
ATOM     10  C   UNL     1       5.329  -2.752  -0.556  0.00  0.00    +0.235 C 
ATOM     11  O   UNL     1       5.702  -3.826  -0.120  0.00  0.00    -0.274 OA
ATOM     12  C   UNL     1       3.854  -2.425  -0.595  0.00  0.00    +0.166 C 
ATOM     13  H   UNL     1       7.153  -2.110  -0.945  0.00  0.00    +0.155 HD
BRANCH   2  17
ATOM     14  C   UNL     1      -0.560   0.098  -1.401  0.00  0.00    +0.000 A 
ATOM     15  C   UNL     1      -0.118  -1.002  -2.119  0.00  0.00    +0.001 A 
ATOM     16  C   UNL     1       1.199  -1.395  -2.045  0.00  0.00    +0.008 A 
ATOM     17  C   UNL     1       2.097  -0.676  -1.239  0.00  0.00    -0.020 A 
ATOM     18  C   UNL     1       1.640   0.437  -0.515  0.00  0.00    +0.008 A 
ATOM     19  C   UNL     1       0.318   0.814  -0.603  0.00  0.00    +0.001 A 
ENDBRANCH   2  17
ENDBRANCH   1  12
BRANCH   1  20
ATOM     20  C   UNL     1       3.122  -4.323   1.412  0.00  0.00    +0.218 C 
ATOM     21  N   UNL     1       2.670  -5.047   0.195  0.00  0.00    -0.226 NA
ATOM     22  N   UNL     1       3.201  -6.404   0.402  0.00  0.00    -0.230 NA
ATOM     23  C   UNL     1       4.522  -6.190   1.035  0.00  0.00    +0.195 C 
ATOM     24  N   UNL     1       4.469  -4.865   1.682  0.00  0.00    -0.283 N 
ATOM     25  H   UNL     1       1.663  -5.059   0.134  0.00  0.00    +0.143 HD
ATOM     26  H   UNL     1       2.595  -6.942   1.002  0.00  0.00    +0.143 HD
BRANCH  24  27
ATOM     27  C   UNL     1       5.491  -4.243   2.404  0.00  0.00    +0.033 A 
ATOM     28  C   UNL     1       6.763  -4.801   2.430  0.00  0.00    +0.023 A 
ATOM     29  C   UNL     1       7.771  -4.184   3.145  0.00  0.00    +0.002 A 
ATOM     30  C   UNL     1       7.515  -3.012   3.833  0.00  0.00    +0.000 A 
ATOM     31  C   UNL     1       6.250  -2.454   3.808  0.00  0.00    +0.002 A 
ATOM     32  C   UNL     1       5.239  -3.063   3.091  0.00  0.00    +0.023 A 
ENDBRANCH  24  27
BRANCH  23  33
ATOM     33  C   UNL     1       4.778  -7.257   2.068  0.00  0.00    +0.026 A 
ATOM     34  C   UNL     1       4.366  -8.548   2.082  0.00  0.00    +0.014 A 
ATOM     35  C   UNL     1       4.725  -9.355   3.145  0.00  0.00    +0.008 A 
ATOM     36  C   UNL     1       5.480  -8.831   4.142  0.00  0.00    +0.045 A 
ATOM     37  S   UNL     1       5.710  -7.150   3.587  0.00  0.00    -0.098 S 
ENDBRANCH  23  33
ENDBRANCH   1  20
TORSDOF 5
