REMARK  Name = ZINC46539183
REMARK  10 active torsions:
REMARK  status: ('A' for Active; 'I' for Inactive)
REMARK    1  A    between atoms: C_1  and  N_2
REMARK    2  A    between atoms: C_6  and  S_7
REMARK    3  A    between atoms: S_7  and  C_8
REMARK    4  A    between atoms: C_11  and  C_17
REMARK    5  A    between atoms: C_13  and  N_14
REMARK    6  A    between atoms: N_19  and  C_20
REMARK    7  A    between atoms: C_25  and  C_26
REMARK    8  A    between atoms: C_26  and  N_27
REMARK    9  A    between atoms: N_27  and  C_28
REMARK   10  A    between atoms: N_27  and  C_29
REMARK                            x       y       z     vdW  Elec       q    Type
REMARK                         _______ _______ _______ _____ _____    ______ ____
ROOT
ATOM      1  C   UNL     1       1.062  -5.409   5.939  0.00  0.00    +0.248 C 
ATOM      2  O   UNL     1       1.560  -5.365   7.048  0.00  0.00    -0.270 OA
ATOM      3  N   UNL     1       0.621  -6.583   5.445  0.00  0.00    -0.281 N 
ATOM      4  H   UNL     1       0.295  -6.633   4.532  0.00  0.00    +0.155 HD
ENDROOT
BRANCH   1   8
ATOM      5  C   UNL     1       0.713  -1.873   3.623  0.00  0.00    +0.046 A 
ATOM      6  C   UNL     1       0.259  -3.088   3.116  0.00  0.00    +0.018 A 
ATOM      7  C   UNL     1       0.370  -4.228   3.860  0.00  0.00    +0.014 A 
ATOM      8  C   UNL     1       0.942  -4.179   5.135  0.00  0.00    +0.039 A 
ATOM      9  C   UNL     1       1.399  -2.960   5.647  0.00  0.00    +0.047 A 
ATOM     10  C   UNL     1       1.289  -1.816   4.890  0.00  0.00    +0.141 A 
BRANCH  10  11
ATOM     11  N   UNL     1       1.777  -0.525   5.425  0.00  0.00    +0.058 N 
ATOM     12  O   UNL     1       2.277  -0.476   6.524  0.00  0.00    -0.126 OA
ATOM     13  O   UNL     1       1.676   0.481   4.761  0.00  0.00    -0.126 OA
ENDBRANCH  10  11
BRANCH   5  14
ATOM     14  S   UNL     1       0.566  -0.407   2.658  0.00  0.00    -0.048 S 
BRANCH  14  20
ATOM     15  C   UNL     1      -0.680   2.592   2.033  0.00  0.00    +0.152 C 
ATOM     16  N   UNL     1      -1.218   1.709   3.071  0.00  0.00    -0.311 N 
ATOM     17  C   UNL     1      -2.272   1.961   3.904  0.00  0.00    +0.225 A 
ATOM     18  N   UNL     1      -2.419   0.918   4.671  0.00  0.00    -0.137 NA
ATOM     19  N   UNL     1      -1.536   0.030   4.381  0.00  0.00    -0.122 NA
ATOM     20  C   UNL     1      -0.776   0.461   3.402  0.00  0.00    +0.196 A 
ENDBRANCH  14  20
ENDBRANCH   5  14
ENDBRANCH   1   8
BRANCH   3  21
ATOM     21  C   UNL     1       0.632  -7.728   6.247  0.00  0.00    +0.035 A 
ATOM     22  C   UNL     1       0.595  -7.609   7.631  0.00  0.00    +0.023 A 
ATOM     23  C   UNL     1       0.605  -8.742   8.420  0.00  0.00    +0.002 A 
ATOM     24  C   UNL     1       0.652  -9.994   7.835  0.00  0.00    +0.000 A 
ATOM     25  C   UNL     1       0.690 -10.116   6.458  0.00  0.00    +0.003 A 
ATOM     26  C   UNL     1       0.673  -8.987   5.663  0.00  0.00    -0.043 A 
BRANCH  26  27
ATOM     27  C   UNL     1       0.707  -9.121   4.162  0.00  0.00    -0.041 C 
BRANCH  27  28
ATOM     28  N   UNL     1       2.076  -8.893   3.680  0.00  0.00    +0.382 N 
ATOM     29  C   UNL     1       2.956  -9.955   4.186  0.00  0.00    -0.095 C 
ATOM     30  H   UNL     1       2.404  -7.998   4.012  0.00  0.00    -0.081 HD
BRANCH  28  31
ATOM     31  C   UNL     1       2.087  -8.905   2.212  0.00  0.00    -0.069 C 
ATOM     32  C   UNL     1       3.513  -8.668   1.710  0.00  0.00    -0.015 C 
ATOM     33  C   UNL     1       3.524  -8.680   0.180  0.00  0.00    -0.002 C 
ATOM     34  C   UNL     1       2.607  -7.574  -0.346  0.00  0.00    -0.000 C 
ATOM     35  C   UNL     1       1.181  -7.811   0.156  0.00  0.00    -0.002 C 
ATOM     36  C   UNL     1       1.170  -7.799   1.686  0.00  0.00    -0.015 C 
ENDBRANCH  28  31
ENDBRANCH  27  28
ENDBRANCH  26  27
ENDBRANCH   3  21
TORSDOF 8
