REMARK  Name = ZINC00091269
REMARK  5 active torsions:
REMARK  status: ('A' for Active; 'I' for Inactive)
REMARK    1  A    between atoms: C_3  and  C_8
REMARK    2  A    between atoms: C_5  and  O_7
REMARK    3  A    between atoms: C_11  and  C_22
REMARK    4  A    between atoms: C_17  and  N_21
REMARK    5  A    between atoms: C_18  and  C_19
REMARK                            x       y       z     vdW  Elec       q    Type
REMARK                         _______ _______ _______ _____ _____    ______ ____
ROOT
ATOM      1  C   UNL     1       3.671   2.190  -0.021  0.00  0.00    +0.102 C 
ATOM      2  C   UNL     1       3.747   3.064   1.204  0.00  0.00    +0.055 A 
ATOM      3  C   UNL     1       3.962   2.702   2.538  0.00  0.00    +0.107 A 
ATOM      4  N   UNL     1       3.947   3.805   3.265  0.00  0.00    -0.170 NA
ATOM      5  N   UNL     1       3.723   4.895   2.410  0.00  0.00    -0.246 N 
ATOM      6  H   UNL     1       3.663   5.826   2.676  0.00  0.00    +0.192 HD
ATOM      7  C   UNL     1       3.604   4.420   1.152  0.00  0.00    +0.223 A 
ATOM      8  O   UNL     1       3.384   5.090  -0.007  0.00  0.00    -0.423 OA
ATOM      9  C   UNL     1       3.580   4.421  -1.162  0.00  0.00    +0.200 C 
ATOM     10  C   UNL     1       3.724   3.079  -1.239  0.00  0.00    +0.098 C 
ENDROOT
BRANCH   1  13
ATOM     11  C   UNL     1      -0.017   1.377   0.010  0.00  0.00    +0.004 A 
ATOM     12  C   UNL     1       1.171   2.086   0.002  0.00  0.00    +0.005 A 
ATOM     13  C   UNL     1       2.379   1.415  -0.013  0.00  0.00    -0.031 A 
ATOM     14  C   UNL     1       2.403   0.033  -0.021  0.00  0.00    +0.050 A 
ATOM     15  C   UNL     1       1.214  -0.680  -0.013  0.00  0.00    +0.117 A 
ATOM     16  C   UNL     1       0.002  -0.004   0.002  0.00  0.00    +0.045 A 
BRANCH  15  17
ATOM     17  O   UNL     1       1.235  -2.039  -0.021  0.00  0.00    -0.507 OA
ATOM     18  H   UNL     1       1.249  -2.437   0.860  0.00  0.00    +0.292 HD
ENDBRANCH  15  17
ENDBRANCH   1  13
BRANCH   3  19
ATOM     19  C   UNL     1       4.169   1.328   3.045  0.00  0.00    +0.040 A 
ATOM     20  C   UNL     1       4.964   0.899   4.074  0.00  0.00    +0.018 A 
ATOM     21  C   UNL     1       4.997  -0.447   4.368  0.00  0.00    +0.008 A 
ATOM     22  C   UNL     1       4.245  -1.304   3.631  0.00  0.00    +0.046 A 
ATOM     23  S   UNL     1       3.443  -0.201   2.479  0.00  0.00    -0.095 S 
ENDBRANCH   3  19
BRANCH   9  24
ATOM     24  N   UNL     1       3.637   5.145  -2.327  0.00  0.00    -0.328 N 
ATOM     25  H   UNL     1       3.538   6.110  -2.304  0.00  0.00    +0.145 HD
ATOM     26  H   UNL     1       3.776   4.692  -3.173  0.00  0.00    +0.145 HD
ENDBRANCH   9  24
BRANCH  10  27
ATOM     27  C   UNL     1       3.933   2.478  -2.522  0.00  0.00    +0.101 C 
ATOM     28  N   UNL     1       4.099   2.002  -3.540  0.00  0.00    -0.191 NA
ENDBRANCH  10  27
TORSDOF 5
