REMARK  Name = ZINC15954467
REMARK  14 active torsions:
REMARK  status: ('A' for Active; 'I' for Inactive)
REMARK    1  A    between atoms: CD1_1  and  CG1_2
REMARK    2  A    between atoms: CG1_2  and  CB_3
REMARK    3  A    between atoms: CB_3  and  CG2_5
REMARK    4  A    between atoms: CB_3  and  CA_6
REMARK    5  A    between atoms: CA_6  and  C_8
REMARK    6  A    between atoms: CA_6  and  N_11
REMARK    7  A    between atoms: C_12  and  C_14
REMARK    8  A    between atoms: C_14  and  N_15
REMARK    9  A    between atoms: C_16  and  C_18
REMARK   10  A    between atoms: C_18  and  C_19
REMARK   11  A    between atoms: C_19  and  C_20
REMARK   12  A    between atoms: C_21  and  C_33
REMARK   13  A    between atoms: C_25  and  O_32
REMARK   14  A    between atoms: C_26  and  C_31
REMARK                            x       y       z     vdW  Elec       q    Type
REMARK                         _______ _______ _______ _____ _____    ______ ____
ROOT
ATOM      1  N   UNK A   0       2.407   1.043  -0.015  0.00  0.00    -0.307 N 
ATOM      2  C   UNK A   0       3.671   1.510  -0.025  0.00  0.00    +0.214 C 
ATOM      3  O   UNK A   0       3.876   2.705  -0.020  0.00  0.00    -0.276 OA
ATOM      4  H   UNK A   0       2.220  -0.041  -0.019  0.00  0.00    +0.149 HD
ENDROOT
BRANCH   1   5
ATOM      5  C   UNK A   0       1.280   1.980   0.001  0.00  0.00    +0.200 C 
BRANCH   5   7
ATOM      6  N   ILE A   1      -1.191   1.867   0.018  0.00  0.00    -0.301 N 
ATOM      7  C   UNK A   0      -0.014   1.209   0.009  0.00  0.00    +0.231 C 
ATOM      8  O   UNK A   0       0.002  -0.004   0.002  0.00  0.00    -0.274 OA
ATOM      9  H   ILE A   1      -1.206   2.966   0.024  0.00  0.00    +0.150 HD
BRANCH   6  10
ATOM     10  CA  ILE A   1      -2.449   1.117   0.020  0.00  0.00    +0.189 C 
BRANCH  10  11
ATOM     11  C   ILE A   1      -2.811   0.746   1.435  0.00  0.00    +0.376 C 
ATOM     12  O   ILE A   1      -2.091   1.074   2.348  0.00  0.00    -0.244 OA
ATOM     13  OXT ILE A   1      -3.933   0.051   1.681  0.00  0.00    -0.244 OA
ENDBRANCH  10  11
BRANCH  10  14
ATOM     14  CB  ILE A   1      -3.559   1.982  -0.580  0.00  0.00    +0.017 C 
ATOM     15  CG2 ILE A   1      -3.722   3.254   0.255  0.00  0.00    +0.010 C 
BRANCH  14  17
ATOM     16  CD1 ILE A   1      -5.955   2.016  -1.290  0.00  0.00    +0.004 C 
ATOM     17  CG1 ILE A   1      -4.874   1.200  -0.578  0.00  0.00    +0.002 C 
ENDBRANCH  14  17
ENDBRANCH  10  14
ENDBRANCH   6  10
ENDBRANCH   5   7
ENDBRANCH   1   5
BRANCH   2  18
ATOM     18  C   UNK A   0       4.830   0.546  -0.041  0.00  0.00    +0.100 C 
BRANCH  18  19
ATOM     19  C   UNK A   0       6.144   1.329  -0.050  0.00  0.00    +0.052 C 
BRANCH  19  20
ATOM     20  C   UNK A   0       7.303   0.365  -0.066  0.00  0.00    +0.041 A 
ATOM     21  C   UNK A   0       7.841  -0.072   1.102  0.00  0.00    -0.030 A 
ATOM     22  C   UNK A   0       8.962  -1.012   1.038  0.00  0.00    +0.021 A 
ATOM     23  C   UNK A   0       9.557  -1.504   2.205  0.00  0.00    +0.015 A 
ATOM     24  C   UNK A   0      10.605  -2.375   2.117  0.00  0.00    +0.046 A 
ATOM     25  C   UNK A   0      11.085  -2.777   0.872  0.00  0.00    +0.123 A 
ATOM     26  C   UNK A   0      10.508  -2.300  -0.293  0.00  0.00    +0.034 A 
ATOM     27  C   UNK A   0       9.443  -1.415  -0.222  0.00  0.00    +0.146 A 
ATOM     28  O   UNK A   0       8.866  -0.938  -1.345  0.00  0.00    -0.422 OA
ATOM     29  C   UNK A   0       7.834  -0.080  -1.293  0.00  0.00    +0.341 A 
ATOM     30  O   UNK A   0       7.345   0.324  -2.333  0.00  0.00    -0.245 OA
ATOM     31  C   UNK A   0      11.034  -2.742  -1.634  0.00  0.00    +0.051 C 
ATOM     32  C   UNK A   0       7.296   0.393   2.428  0.00  0.00    +0.045 C 
BRANCH  25  33
ATOM     33  O   UNK A   0      12.128  -3.644   0.801  0.00  0.00    -0.506 OA
ATOM     34  H   UNK A   0      12.511  -3.964  -0.179  0.00  0.00    +0.292 HD
ENDBRANCH  25  33
ENDBRANCH  19  20
ENDBRANCH  18  19
ENDBRANCH   2  18
TORSDOF 10
