REMARK  Name = ZINC06659849
REMARK  12 active torsions:
REMARK  status: ('A' for Active; 'I' for Inactive)
REMARK    1  A    between atoms: C_1  and  C_2
REMARK    2  A    between atoms: C_2  and  C_3
REMARK    3  A    between atoms: C_12  and  O_15
REMARK    4  A    between atoms: C_13  and  C_14
REMARK    5  A    between atoms: O_15  and  C_16
REMARK    6  A    between atoms: C_16  and  C_18
REMARK    7  A    between atoms: C_16  and  C_19
REMARK    8  A    between atoms: N_21  and  C_22
REMARK    9  A    between atoms: C_24  and  C_30
REMARK   10  A    between atoms: C_24  and  C_31
REMARK   11  A    between atoms: C_26  and  C_28
REMARK   12  A    between atoms: C_26  and  C_29
REMARK                            x       y       z     vdW  Elec       q    Type
REMARK                         _______ _______ _______ _____ _____    ______ ____
ROOT
ATOM      1  C   UNL     1      -3.266  -0.708  -6.741  0.00  0.00    +0.255 C 
ATOM      2  C   UNL     1      -3.927  -2.050  -6.422  0.00  0.00    +0.062 C 
ENDROOT
BRANCH   1   3
ATOM      3  C   UNL     1      -3.784  -0.194  -8.060  0.00  0.00    +0.254 C 
ATOM      4  O   UNL     1      -3.031  -0.082  -9.005  0.00  0.00    -0.272 OA
ATOM      5  N   UNL     1      -5.083   0.141  -8.190  0.00  0.00    -0.310 N 
ATOM      6  H   UNL     1      -5.684   0.051  -7.434  0.00  0.00    +0.149 HD
BRANCH   5   7
ATOM      7  C   UNL     1      -5.587   0.641  -9.475  0.00  0.00    +0.070 C 
ATOM      8  C   UNL     1      -5.377   2.155  -9.541  0.00  0.00    +0.009 C 
ATOM      9  C   UNL     1      -5.909   2.694 -10.869  0.00  0.00    -0.072 C 
ATOM     10  N   UNL     1      -7.294   2.312 -11.101  0.00  0.00    +0.386 N 
ATOM     11  C   UNL     1      -7.660   0.924 -10.867  0.00  0.00    -0.072 C 
ATOM     12  C   UNL     1      -7.086   0.360  -9.572  0.00  0.00    +0.009 C 
ATOM     13  C   UNL     1      -7.266   0.029 -12.045  0.00  0.00    -0.010 C 
ATOM     14  C   UNL     1      -9.202   0.864 -10.750  0.00  0.00    -0.010 C 
ATOM     15  C   UNL     1      -4.994   2.267 -12.017  0.00  0.00    -0.010 C 
ATOM     16  C   UNL     1      -5.857   4.237 -10.791  0.00  0.00    -0.010 C 
ATOM     17  H   UNL     1      -7.891   2.904 -10.518  0.00  0.00    -0.084 HD
ATOM     18  H   UNL     1      -7.536   2.552 -12.065  0.00  0.00    -0.084 HD
ENDBRANCH   5   7
ENDBRANCH   1   3
BRANCH   1  19
ATOM     19  O   UNL     1      -1.850  -0.881  -6.820  0.00  0.00    -0.480 OA
BRANCH  19  29
ATOM     20  C   UNL     1       0.993  -0.706  -2.013  0.00  0.00    -0.030 A 
ATOM     21  C   UNL     1       2.349  -0.763  -2.081  0.00  0.00    +0.096 A 
ATOM     22  C   UNL     1       2.985  -0.857  -3.335  0.00  0.00    +0.337 A 
ATOM     23  O   UNL     1       4.201  -0.907  -3.382  0.00  0.00    -0.245 OA
ATOM     24  O   UNL     1       2.285  -0.893  -4.480  0.00  0.00    -0.422 OA
ATOM     25  C   UNL     1       0.935  -0.840  -4.483  0.00  0.00    +0.146 A 
ATOM     26  C   UNL     1       0.235  -0.751  -3.265  0.00  0.00    +0.021 A 
ATOM     27  C   UNL     1      -1.163  -0.702  -3.264  0.00  0.00    +0.015 A 
ATOM     28  C   UNL     1      -1.845  -0.745  -4.445  0.00  0.00    +0.047 A 
ATOM     29  C   UNL     1      -1.157  -0.839  -5.654  0.00  0.00    +0.128 A 
ATOM     30  C   UNL     1       0.228  -0.878  -5.674  0.00  0.00    +0.034 A 
ATOM     31  C   UNL     1       0.961  -0.979  -6.987  0.00  0.00    +0.051 C 
BRANCH  20  33
ATOM     32  C   UNL     1      -0.012   0.863  -0.376  0.00  0.00    +0.009 C 
ATOM     33  C   UNL     1       0.288  -0.606  -0.685  0.00  0.00    +0.033 C 
ENDBRANCH  20  33
ENDBRANCH  19  29
ENDBRANCH   1  19
TORSDOF 5
