REMARK  Name = ZINC09215892
REMARK  5 active torsions:
REMARK  status: ('A' for Active; 'I' for Inactive)
REMARK    1  A    between atoms: C_1  and  C_2
REMARK    2  A    between atoms: C_3  and  C_26
REMARK    3  A    between atoms: C_10  and  C_18
REMARK    4  A    between atoms: C_21  and  O_24
REMARK    5  A    between atoms: O_24  and  C_25
REMARK                            x       y       z     vdW  Elec       q    Type
REMARK                         _______ _______ _______ _____ _____    ______ ____
ROOT
ATOM      1  C   UNL     1      -0.944   1.196  -0.843  0.00  0.00    +0.054 C 
ATOM      2  C   UNL     1      -0.431  -0.149  -0.399  0.00  0.00    +0.016 A 
ATOM      3  C   UNL     1      -0.131  -0.597   0.860  0.00  0.00    +0.083 A 
ATOM      4  N   UNL     1       0.312  -1.832   1.022  0.00  0.00    -0.222 NA
ATOM      5  C   UNL     1       0.469  -2.646  -0.016  0.00  0.00    +0.172 A 
ATOM      6  S   UNL     1      -0.054  -1.602  -1.369  0.00  0.00    -0.054 S 
ATOM      7  N   UNL     1       0.904  -3.922  -0.042  0.00  0.00    -0.334 N 
ATOM      8  C   UNL     1       2.206  -4.179  -0.081  0.00  0.00    +0.055 A 
ATOM      9  C   UNL     1       3.160  -3.138  -0.204  0.00  0.00    +0.073 A 
ATOM     10  C   UNL     1       4.483  -3.443  -0.241  0.00  0.00    +0.138 A 
ATOM     11  O   UNL     1       4.936  -4.707  -0.164  0.00  0.00    -0.455 OA
ATOM     12  C   UNL     1       4.107  -5.766  -0.045  0.00  0.00    +0.138 A 
ATOM     13  C   UNL     1       2.719  -5.563   0.009  0.00  0.00    +0.041 A 
ATOM     14  C   UNL     1       1.857  -6.648   0.137  0.00  0.00    +0.013 A 
ATOM     15  C   UNL     1       2.375  -7.924   0.218  0.00  0.00    +0.001 A 
ATOM     16  C   UNL     1       3.745  -8.125   0.171  0.00  0.00    +0.004 A 
ATOM     17  C   UNL     1       4.609  -7.058   0.031  0.00  0.00    +0.047 A 
ATOM     18  H   UNL     1       0.265  -4.652  -0.031  0.00  0.00    +0.168 HD
ENDROOT
BRANCH   3  19
ATOM     19  C   UNL     1      -0.300   0.297   2.031  0.00  0.00    +0.001 A 
ATOM     20  C   UNL     1       0.679   0.343   3.023  0.00  0.00    +0.011 A 
ATOM     21  C   UNL     1       0.517   1.176   4.111  0.00  0.00    +0.016 A 
ATOM     22  C   UNL     1      -0.615   1.966   4.218  0.00  0.00    +0.018 A 
ATOM     23  C   UNL     1      -1.590   1.924   3.236  0.00  0.00    +0.016 A 
ATOM     24  C   UNL     1      -1.435   1.099   2.141  0.00  0.00    +0.011 A 
ATOM     25 BR   UNL     1      -0.831   3.106   5.712  0.00  0.00    -0.050 Br
ENDBRANCH   3  19
BRANCH  10  26
ATOM     26  C   UNL     1       5.461  -2.346  -0.370  0.00  0.00    +0.018 A 
ATOM     27  C   UNL     1       5.021  -1.022  -0.446  0.00  0.00    +0.015 A 
ATOM     28  C   UNL     1       5.938  -0.001  -0.567  0.00  0.00    +0.046 A 
ATOM     29  C   UNL     1       7.297  -0.286  -0.612  0.00  0.00    +0.120 A 
ATOM     30  C   UNL     1       7.738  -1.601  -0.536  0.00  0.00    +0.046 A 
ATOM     31  C   UNL     1       6.829  -2.628  -0.410  0.00  0.00    +0.015 A 
BRANCH  29  32
ATOM     32  O   UNL     1       8.197   0.724  -0.731  0.00  0.00    -0.495 OA
ATOM     33  C   UNL     1       9.579   0.361  -0.772  0.00  0.00    +0.277 C 
ENDBRANCH  29  32
ENDBRANCH  10  26
TORSDOF 3
