REMARK  Name = ZINC35456167
REMARK  5 active torsions:
REMARK  status: ('A' for Active; 'I' for Inactive)
REMARK    1  A    between atoms: C_4  and  C_7
REMARK    2  A    between atoms: C_8  and  C_20
REMARK    3  A    between atoms: N_10  and  C_12
REMARK    4  A    between atoms: N_24  and  C_28
REMARK    5  A    between atoms: C_28  and  C_29
REMARK                            x       y       z     vdW  Elec       q    Type
REMARK                         _______ _______ _______ _____ _____    ______ ____
ROOT
ATOM      1  C   UNL     1       3.698  -0.687  -0.038  0.00  0.00    +0.104 A 
ATOM      2  C   UNL     1       3.994  -1.964   0.625  0.00  0.00    +0.071 A 
ATOM      3  C   UNL     1       5.325  -2.252   0.336  0.00  0.00    +0.281 A 
ATOM      4  N   UNL     1       5.802  -1.249  -0.432  0.00  0.00    -0.196 N 
ATOM      5  N   UNL     1       4.793  -0.307  -0.654  0.00  0.00    -0.162 NA
ATOM      6  O   UNL     1       6.017  -3.340   0.749  0.00  0.00    -0.265 OA
ENDROOT
BRANCH   2   7
ATOM      7  C   UNL     1       3.076  -2.770   1.428  0.00  0.00    +0.044 C 
ATOM      8  C   UNL     1       2.940  -4.101   1.176  0.00  0.00    +0.099 C 
ATOM      9  C   UNL     1       2.093  -5.017   1.854  0.00  0.00    +0.269 C 
ATOM     10  O   UNL     1       1.345  -4.762   2.780  0.00  0.00    -0.268 OA
ATOM     11  N   UNL     1       2.274  -6.222   1.279  0.00  0.00    -0.216 N 
ATOM     12  C   UNL     1       3.175  -6.119   0.288  0.00  0.00    +0.313 C 
ATOM     13  O   UNL     1       3.547  -7.039  -0.416  0.00  0.00    -0.252 OA
ATOM     14  N   UNL     1       3.602  -4.846   0.187  0.00  0.00    -0.265 N 
ATOM     15  H   UNL     1       4.249  -4.507  -0.450  0.00  0.00    +0.157 HD
BRANCH  11  16
ATOM     16  C   UNL     1       1.592  -7.457   1.675  0.00  0.00    +0.156 C 
BRANCH  16  17
ATOM     17  C   UNL     1       0.313  -7.598   0.890  0.00  0.00    +0.006 A 
ATOM     18  C   UNL     1      -0.893  -7.246   1.466  0.00  0.00    +0.011 A 
ATOM     19  C   UNL     1      -2.067  -7.374   0.747  0.00  0.00    +0.039 A 
ATOM     20  C   UNL     1      -2.035  -7.856  -0.551  0.00  0.00    +0.126 A 
ATOM     21  C   UNL     1      -0.828  -8.208  -1.129  0.00  0.00    +0.077 A 
ATOM     22  C   UNL     1       0.348  -8.074  -0.410  0.00  0.00    +0.131 A 
ATOM     23  F   UNL     1       1.528  -8.412  -0.974  0.00  0.00    -0.205 F 
ATOM     24  F   UNL     1      -3.182  -7.982  -1.253  0.00  0.00    -0.205 F 
ENDBRANCH  16  17
ENDBRANCH  11  16
ENDBRANCH   2   7
BRANCH   4  25
ATOM     25  C   UNL     1       7.107  -1.167  -0.934  0.00  0.00    +0.069 A 
ATOM     26  C   UNL     1       8.172  -1.646  -0.182  0.00  0.00    +0.029 A 
ATOM     27  C   UNL     1       9.458  -1.564  -0.680  0.00  0.00    +0.022 A 
ATOM     28  C   UNL     1       9.686  -1.006  -1.925  0.00  0.00    +0.041 A 
ATOM     29  C   UNL     1       8.626  -0.528  -2.676  0.00  0.00    +0.022 A 
ATOM     30  C   UNL     1       7.337  -0.612  -2.186  0.00  0.00    +0.029 A 
ATOM     31 CL   UNL     1      11.303  -0.905  -2.547  0.00  0.00    -0.084 Cl
ENDBRANCH   4  25
BRANCH   1  35
ATOM     32  C   UNL     1      -0.017   1.379   0.010  0.00  0.00    +0.000 A 
ATOM     33  C   UNL     1       1.169   2.092   0.002  0.00  0.00    +0.001 A 
ATOM     34  C   UNL     1       2.377   1.427  -0.013  0.00  0.00    +0.010 A 
ATOM     35  C   UNL     1       2.403   0.033  -0.021  0.00  0.00    +0.003 A 
ATOM     36  C   UNL     1       1.205  -0.680  -0.013  0.00  0.00    +0.010 A 
ATOM     37  C   UNL     1       0.002  -0.004   0.002  0.00  0.00    +0.001 A 
ENDBRANCH   1  35
TORSDOF 5
