REMARK  Name = ZINC10247471
REMARK  9 active torsions:
REMARK  status: ('A' for Active; 'I' for Inactive)
REMARK    1  A    between atoms: C_1  and  C_2
REMARK    2  A    between atoms: C_2  and  O_3
REMARK    3  A    between atoms: O_3  and  C_4
REMARK    4  A    between atoms: C_4  and  C_6
REMARK    5  A    between atoms: C_10  and  N_23
REMARK    6  A    between atoms: N_14  and  C_16
REMARK    7  A    between atoms: C_20  and  C_22
REMARK    8  A    between atoms: C_24  and  C_26
REMARK    9  A    between atoms: C_27  and  C_28
REMARK                            x       y       z     vdW  Elec       q    Type
REMARK                         _______ _______ _______ _____ _____    ______ ____
ROOT
ATOM      1  C   UNL     1       1.203   7.230   0.138  0.00  0.00    +0.177 A 
ATOM      2  C   UNL     1      -0.050   8.034   0.045  0.00  0.00    +0.030 A 
ATOM      3  C   UNL     1      -0.146   9.400   0.046  0.00  0.00    +0.058 A 
ATOM      4  S   UNL     1      -1.891   9.705  -0.088  0.00  0.00    -0.080 S 
ATOM      5  C   UNL     1      -2.472   8.080  -0.142  0.00  0.00    +0.085 A 
ATOM      6  C   UNL     1      -1.315   7.301  -0.057  0.00  0.00    +0.079 A 
ATOM      7  C   UNL     1      -1.249   5.869  -0.066  0.00  0.00    +0.282 A 
ATOM      8  O   UNL     1      -2.274   5.218  -0.154  0.00  0.00    -0.265 OA
ATOM      9  N   UNL     1      -0.069   5.241   0.028  0.00  0.00    -0.195 N 
ATOM     10  N   UNL     1       1.140   5.926   0.126  0.00  0.00    -0.156 NA
ENDROOT
BRANCH   9  11
ATOM     11  C   UNL     1      -0.050   3.843   0.022  0.00  0.00    +0.070 A 
ATOM     12  C   UNL     1       0.816   3.162  -0.825  0.00  0.00    +0.028 A 
ATOM     13  C   UNL     1       0.837   1.781  -0.824  0.00  0.00    +0.002 A 
ATOM     14  C   UNL     1      -0.012   1.076   0.010  0.00  0.00    +0.003 A 
ATOM     15  C   UNL     1      -0.875   1.750   0.854  0.00  0.00    -0.048 A 
ATOM     16  C   UNL     1      -0.897   3.131   0.862  0.00  0.00    +0.031 A 
ATOM     17  C   UNL     1      -1.794   0.977   1.765  0.00  0.00    +0.044 C 
ENDBRANCH   9  11
BRANCH   5  18
ATOM     18  N   UNL     1      -3.785   7.647  -0.247  0.00  0.00    -0.276 N 
ATOM     19  C   UNL     1      -4.787   8.546  -0.319  0.00  0.00    +0.241 C 
ATOM     20  O   UNL     1      -4.539   9.737  -0.293  0.00  0.00    -0.270 OA
ATOM     21  H   UNL     1      -3.983   6.698  -0.268  0.00  0.00    +0.156 HD
BRANCH  19  22
ATOM     22  C   UNL     1      -6.171   8.089  -0.430  0.00  0.00    +0.068 C 
ATOM     23  C   UNL     1      -7.175   8.989  -0.502  0.00  0.00    +0.013 C 
BRANCH  23  24
ATOM     24  C   UNL     1      -8.567   8.531  -0.613  0.00  0.00    -0.021 A 
ATOM     25  C   UNL     1      -8.855   7.161  -0.644  0.00  0.00    +0.012 A 
ATOM     26  C   UNL     1     -10.160   6.734  -0.747  0.00  0.00    +0.050 A 
ATOM     27  C   UNL     1     -11.195   7.658  -0.822  0.00  0.00    +0.166 A 
ATOM     28  C   UNL     1     -10.915   9.026  -0.792  0.00  0.00    +0.167 A 
ATOM     29  C   UNL     1      -9.610   9.462  -0.682  0.00  0.00    +0.057 A 
ATOM     30  O   UNL     1     -12.092   9.712  -0.878  0.00  0.00    -0.453 OA
ATOM     31  C   UNL     1     -13.119   8.757  -0.549  0.00  0.00    +0.466 C 
ATOM     32  O   UNL     1     -12.544   7.493  -0.927  0.00  0.00    -0.453 OA
ENDBRANCH  23  24
ENDBRANCH  19  22
ENDBRANCH   5  18
BRANCH   1  33
ATOM     33  C   UNL     1       2.508   7.906   0.244  0.00  0.00    +0.360 C 
ATOM     34  O   UNL     1       2.565   9.120   0.255  0.00  0.00    -0.243 OA
BRANCH  33  35
ATOM     35  O   UNL     1       3.639   7.178   0.328  0.00  0.00    -0.460 OA
BRANCH  35  37
ATOM     36  C   UNL     1       6.054   6.922   0.515  0.00  0.00    +0.048 C 
ATOM     37  C   UNL     1       4.889   7.910   0.429  0.00  0.00    +0.229 C 
ENDBRANCH  35  37
ENDBRANCH  33  35
ENDBRANCH   1  33
TORSDOF 7
