REMARK  Name = ZINC11553449
REMARK  6 active torsions:
REMARK  status: ('A' for Active; 'I' for Inactive)
REMARK    1  A    between atoms: C_1  and  C_2
REMARK    2  A    between atoms: C_5  and  N_8
REMARK    3  A    between atoms: C_9  and  C_32
REMARK    4  A    between atoms: C_10  and  C_23
REMARK    5  A    between atoms: C_11  and  C_16
REMARK    6  A    between atoms: C_28  and  C_31
REMARK                            x       y       z     vdW  Elec       q    Type
REMARK                         _______ _______ _______ _____ _____    ______ ____
ROOT
ATOM      1  N   UNL     1       0.086  -4.100   0.338  0.00  0.00    -0.255 N 
ATOM      2  C   UNL     1       0.405  -4.946   1.363  0.00  0.00    +0.025 C 
ATOM      3  C   UNL     1       0.427  -6.283   1.181  0.00  0.00    +0.056 C 
ATOM      4  C   UNL     1       0.087  -6.814  -0.197  0.00  0.00    +0.142 C 
ATOM      5  N   UNL     1      -0.243  -5.819  -1.232  0.00  0.00    -0.315 N 
ATOM      6  C   UNL     1      -0.227  -4.514  -0.896  0.00  0.00    +0.142 C 
ATOM      7  S   UNL     1      -0.614  -3.348  -2.088  0.00  0.00    -0.018 S 
ATOM      8  C   UNL     1       0.736  -4.376   2.718  0.00  0.00    +0.062 C 
ATOM      9  H   UNL     1      -0.469  -6.098  -2.133  0.00  0.00    +0.149 HD
ENDROOT
BRANCH   3  10
ATOM     10  C   UNL     1       0.757  -7.161   2.243  0.00  0.00    +0.249 C 
ATOM     11  O   UNL     1       0.911  -6.724   3.369  0.00  0.00    -0.270 OA
ATOM     12  N   UNL     1       0.901  -8.480   2.006  0.00  0.00    -0.264 N 
ATOM     13  C   UNL     1       1.116  -9.359   3.067  0.00  0.00    +0.168 A 
ATOM     14  C   UNL     1       1.199  -9.008   4.433  0.00  0.00    +0.091 A 
ATOM     15  C   UNL     1       1.413 -10.133   5.140  0.00  0.00    +0.136 A 
ATOM     16  O   UNL     1       1.466 -11.163   4.281  0.00  0.00    -0.358 OA
ATOM     17  N   UNL     1       1.270 -10.655   2.974  0.00  0.00    -0.063 NA
ATOM     18  C   UNL     1       1.566 -10.220   6.636  0.00  0.00    +0.089 C 
ATOM     19  H   UNL     1       0.855  -8.818   1.098  0.00  0.00    +0.157 HD
ENDBRANCH   3  10
BRANCH   1  24
ATOM     20  C   UNL     1       0.070   1.479   1.375  0.00  0.00    +0.044 C 
ATOM     21  C   UNL     1       0.074  -0.003   1.100  0.00  0.00    -0.050 A 
ATOM     22  C   UNL     1      -1.122  -0.681   0.955  0.00  0.00    +0.005 A 
ATOM     23  C   UNL     1      -1.121  -2.039   0.702  0.00  0.00    +0.024 A 
ATOM     24  C   UNL     1       0.082  -2.723   0.594  0.00  0.00    +0.040 A 
ATOM     25  C   UNL     1       1.282  -2.039   0.739  0.00  0.00    +0.024 A 
ATOM     26  C   UNL     1       1.274  -0.680   0.987  0.00  0.00    +0.005 A 
ENDBRANCH   1  24
BRANCH   4  27
ATOM     27  C   UNL     1      -1.089  -7.746  -0.058  0.00  0.00    +0.013 A 
ATOM     28  C   UNL     1      -1.884  -7.694   1.072  0.00  0.00    +0.008 A 
ATOM     29  C   UNL     1      -2.962  -8.549   1.199  0.00  0.00    +0.001 A 
ATOM     30  C   UNL     1      -3.248  -9.457   0.196  0.00  0.00    +0.003 A 
ATOM     31  C   UNL     1      -2.455  -9.511  -0.934  0.00  0.00    +0.039 A 
ATOM     32  C   UNL     1      -1.377  -8.651  -1.065  0.00  0.00    +0.129 A 
ATOM     33  F   UNL     1      -0.605  -8.699  -2.172  0.00  0.00    -0.205 F 
ENDBRANCH   4  27
TORSDOF 3
