REMARK  Name = ZINC49044374
REMARK  6 active torsions:
REMARK  status: ('A' for Active; 'I' for Inactive)
REMARK    1  A    between atoms: C_1  and  C_2
REMARK    2  A    between atoms: C_2  and  C_3
REMARK    3  A    between atoms: C_6  and  S_8
REMARK    4  A    between atoms: S_8  and  N_11
REMARK    5  A    between atoms: C_15  and  N_22
REMARK    6  A    between atoms: C_19  and  C_21
REMARK                            x       y       z     vdW  Elec       q    Type
REMARK                         _______ _______ _______ _____ _____    ______ ____
ROOT
ATOM      1  N   UNL     1      -5.329  -3.664   1.282  0.00  0.00    -0.199 N 
ATOM      2  C   UNL     1      -5.643  -4.596   0.286  0.00  0.00    +0.055 A 
ATOM      3  C   UNL     1      -6.106  -4.377  -1.013  0.00  0.00    +0.027 A 
ATOM      4  C   UNL     1      -6.360  -5.442  -1.851  0.00  0.00    +0.024 A 
ATOM      5  C   UNL     1      -6.157  -6.742  -1.407  0.00  0.00    +0.025 A 
ATOM      6  C   UNL     1      -5.696  -6.964  -0.117  0.00  0.00    +0.028 A 
ATOM      7  C   UNL     1      -5.442  -5.895   0.722  0.00  0.00    -0.021 A 
ATOM      8  C   UNL     1      -4.944  -5.853   2.149  0.00  0.00    +0.061 C 
ATOM      9  C   UNL     1      -4.874  -4.356   2.491  0.00  0.00    +0.099 C 
ATOM     10  C   UNL     1      -3.437  -3.952   2.825  0.00  0.00    +0.030 C 
ENDROOT
BRANCH   1  11
ATOM     11  S   UNL     1      -5.447  -2.021   1.117  0.00  0.00    +0.081 S 
ATOM     12  O   UNL     1      -5.585  -1.489   2.427  0.00  0.00    -0.149 OA
ATOM     13  O   UNL     1      -6.404  -1.783   0.093  0.00  0.00    -0.149 OA
BRANCH  11  17
ATOM     14  C   UNL     1      -1.412  -0.526   0.013  0.00  0.00    -0.009 A 
ATOM     15  C   UNL     1      -2.221  -0.821  -1.034  0.00  0.00    +0.013 A 
ATOM     16  C   UNL     1      -3.495  -1.293  -0.784  0.00  0.00    +0.037 A 
ATOM     17  C   UNL     1      -3.899  -1.446   0.501  0.00  0.00    +0.146 A 
ATOM     18  S   UNL     1      -2.453  -0.923   1.407  0.00  0.00    -0.073 S 
BRANCH  14  20
ATOM     19  C   UNL     1      -0.019   1.526   0.010  0.00  0.00    +0.009 C 
ATOM     20  C   UNL     1       0.002  -0.004   0.002  0.00  0.00    +0.039 C 
ENDBRANCH  14  20
ENDBRANCH  11  17
ENDBRANCH   1  11
BRANCH   5  21
ATOM     21  N   UNL     1      -6.415  -7.824  -2.257  0.00  0.00    -0.358 N 
ATOM     22  H   UNL     1      -6.737  -7.666  -3.159  0.00  0.00    +0.142 HD
ATOM     23  H   UNL     1      -6.272  -8.731  -1.945  0.00  0.00    +0.142 HD
ENDBRANCH   5  21
TORSDOF 4
