REMARK  Name = ZINC13500090
REMARK  15 active torsions:
REMARK  status: ('A' for Active; 'I' for Inactive)
REMARK    1  A    between atoms: C_1  and  C_2
REMARK    2  A    between atoms: C_2  and  C_3
REMARK    3  A    between atoms: C_3  and  C_4
REMARK    4  A    between atoms: C_4  and  C_6
REMARK    5  A    between atoms: C_4  and  N_74
REMARK    6  A    between atoms: N_10  and  C_11
REMARK    7  A    between atoms: C_11  and  C_12
REMARK    8  A    between atoms: C_12  and  O_14
REMARK    9  A    between atoms: O_14  and  C_15
REMARK   10  A    between atoms: C_15  and  C_16
REMARK   11  A    between atoms: C_17  and  C_18
REMARK   12  A    between atoms: C_17  and  N_74
REMARK   13  A    between atoms: C_22  and  C_31
REMARK   14  A    between atoms: C_24  and  C_30
REMARK   15  A    between atoms: C_32  and  N_74
REMARK                            x       y       z     vdW  Elec       q    Type
REMARK                         _______ _______ _______ _____ _____    ______ ____
ROOT
ATOM      1  N   UNL     1      -3.060   0.899  -1.446  0.00  0.00    +0.391 N 
ATOM      2  H   UNL     1      -2.250   0.445  -1.884  0.00  0.00    -0.080 HD
ENDROOT
BRANCH   1   3
ATOM      3  C   UNL     1      -3.424   2.095  -2.234  0.00  0.00    -0.067 C 
ATOM      4  C   UNL     1      -4.734   2.697  -1.721  0.00  0.00    -0.015 C 
ATOM      5  C   UNL     1      -5.090   3.930  -2.554  0.00  0.00    -0.002 C 
ATOM      6  C   UNL     1      -5.254   3.525  -4.020  0.00  0.00    -0.000 C 
ATOM      7  C   UNL     1      -3.944   2.924  -4.533  0.00  0.00    -0.002 C 
ATOM      8  C   UNL     1      -3.588   1.690  -3.700  0.00  0.00    -0.015 C 
ENDBRANCH   1   3
BRANCH   1   9
ATOM      9  C   UNL     1      -4.190  -0.054  -1.424  0.00  0.00    +0.003 C 
BRANCH   9  10
ATOM     10  C   UNL     1      -5.235   0.391  -0.433  0.00  0.00    +0.139 A 
ATOM     11  N   UNL     1      -5.033   0.743   0.813  0.00  0.00    -0.115 NA
ATOM     12  N   UNL     1      -6.171   1.058   1.327  0.00  0.00    -0.023 NA
ATOM     13  N   UNL     1      -7.096   0.909   0.443  0.00  0.00    -0.043 NA
ATOM     14  N   UNL     1      -6.558   0.499  -0.655  0.00  0.00    -0.220 N 
BRANCH  14  15
ATOM     15  C   UNL     1      -7.257   0.205  -1.909  0.00  0.00    +0.267 C 
BRANCH  15  16
ATOM     16  C   UNL     1      -7.676  -1.242  -1.924  0.00  0.00    +0.329 C 
ATOM     17  O   UNL     1      -7.417  -1.955  -0.983  0.00  0.00    -0.249 OA
BRANCH  16  18
ATOM     18  O   UNL     1      -8.336  -1.739  -2.981  0.00  0.00    -0.464 OA
BRANCH  18  19
ATOM     19  C   UNL     1      -8.708  -3.142  -2.926  0.00  0.00    +0.229 C 
ATOM     20  C   UNL     1      -9.447  -3.524  -4.210  0.00  0.00    +0.048 C 
ENDBRANCH  18  19
ENDBRANCH  16  18
ENDBRANCH  15  16
ENDBRANCH  14  15
ENDBRANCH   9  10
BRANCH   9  21
ATOM     21  C   UNL     1      -3.661  -1.432  -1.022  0.00  0.00    -0.008 C 
BRANCH  21  23
ATOM     22  C   UNL     1      -2.266  -3.370  -1.757  0.00  0.00    +0.004 C 
ATOM     23  C   UNL     1      -2.701  -1.944  -2.098  0.00  0.00    -0.005 C 
ENDBRANCH  21  23
ENDBRANCH   9  21
ENDBRANCH   1   9
BRANCH   1  24
ATOM     24  C   UNL     1      -2.702   1.291  -0.067  0.00  0.00    -0.036 C 
BRANCH  24  25
ATOM     25  C   UNL     1      -1.345   1.945  -0.086  0.00  0.00    +0.001 A 
ATOM     26  C   UNL     1      -1.238   3.286   0.079  0.00  0.00    +0.017 A 
ATOM     27  C   UNL     1       0.095   3.891   0.048  0.00  0.00    -0.001 A 
ATOM     28  C   UNL     1       0.268   5.270   0.205  0.00  0.00    +0.013 A 
ATOM     29  C   UNL     1       1.525   5.804   0.172  0.00  0.00    -0.050 A 
ATOM     30  C   UNL     1       2.633   4.989  -0.018  0.00  0.00    +0.008 A 
ATOM     31  C   UNL     1       2.487   3.628  -0.174  0.00  0.00    -0.026 A 
ATOM     32  C   UNL     1       1.216   3.062  -0.144  0.00  0.00    +0.052 A 
ATOM     33  N   UNL     1       1.040   1.703  -0.299  0.00  0.00    -0.322 N 
ATOM     34  H   UNL     1       1.814   1.133  -0.431  0.00  0.00    +0.169 HD
ATOM     35  C   UNL     1      -0.188   1.157  -0.270  0.00  0.00    +0.251 A 
ATOM     36  O   UNL     1      -0.306  -0.048  -0.411  0.00  0.00    -0.268 OA
ATOM     37  C   UNL     1       3.699   2.755  -0.378  0.00  0.00    +0.046 C 
ATOM     38  C   UNL     1       1.710   7.290   0.340  0.00  0.00    +0.044 C 
ENDBRANCH  24  25
ENDBRANCH   1  24
TORSDOF 11
