REMARK  Name = ZINC02395762
REMARK  8 active torsions:
REMARK  status: ('A' for Active; 'I' for Inactive)
REMARK    1  A    between atoms: C_1  and  N_2
REMARK    2  A    between atoms: C_3  and  C_29
REMARK    3  A    between atoms: C_4  and  O_14
REMARK    4  A    between atoms: O_14  and  C_15
REMARK    5  A    between atoms: C_15  and  C_17
REMARK    6  A    between atoms: C_20  and  C_23
REMARK    7  A    between atoms: C_23  and  N_65
REMARK    8  A    between atoms: C_29  and  C_31
REMARK                            x       y       z     vdW  Elec       q    Type
REMARK                         _______ _______ _______ _____ _____    ______ ____
ROOT
ATOM      1  C   UNL     1       1.379   6.531   1.532  0.00  0.00    +0.158 C 
ATOM      2  N   UNL     1       1.317   5.626   0.381  0.00  0.00    -0.199 N 
ATOM      3  C   UNL     1       2.486   5.126  -0.216  0.00  0.00    +0.141 C 
ATOM      4  C   UNL     1       2.530   3.915  -0.821  0.00  0.00    +0.167 C 
ATOM      5  C   UNL     1       1.389   2.998  -0.918  0.00  0.00    +0.046 A 
ATOM      6  C   UNL     1       1.589   1.652  -1.249  0.00  0.00    +0.013 A 
ATOM      7  C   UNL     1       0.509   0.800  -1.336  0.00  0.00    +0.001 A 
ATOM      8  C   UNL     1      -0.774   1.264  -1.103  0.00  0.00    +0.002 A 
ATOM      9  C   UNL     1      -0.983   2.593  -0.768  0.00  0.00    +0.029 A 
ATOM     10  C   UNL     1       0.085   3.451  -0.681  0.00  0.00    +0.119 A 
ATOM     11  S   UNL     1      -0.144   5.153  -0.267  0.00  0.00    +0.075 S 
ATOM     12  O   UNL     1      -1.100   5.201   0.783  0.00  0.00    -0.150 OA
ATOM     13  O   UNL     1      -0.306   5.861  -1.488  0.00  0.00    -0.150 OA
ENDROOT
BRANCH   3  14
ATOM     14  C   UNL     1       3.661   5.917  -0.184  0.00  0.00    +0.212 C 
ATOM     15  O   UNL     1       3.628   7.072  -0.570  0.00  0.00    -0.285 OA
BRANCH  14  16
ATOM     16  C   UNL     1       4.927   5.340   0.317  0.00  0.00    +0.024 A 
ATOM     17  C   UNL     1       4.939   4.067   0.890  0.00  0.00    +0.012 A 
ATOM     18  C   UNL     1       6.125   3.533   1.350  0.00  0.00    +0.001 A 
ATOM     19  C   UNL     1       7.298   4.261   1.256  0.00  0.00    +0.000 A 
ATOM     20  C   UNL     1       7.292   5.526   0.694  0.00  0.00    +0.001 A 
ATOM     21  C   UNL     1       6.114   6.069   0.225  0.00  0.00    +0.012 A 
ENDBRANCH  14  16
ENDBRANCH   3  14
BRANCH   4  22
ATOM     22  O   UNL     1       3.704   3.526  -1.373  0.00  0.00    -0.420 OA
BRANCH  22  23
ATOM     23  C   UNL     1       3.739   3.405  -2.715  0.00  0.00    +0.345 C 
ATOM     24  O   UNL     1       2.776   3.731  -3.380  0.00  0.00    -0.245 OA
BRANCH  23  25
ATOM     25  C   UNL     1       4.949   2.876  -3.378  0.00  0.00    +0.059 A 
ATOM     26  C   UNL     1       6.018   2.404  -2.614  0.00  0.00    +0.015 A 
ATOM     27  C   UNL     1       7.142   1.906  -3.239  0.00  0.00    +0.002 A 
ATOM     28  C   UNL     1       7.216   1.885  -4.621  0.00  0.00    -0.064 A 
ATOM     29  C   UNL     1       6.163   2.357  -5.384  0.00  0.00    +0.002 A 
ATOM     30  C   UNL     1       5.031   2.852  -4.772  0.00  0.00    +0.015 A 
BRANCH  28  31
ATOM     31  C   UNL     1       8.450   1.345  -5.297  0.00  0.00    -0.043 C 
BRANCH  31  37
ATOM     32  C   UNL     1       8.888   3.423  -6.459  0.00  0.00    -0.078 C 
ATOM     33  C   UNL     1       9.846   4.613  -6.541  0.00  0.00    -0.019 C 
ATOM     34  C   UNL     1      11.225   4.122  -6.992  0.00  0.00    -0.004 C 
ATOM     35  C   UNL     1      11.726   3.060  -6.010  0.00  0.00    -0.019 C 
ATOM     36  C   UNL     1      10.713   1.915  -5.943  0.00  0.00    -0.078 C 
ATOM     37  N   UNL     1       9.415   2.449  -5.479  0.00  0.00    +0.382 N 
ATOM     38  H   UNL     1       9.552   2.924  -4.579  0.00  0.00    -0.081 HD
ENDBRANCH  31  37
ENDBRANCH  28  31
ENDBRANCH  23  25
ENDBRANCH  22  23
ENDBRANCH   4  22
TORSDOF 7
