REMARK  Name = ZINC08821790
REMARK  12 active torsions:
REMARK  status: ('A' for Active; 'I' for Inactive)
REMARK    1  A    between atoms: C_1  and  C_2
REMARK    2  A    between atoms: C_2  and  C_3
REMARK    3  A    between atoms: C_3  and  C_4
REMARK    4  A    between atoms: C_4  and  C_5
REMARK    5  A    between atoms: C_8  and  N_11
REMARK    6  A    between atoms: C_17  and  C_18
REMARK    7  A    between atoms: C_21  and  O_27
REMARK    8  A    between atoms: C_22  and  O_24
REMARK    9  A    between atoms: O_24  and  C_25
REMARK   10  A    between atoms: C_25  and  C_26
REMARK   11  A    between atoms: O_27  and  C_28
REMARK   12  A    between atoms: C_28  and  C_29
REMARK                            x       y       z     vdW  Elec       q    Type
REMARK                         _______ _______ _______ _____ _____    ______ ____
ROOT
ATOM      1  N   UNL     1      -6.452  -4.828  -1.075  0.00  0.00    -0.226 NA
ATOM      2  C   UNL     1      -7.411  -4.115  -1.621  0.00  0.00    +0.166 C 
ATOM      3  N   UNL     1      -8.752  -4.416  -1.718  0.00  0.00    -0.260 N 
ATOM      4  C   UNL     1      -9.590  -3.578  -2.305  0.00  0.00    +0.256 C 
ATOM      5  O   UNL     1     -10.778  -3.828  -2.399  0.00  0.00    -0.269 OA
ATOM      6  C   UNL     1      -9.021  -2.327  -2.839  0.00  0.00    +0.078 C 
ATOM      7  C   UNL     1      -9.640  -1.303  -3.480  0.00  0.00    +0.028 C 
ATOM      8  S   UNL     1      -7.296  -2.518  -2.410  0.00  0.00    -0.049 S 
ATOM      9  H   UNL     1      -9.085  -5.251  -1.353  0.00  0.00    +0.157 HD
ENDROOT
BRANCH   1  13
ATOM     10  C   UNL     1      -2.568  -3.401  -1.058  0.00  0.00    -0.047 A 
ATOM     11  C   UNL     1      -3.101  -3.960   0.090  0.00  0.00    +0.006 A 
ATOM     12  C   UNL     1      -4.395  -4.437   0.092  0.00  0.00    +0.028 A 
ATOM     13  C   UNL     1      -5.167  -4.356  -1.069  0.00  0.00    +0.067 A 
ATOM     14  C   UNL     1      -4.622  -3.790  -2.224  0.00  0.00    +0.028 A 
ATOM     15  C   UNL     1      -3.329  -3.312  -2.210  0.00  0.00    +0.006 A 
BRANCH  10  16
ATOM     16  C   UNL     1      -1.153  -2.880  -1.051  0.00  0.00    +0.035 C 
BRANCH  16  17
ATOM     17  C   UNL     1      -1.153  -1.409  -0.633  0.00  0.00    +0.004 C 
BRANCH  17  19
ATOM     18  C   UNL     1       0.283   0.591  -0.208  0.00  0.00    +0.004 C 
ATOM     19  C   UNL     1       0.283  -0.880  -0.627  0.00  0.00    -0.003 C 
ENDBRANCH  17  19
ENDBRANCH  16  17
ENDBRANCH  10  16
ENDBRANCH   1  13
BRANCH   7  20
ATOM     20  C   UNL     1      -8.845  -0.221  -4.076  0.00  0.00    -0.020 A 
ATOM     21  C   UNL     1      -7.475  -0.399  -4.302  0.00  0.00    +0.012 A 
ATOM     22  C   UNL     1      -6.732   0.617  -4.861  0.00  0.00    +0.050 A 
ATOM     23  C   UNL     1      -7.339   1.819  -5.201  0.00  0.00    +0.162 A 
ATOM     24  C   UNL     1      -8.703   2.005  -4.979  0.00  0.00    +0.162 A 
ATOM     25  C   UNL     1      -9.457   0.989  -4.425  0.00  0.00    +0.057 A 
BRANCH  24  26
ATOM     26  O   UNL     1      -9.291   3.184  -5.313  0.00  0.00    -0.489 OA
BRANCH  26  27
ATOM     27  C   UNL     1     -10.692   3.305  -5.057  0.00  0.00    +0.226 C 
ATOM     28  C   UNL     1     -11.173   4.690  -5.495  0.00  0.00    +0.048 C 
ENDBRANCH  26  27
ENDBRANCH  24  26
BRANCH  23  29
ATOM     29  O   UNL     1      -6.601   2.818  -5.753  0.00  0.00    -0.484 OA
BRANCH  29  30
ATOM     30  C   UNL     1      -5.209   2.561  -5.953  0.00  0.00    +0.266 C 
BRANCH  30  31
ATOM     31  C   UNL     1      -4.559   3.773  -6.569  0.00  0.00    +0.008 A 
ATOM     32  C   UNL     1      -5.313   4.899  -6.841  0.00  0.00    +0.008 A 
ATOM     33  C   UNL     1      -4.716   6.011  -7.406  0.00  0.00    +0.000 A 
ATOM     34  C   UNL     1      -3.365   5.997  -7.699  0.00  0.00    +0.001 A 
ATOM     35  C   UNL     1      -2.610   4.872  -7.427  0.00  0.00    +0.020 A 
ATOM     36  C   UNL     1      -3.206   3.761  -6.856  0.00  0.00    +0.047 A 
ATOM     37 CL   UNL     1      -2.257   2.349  -6.509  0.00  0.00    -0.083 Cl
ENDBRANCH  30  31
ENDBRANCH  29  30
ENDBRANCH  23  29
ENDBRANCH   7  20
TORSDOF 10
