REMARK  Name = ZINC54223296
REMARK  5 active torsions:
REMARK  status: ('A' for Active; 'I' for Inactive)
REMARK    1  A    between atoms: C_1  and  C_2
REMARK    2  A    between atoms: C_2  and  C_4
REMARK    3  A    between atoms: C_2  and  N_10
REMARK    4  A    between atoms: C_13  and  N_16
REMARK    5  A    between atoms: C_17  and  C_19
REMARK                            x       y       z     vdW  Elec       q    Type
REMARK                         _______ _______ _______ _____ _____    ______ ____
ROOT
ATOM      1  N   UNL     1       2.644  -3.506   1.609  0.00  0.00    -0.310 N 
ATOM      2  C   UNL     1       3.405  -4.249   2.437  0.00  0.00    +0.244 C 
ATOM      3  O   UNL     1       3.504  -3.944   3.609  0.00  0.00    -0.270 OA
ATOM      4  H   UNL     1       2.565  -3.750   0.673  0.00  0.00    +0.149 HD
ENDROOT
BRANCH   2   5
ATOM      5  C   UNL     1       4.119  -5.439   1.918  0.00  0.00    +0.039 A 
ATOM      6  C   UNL     1       4.004  -5.782   0.562  0.00  0.00    +0.014 A 
ATOM      7  C   UNL     1       4.651  -6.871   0.062  0.00  0.00    +0.016 A 
ATOM      8  C   UNL     1       5.443  -7.662   0.906  0.00  0.00    +0.065 A 
ATOM      9  C   UNL     1       5.569  -7.327   2.280  0.00  0.00    +0.080 A 
ATOM     10  C   UNL     1       4.899  -6.198   2.775  0.00  0.00    +0.041 A 
ATOM     11  N   UNL     1       6.330  -8.093   3.073  0.00  0.00    -0.223 NA
ATOM     12  C   UNL     1       6.960  -9.152   2.588  0.00  0.00    +0.180 A 
ATOM     13  N   UNL     1       6.875  -9.512   1.297  0.00  0.00    -0.301 N 
ATOM     14  H   UNL     1       7.354 -10.296   0.986  0.00  0.00    +0.171 HD
ATOM     15  C   UNL     1       6.130  -8.798   0.426  0.00  0.00    +0.260 A 
ATOM     16  O   UNL     1       6.045  -9.159  -0.867  0.00  0.00    -0.267 OA
ATOM     17  S   UNL     1       7.920 -10.097   3.646  0.00  0.00    -0.011 S 
ENDBRANCH   2   5
BRANCH   1  21
ATOM     18  N   UNL     1       0.713  -0.491   1.192  0.00  0.00    +0.385 N 
ATOM     19  C   UNL     1       2.143  -0.094   1.141  0.00  0.00    -0.076 C 
ATOM     20  C   UNL     1       2.857  -1.091   2.079  0.00  0.00    +0.002 C 
ATOM     21  C   UNL     1       1.938  -2.329   2.122  0.00  0.00    +0.055 C 
ATOM     22  C   UNL     1       0.746  -1.976   1.206  0.00  0.00    -0.056 C 
ATOM     23  H   UNL     1       0.277  -0.140   2.032  0.00  0.00    -0.081 HD
BRANCH  18  25
ATOM     24  C   UNL     1      -0.019   1.526   0.010  0.00  0.00    -0.008 C 
ATOM     25  C   UNL     1       0.002  -0.004   0.002  0.00  0.00    -0.041 C 
BRANCH  25  26
ATOM     26  C   UNL     1      -1.412  -0.526   0.013  0.00  0.00    -0.061 A 
ATOM     27  C   UNL     1      -2.123  -0.571   1.197  0.00  0.00    +0.002 A 
ATOM     28  C   UNL     1      -3.420  -1.049   1.207  0.00  0.00    +0.000 A 
ATOM     29  C   UNL     1      -4.006  -1.482   0.032  0.00  0.00    +0.000 A 
ATOM     30  C   UNL     1      -3.295  -1.436  -1.153  0.00  0.00    +0.000 A 
ATOM     31  C   UNL     1      -2.000  -0.954  -1.163  0.00  0.00    +0.002 A 
ENDBRANCH  25  26
ENDBRANCH  18  25
ENDBRANCH   1  21
TORSDOF 4
