REMARK  Name = ZINC45834661
REMARK  8 active torsions:
REMARK  status: ('A' for Active; 'I' for Inactive)
REMARK    1  A    between atoms: C_1  and  C_2
REMARK    2  A    between atoms: C_2  and  C_3
REMARK    3  A    between atoms: C_6  and  N_9
REMARK    4  A    between atoms: C_11  and  C_16
REMARK    5  A    between atoms: N_18  and  C_19
REMARK    6  A    between atoms: C_19  and  C_21
REMARK    7  A    between atoms: C_19  and  C_22
REMARK    8  A    between atoms: C_25  and  N_28
REMARK                            x       y       z     vdW  Elec       q    Type
REMARK                         _______ _______ _______ _____ _____    ______ ____
ROOT
ATOM      1  C   UNL     1      -6.944  -4.546  -0.935  0.00  0.00    +0.219 C 
ATOM      2  O   UNL     1      -5.870  -4.834  -1.420  0.00  0.00    -0.275 OA
ATOM      3  N   UNL     1      -7.829  -5.516  -0.632  0.00  0.00    -0.308 N 
ATOM      4  H   UNL     1      -8.688  -5.285  -0.245  0.00  0.00    +0.149 HD
ENDROOT
BRANCH   1   7
ATOM      5  N   UNL     1      -5.316  -1.985   0.111  0.00  0.00    -0.271 N 
ATOM      6  C   UNL     1      -6.130  -2.172  -1.096  0.00  0.00    +0.127 C 
ATOM      7  C   UNL     1      -7.288  -3.102  -0.673  0.00  0.00    +0.101 C 
ATOM      8  C   UNL     1      -7.379  -2.822   0.845  0.00  0.00    +0.110 C 
ATOM      9  C   UNL     1      -5.993  -2.342   1.216  0.00  0.00    +0.221 C 
ATOM     10  O   UNL     1      -5.557  -2.287   2.346  0.00  0.00    -0.275 OA
BRANCH   5  14
ATOM     11  C   UNL     1      -1.405  -0.550   0.112  0.00  0.00    -0.048 A 
ATOM     12  C   UNL     1      -2.054  -0.785   1.310  0.00  0.00    +0.005 A 
ATOM     13  C   UNL     1      -3.351  -1.260   1.313  0.00  0.00    +0.024 A 
ATOM     14  C   UNL     1      -4.003  -1.503   0.111  0.00  0.00    +0.036 A 
ATOM     15  C   UNL     1      -3.349  -1.266  -1.090  0.00  0.00    +0.024 A 
ATOM     16  C   UNL     1      -2.054  -0.785  -1.087  0.00  0.00    +0.005 A 
BRANCH  11  18
ATOM     17  C   UNL     1      -0.009   1.499   0.115  0.00  0.00    +0.009 C 
ATOM     18  C   UNL     1       0.009  -0.031   0.112  0.00  0.00    +0.032 C 
ENDBRANCH  11  18
ENDBRANCH   5  14
ENDBRANCH   1   7
BRANCH   3  19
ATOM     19  C   UNL     1      -7.494  -6.919  -0.888  0.00  0.00    +0.100 C 
ATOM     20  C   UNL     1      -6.700  -7.477   0.295  0.00  0.00    +0.033 C 
BRANCH  19  21
ATOM     21  C   UNL     1      -8.762  -7.714  -1.062  0.00  0.00    -0.027 A 
ATOM     22  C   UNL     1      -9.856  -7.455  -0.256  0.00  0.00    +0.007 A 
ATOM     23  C   UNL     1     -11.019  -8.182  -0.413  0.00  0.00    +0.023 A 
ATOM     24  C   UNL     1     -11.091  -9.174  -1.381  0.00  0.00    +0.035 A 
ATOM     25  C   UNL     1      -9.991  -9.433  -2.189  0.00  0.00    +0.023 A 
ATOM     26  C   UNL     1      -8.832  -8.698  -2.031  0.00  0.00    +0.007 A 
BRANCH  24  27
ATOM     27  N   UNL     1     -12.268  -9.913  -1.543  0.00  0.00    -0.270 N 
ATOM     28  C   UNL     1     -13.465  -9.324  -1.352  0.00  0.00    +0.301 C 
ATOM     29  O   UNL     1     -13.527  -8.129  -1.138  0.00  0.00    -0.253 OA
ATOM     30  N   UNL     1     -14.594 -10.059  -1.398  0.00  0.00    -0.313 N 
ATOM     31  H   UNL     1     -12.223 -10.850  -1.792  0.00  0.00    +0.156 HD
ATOM     32  H   UNL     1     -14.544 -11.013  -1.569  0.00  0.00    +0.146 HD
ATOM     33  H   UNL     1     -15.455  -9.635  -1.261  0.00  0.00    +0.146 HD
ENDBRANCH  24  27
ENDBRANCH  19  21
ENDBRANCH   3  19
TORSDOF 6
