REMARK  Name = ZINC09216611
REMARK  5 active torsions:
REMARK  status: ('A' for Active; 'I' for Inactive)
REMARK    1  A    between atoms: C_6  and  C_7
REMARK    2  A    between atoms: C_7  and  N_8
REMARK    3  A    between atoms: C_12  and  C_15
REMARK    4  A    between atoms: C_18  and  O_24
REMARK    5  A    between atoms: C_19  and  C_21
REMARK                            x       y       z     vdW  Elec       q    Type
REMARK                         _______ _______ _______ _____ _____    ______ ____
ROOT
ATOM      1  N   UNL     1       5.056  -0.307   3.689  0.00  0.00    -0.318 N 
ATOM      2  C   UNL     1       6.204  -0.334   4.443  0.00  0.00    +0.176 C 
ATOM      3  N   UNL     1       7.347  -0.670   3.894  0.00  0.00    -0.127 NA
ATOM      4  N   UNL     1       8.459  -0.739   4.504  0.00  0.00    -0.151 NA
ATOM      5  C   UNL     1       8.646  -0.869   5.774  0.00  0.00    +0.081 C 
ATOM      6  C   UNL     1       7.494  -0.986   6.743  0.00  0.00    +0.135 C 
ATOM      7  S   UNL     1       6.151   0.090   6.157  0.00  0.00    -0.083 S 
ATOM      8  H   UNL     1       4.213  -0.059   4.099  0.00  0.00    +0.148 HD
ENDROOT
BRANCH   5   9
ATOM      9  C   UNL     1      10.022  -0.903   6.294  0.00  0.00    -0.000 A 
ATOM     10  C   UNL     1      10.249  -1.043   7.669  0.00  0.00    +0.013 A 
ATOM     11  C   UNL     1      11.535  -1.075   8.159  0.00  0.00    +0.047 A 
ATOM     12  C   UNL     1      12.617  -0.969   7.295  0.00  0.00    +0.129 A 
ATOM     13  C   UNL     1      12.403  -0.829   5.916  0.00  0.00    +0.078 A 
ATOM     14  C   UNL     1      11.102  -0.801   5.417  0.00  0.00    +0.026 A 
BRANCH  13  15
ATOM     15  C   UNL     1      13.551  -0.718   4.996  0.00  0.00    +0.245 C 
ATOM     16  O   UNL     1      14.685  -0.747   5.433  0.00  0.00    -0.270 OA
ATOM     17  N   UNL     1      13.343  -0.584   3.671  0.00  0.00    -0.325 N 
ATOM     18  H   UNL     1      12.438  -0.560   3.323  0.00  0.00    +0.145 HD
ATOM     19  H   UNL     1      14.098  -0.510   3.067  0.00  0.00    +0.145 HD
ENDBRANCH  13  15
BRANCH  12  20
ATOM     20  O   UNL     1      13.882  -1.001   7.785  0.00  0.00    -0.506 OA
ATOM     21  H   UNL     1      14.261  -1.889   7.835  0.00  0.00    +0.292 HD
ENDBRANCH  12  20
ENDBRANCH   5   9
BRANCH   1  22
ATOM     22  C   UNL     1       5.106  -0.654   2.267  0.00  0.00    +0.139 C 
BRANCH  22  28
ATOM     23  C   UNL     1       2.886  -1.646   1.677  0.00  0.00    +0.009 A 
ATOM     24  C   UNL     1       1.617  -1.552   1.135  0.00  0.00    +0.050 A 
ATOM     25  C   UNL     1       1.183  -0.356   0.589  0.00  0.00    +0.166 A 
ATOM     26  C   UNL     1       2.028   0.752   0.587  0.00  0.00    +0.167 A 
ATOM     27  C   UNL     1       3.298   0.651   1.131  0.00  0.00    +0.054 A 
ATOM     28  C   UNL     1       3.724  -0.547   1.675  0.00  0.00    -0.027 A 
ATOM     29  O   UNL     1       1.376   1.797  -0.001  0.00  0.00    -0.453 OA
ATOM     30  C   UNL     1      -0.018   1.436   0.010  0.00  0.00    +0.466 C 
ATOM     31  O   UNL     1       0.002  -0.004   0.002  0.00  0.00    -0.453 OA
ENDBRANCH  22  28
ENDBRANCH   1  22
TORSDOF 5
