REMARK  Name = ZINC35512488
REMARK  5 active torsions:
REMARK  status: ('A' for Active; 'I' for Inactive)
REMARK    1  A    between atoms: C_1  and  C_2
REMARK    2  A    between atoms: C_16  and  C_18
REMARK    3  A    between atoms: C_20  and  O_26
REMARK    4  A    between atoms: C_21  and  O_25
REMARK    5  A    between atoms: O_26  and  C_27
REMARK                            x       y       z     vdW  Elec       q    Type
REMARK                         _______ _______ _______ _____ _____    ______ ____
ROOT
ATOM      1  C   UNL     1      -0.018   1.503   0.010  0.00  0.00    +0.044 C 
ATOM      2  C   UNL     1       0.002  -0.004   0.002  0.00  0.00    -0.050 A 
ATOM      3  C   UNL     1       0.006  -0.689  -1.205  0.00  0.00    +0.007 A 
ATOM      4  C   UNL     1       0.022  -2.065  -1.235  0.00  0.00    +0.047 A 
ATOM      5  C   UNL     1       0.035  -2.790  -0.043  0.00  0.00    +0.139 A 
ATOM      6  C   UNL     1       0.037  -2.086   1.172  0.00  0.00    +0.065 A 
ATOM      7  C   UNL     1       0.023  -0.692   1.183  0.00  0.00    +0.018 A 
ATOM      8  C   UNL     1       0.067  -2.849   2.446  0.00  0.00    +0.199 A 
ATOM      9  O   UNL     1      -0.098  -2.332   3.537  0.00  0.00    -0.287 OA
ATOM     10  C   UNL     1       0.314  -4.283   2.266  0.00  0.00    +0.072 A 
ATOM     11  C   UNL     1       0.294  -4.850   1.023  0.00  0.00    +0.199 A 
ATOM     12  O   UNL     1       0.044  -4.142  -0.096  0.00  0.00    -0.450 OA
ATOM     13  C   UNL     1       0.583  -6.287   1.166  0.00  0.00    +0.289 C 
ATOM     14  O   UNL     1       0.644  -7.080   0.247  0.00  0.00    -0.266 OA
ATOM     15  N   UNL     1       0.770  -6.595   2.466  0.00  0.00    -0.232 N 
ATOM     16  C   UNL     1       0.614  -5.362   3.254  0.00  0.00    +0.152 C 
ATOM     17  C   UNL     1       1.060  -7.855   2.972  0.00  0.00    +0.168 A 
ATOM     18  N   UNL     1       1.245  -8.210   4.225  0.00  0.00    -0.233 NA
ATOM     19  C   UNL     1       1.515  -9.461   4.547  0.00  0.00    +0.120 A 
ATOM     20  C   UNL     1       1.592 -10.356   3.531  0.00  0.00    +0.068 A 
ATOM     21  S   UNL     1       1.252  -9.300   2.131  0.00  0.00    -0.060 S 
ENDROOT
BRANCH  16  22
ATOM     22  C   UNL     1      -0.528  -5.508   4.227  0.00  0.00    -0.017 A 
ATOM     23  C   UNL     1      -0.445  -4.929   5.480  0.00  0.00    +0.055 A 
ATOM     24  C   UNL     1      -1.494  -5.062   6.375  0.00  0.00    +0.163 A 
ATOM     25  C   UNL     1      -2.630  -5.779   6.011  0.00  0.00    +0.173 A 
ATOM     26  C   UNL     1      -2.707  -6.356   4.753  0.00  0.00    +0.063 A 
ATOM     27  C   UNL     1      -1.658  -6.215   3.862  0.00  0.00    +0.025 A 
ATOM     28 BR   UNL     1      -4.249  -7.330   4.253  0.00  0.00    -0.046 Br
BRANCH  25  29
ATOM     29  O   UNL     1      -3.661  -5.913   6.887  0.00  0.00    -0.503 OA
ATOM     30  H   UNL     1      -4.324  -5.212   6.824  0.00  0.00    +0.292 HD
ENDBRANCH  25  29
BRANCH  24  31
ATOM     31  O   UNL     1      -1.413  -4.495   7.609  0.00  0.00    -0.491 OA
ATOM     32  C   UNL     1      -0.217  -3.775   7.914  0.00  0.00    +0.277 C 
ENDBRANCH  24  31
ENDBRANCH  16  22
TORSDOF 3
