REMARK  Name = ZINC34787021
REMARK  9 active torsions:
REMARK  status: ('A' for Active; 'I' for Inactive)
REMARK    1  A    between atoms: C_1  and  C_2
REMARK    2  A    between atoms: C_4  and  C_34
REMARK    3  A    between atoms: C_11  and  C_17
REMARK    4  A    between atoms: C_12  and  C_16
REMARK    5  A    between atoms: N_18  and  N_19
REMARK    6  A    between atoms: N_18  and  N_27
REMARK    7  A    between atoms: N_19  and  C_20
REMARK    8  A    between atoms: C_20  and  C_21
REMARK    9  A    between atoms: N_27  and  C_28
REMARK                            x       y       z     vdW  Elec       q    Type
REMARK                         _______ _______ _______ _____ _____    ______ ____
ROOT
ATOM      1  C   UNL     1      -5.220  -7.263   0.998  0.00  0.00    +0.067 C 
ATOM      2  C   UNL     1      -3.967  -6.460   0.761  0.00  0.00    +0.061 A 
ATOM      3  C   UNL     1      -3.505  -6.009  -0.481  0.00  0.00    +0.048 A 
ATOM      4  C   UNL     1      -2.355  -5.328  -0.277  0.00  0.00    +0.045 A 
ATOM      5  N   UNL     1      -2.097  -5.348   1.058  0.00  0.00    -0.202 N 
ATOM      6  N   UNL     1      -3.129  -6.060   1.683  0.00  0.00    -0.169 NA
ATOM      7  C   UNL     1      -1.003  -4.759   1.692  0.00  0.00    +0.254 A 
ATOM      8  N   UNL     1      -0.880  -4.865   3.009  0.00  0.00    -0.192 NA
ATOM      9  C   UNL     1       0.134  -4.329   3.666  0.00  0.00    +0.164 A 
ATOM     10  C   UNL     1       1.129  -3.612   2.945  0.00  0.00    +0.053 A 
ATOM     11  C   UNL     1       2.323  -2.941   3.429  0.00  0.00    -0.028 A 
ATOM     12  C   UNL     1       3.127  -2.322   2.553  0.00  0.00    -0.008 A 
ATOM     13  S   UNL     1       2.327  -2.600   0.984  0.00  0.00    -0.073 S 
ATOM     14  C   UNL     1       0.933  -3.540   1.548  0.00  0.00    +0.116 A 
ATOM     15  N   UNL     1      -0.105  -4.109   0.968  0.00  0.00    -0.203 NA
ATOM     16  C   UNL     1       4.404  -1.571   2.828  0.00  0.00    +0.052 C 
ATOM     17  C   UNL     1       2.654  -2.941   4.899  0.00  0.00    +0.045 C 
ATOM     18  N   UNL     1       0.226  -4.462   5.039  0.00  0.00    -0.181 N 
ATOM     19  C   UNL     1      -1.511  -4.668  -1.336  0.00  0.00    +0.066 C 
ENDROOT
BRANCH  18  20
ATOM     20  N   UNL     1       0.496  -5.682   5.591  0.00  0.00    -0.220 NA
ATOM     21  H   UNL     1       0.120  -6.427   5.023  0.00  0.00    +0.146 HD
BRANCH  20  22
ATOM     22  C   UNL     1       1.940  -5.857   5.800  0.00  0.00    +0.138 C 
BRANCH  22  23
ATOM     23  C   UNL     1       2.206  -7.239   6.338  0.00  0.00    -0.032 A 
ATOM     24  C   UNL     1       2.110  -7.482   7.696  0.00  0.00    +0.005 A 
ATOM     25  C   UNL     1       2.354  -8.750   8.190  0.00  0.00    +0.000 A 
ATOM     26  C   UNL     1       2.693  -9.775   7.327  0.00  0.00    +0.000 A 
ATOM     27  C   UNL     1       2.788  -9.532   5.969  0.00  0.00    +0.000 A 
ATOM     28  C   UNL     1       2.540  -8.265   5.474  0.00  0.00    +0.005 A 
ENDBRANCH  22  23
ENDBRANCH  20  22
ENDBRANCH  18  20
BRANCH  18  29
ATOM     29  N   UNL     1       0.046  -3.374   5.845  0.00  0.00    -0.221 NA
ATOM     30  H   UNL     1       0.529  -3.490   6.723  0.00  0.00    +0.146 HD
BRANCH  29  31
ATOM     31  C   UNL     1      -1.383  -3.109   6.061  0.00  0.00    +0.074 C 
ATOM     32  C   UNL     1      -1.897  -2.162   4.976  0.00  0.00    +0.020 C 
ATOM     33  C   UNL     1      -3.385  -1.886   5.201  0.00  0.00    +0.002 C 
ATOM     34  C   UNL     1      -3.582  -1.242   6.575  0.00  0.00    +0.000 C 
ATOM     35  C   UNL     1      -3.068  -2.190   7.660  0.00  0.00    +0.002 C 
ATOM     36  C   UNL     1      -1.580  -2.466   7.435  0.00  0.00    +0.020 C 
ENDBRANCH  29  31
ENDBRANCH  18  29
TORSDOF 5
