REMARK  Name = ZINC09124431
REMARK  8 active torsions:
REMARK  status: ('A' for Active; 'I' for Inactive)
REMARK    1  A    between atoms: C_1  and  S_2
REMARK    2  A    between atoms: S_2  and  C_3
REMARK    3  A    between atoms: C_6  and  C_9
REMARK    4  A    between atoms: C_12  and  C_28
REMARK    5  A    between atoms: N_19  and  C_20
REMARK    6  A    between atoms: C_20  and  C_21
REMARK    7  A    between atoms: C_21  and  C_22
REMARK    8  A    between atoms: C_33  and  O_34
REMARK                            x       y       z     vdW  Elec       q    Type
REMARK                         _______ _______ _______ _____ _____    ______ ____
ROOT
ATOM      1  C   UNL     1      -5.791  -1.559   0.056  0.00  0.00    +0.141 C 
ATOM      2  C   UNL     1      -6.198  -2.091   1.403  0.00  0.00    +0.035 A 
ATOM      3  C   UNL     1      -6.331  -1.850   2.775  0.00  0.00    +0.102 A 
ATOM      4  N   UNL     1      -6.813  -2.948   3.323  0.00  0.00    -0.173 NA
ATOM      5  N   UNL     1      -6.997  -3.857   2.434  0.00  0.00    -0.272 N 
ATOM      6  H   UNL     1      -7.345  -4.746   2.610  0.00  0.00    +0.189 HD
ATOM      7  C   UNL     1      -6.632  -3.387   1.205  0.00  0.00    +0.126 A 
ATOM      8  C   UNL     1      -6.517  -3.704  -0.223  0.00  0.00    +0.265 C 
ATOM      9  O   UNL     1      -6.820  -4.770  -0.724  0.00  0.00    -0.268 OA
ATOM     10  N   UNL     1      -6.030  -2.647  -0.901  0.00  0.00    -0.285 N 
ENDROOT
BRANCH   1  14
ATOM     11  C   UNL     1      -1.649  -0.504   0.080  0.00  0.00    +0.008 A 
ATOM     12  C   UNL     1      -2.619   0.484  -0.045  0.00  0.00    +0.015 A 
ATOM     13  C   UNL     1      -3.956   0.139  -0.052  0.00  0.00    +0.007 A 
ATOM     14  C   UNL     1      -4.331  -1.187   0.065  0.00  0.00    -0.022 A 
ATOM     15  C   UNL     1      -3.368  -2.172   0.189  0.00  0.00    +0.007 A 
ATOM     16  C   UNL     1      -2.029  -1.836   0.191  0.00  0.00    +0.015 A 
BRANCH  11  18
ATOM     17  C   UNL     1       0.051   1.738  -0.076  0.00  0.00    +0.090 C 
ATOM     18  S   UNL     1       0.058  -0.069   0.090  0.00  0.00    -0.129 S 
ENDBRANCH  11  18
ENDBRANCH   1  14
BRANCH   3  19
ATOM     19  C   UNL     1      -5.991  -0.590   3.483  0.00  0.00    +0.044 A 
ATOM     20  C   UNL     1      -5.611   0.538   2.760  0.00  0.00    +0.014 A 
ATOM     21  C   UNL     1      -5.296   1.707   3.423  0.00  0.00    +0.001 A 
ATOM     22  C   UNL     1      -5.356   1.762   4.804  0.00  0.00    +0.004 A 
ATOM     23  C   UNL     1      -5.731   0.649   5.531  0.00  0.00    +0.046 A 
ATOM     24  C   UNL     1      -6.056  -0.529   4.878  0.00  0.00    +0.126 A 
BRANCH  24  25
ATOM     25  O   UNL     1      -6.432  -1.623   5.591  0.00  0.00    -0.506 OA
ATOM     26  H   UNL     1      -5.697  -2.196   5.848  0.00  0.00    +0.292 HD
ENDBRANCH  24  25
ENDBRANCH   3  19
BRANCH  10  27
ATOM     27  C   UNL     1      -5.780  -2.592  -2.343  0.00  0.00    +0.114 C 
BRANCH  27  28
ATOM     28  C   UNL     1      -4.351  -3.055  -2.632  0.00  0.00    +0.054 C 
BRANCH  28  29
ATOM     29  C   UNL     1      -4.094  -2.998  -4.115  0.00  0.00    -0.046 A 
ATOM     30  C   UNL     1      -4.369  -4.098  -4.907  0.00  0.00    +0.004 A 
ATOM     31  C   UNL     1      -4.134  -4.045  -6.268  0.00  0.00    +0.000 A 
ATOM     32  C   UNL     1      -3.623  -2.894  -6.838  0.00  0.00    +0.000 A 
ATOM     33  C   UNL     1      -3.349  -1.794  -6.046  0.00  0.00    +0.000 A 
ATOM     34  C   UNL     1      -3.588  -1.845  -4.686  0.00  0.00    +0.004 A 
ENDBRANCH  28  29
ENDBRANCH  27  28
ENDBRANCH  10  27
TORSDOF 7
