REMARK  Name = ZINC15946844
REMARK  12 active torsions:
REMARK  status: ('A' for Active; 'I' for Inactive)
REMARK    1  A    between atoms: C_1  and  C_2
REMARK    2  A    between atoms: C_2  and  O_3
REMARK    3  A    between atoms: O_3  and  C_4
REMARK    4  A    between atoms: C_7  and  N_10
REMARK    5  A    between atoms: C_11  and  C_13
REMARK    6  A    between atoms: C_17  and  N_18
REMARK    7  A    between atoms: C_19  and  C_21
REMARK    8  A    between atoms: C_21  and  N_67
REMARK    9  A    between atoms: C_22  and  C_23
REMARK   10  A    between atoms: C_22  and  N_67
REMARK   11  A    between atoms: C_23  and  C_24
REMARK   12  A    between atoms: C_31  and  C_35
REMARK                            x       y       z     vdW  Elec       q    Type
REMARK                         _______ _______ _______ _____ _____    ______ ____
ROOT
ATOM      1  C   UNL     1      -0.583  -4.132   0.998  0.00  0.00    +0.069 A 
ATOM      2  C   UNL     1      -0.350  -2.711   0.800  0.00  0.00    -0.023 A 
ATOM      3  C   UNL     1      -1.404  -2.018   0.318  0.00  0.00    -0.004 A 
ATOM      4  S   UNL     1      -2.689  -3.221   0.127  0.00  0.00    -0.077 S 
ATOM      5  C   UNL     1      -1.840  -4.626   0.680  0.00  0.00    +0.084 A 
ATOM      6  C   UNL     1      -1.458  -0.552   0.014  0.00  0.00    +0.046 C 
ATOM      7  C   UNL     1      -0.021  -0.013  -0.023  0.00  0.00    -0.009 C 
ATOM      8  C   UNL     1       0.726  -0.513   1.216  0.00  0.00    +0.008 C 
ATOM      9  C   UNL     1       0.973  -2.018   1.102  0.00  0.00    +0.037 C 
ATOM     10  C   UNL     1      -0.047   1.517  -0.023  0.00  0.00    +0.008 C 
ENDROOT
BRANCH   1  12
ATOM     11  N   UNL     1       1.315  -5.624   0.663  0.00  0.00    -0.281 N 
ATOM     12  C   UNL     1       0.471  -5.010   1.516  0.00  0.00    +0.251 C 
ATOM     13  O   UNL     1       0.584  -5.183   2.715  0.00  0.00    -0.270 OA
ATOM     14  H   UNL     1       1.184  -5.540  -0.294  0.00  0.00    +0.155 HD
BRANCH  11  18
ATOM     15  C   UNL     1       4.488  -7.890   2.141  0.00  0.00    +0.121 A 
ATOM     16  C   UNL     1       3.279  -7.864   2.820  0.00  0.00    +0.047 A 
ATOM     17  C   UNL     1       2.227  -7.114   2.331  0.00  0.00    +0.027 A 
ATOM     18  C   UNL     1       2.381  -6.385   1.159  0.00  0.00    +0.034 A 
ATOM     19  C   UNL     1       3.590  -6.415   0.477  0.00  0.00    +0.027 A 
ATOM     20  C   UNL     1       4.642  -7.162   0.970  0.00  0.00    +0.047 A 
BRANCH  15  21
ATOM     21  O   UNL     1       5.522  -8.629   2.622  0.00  0.00    -0.492 OA
BRANCH  21  23
ATOM     22  C   UNL     1       7.779  -9.493   2.563  0.00  0.00    +0.048 C 
ATOM     23  C   UNL     1       6.739  -8.610   1.872  0.00  0.00    +0.225 C 
ENDBRANCH  21  23
ENDBRANCH  15  21
ENDBRANCH  11  18
ENDBRANCH   1  12
BRANCH   5  24
ATOM     24  N   UNL     1      -2.303  -5.929   0.779  0.00  0.00    -0.281 N 
ATOM     25  C   UNL     1      -3.568  -6.224   0.419  0.00  0.00    +0.201 C 
ATOM     26  O   UNL     1      -4.301  -5.349   0.009  0.00  0.00    -0.278 OA
ATOM     27  H   UNL     1      -1.717  -6.629   1.108  0.00  0.00    +0.155 HD
BRANCH  25  28
ATOM     28  C   UNL     1      -4.072  -7.640   0.528  0.00  0.00    +0.015 C 
BRANCH  28  29
ATOM     29  N   UNL     1      -5.475  -7.690   0.075  0.00  0.00    +0.385 N 
ATOM     30  H   UNL     1      -5.528  -7.375  -0.901  0.00  0.00    -0.085 HD
ATOM     31  H   UNL     1      -6.044  -7.071   0.666  0.00  0.00    -0.085 HD
BRANCH  29  32
ATOM     32  C   UNL     1      -5.996  -9.067   0.170  0.00  0.00    -0.077 C 
BRANCH  32  33
ATOM     33  C   UNL     1      -7.450  -9.087  -0.305  0.00  0.00    +0.016 C 
BRANCH  33  34
ATOM     34  C   UNL     1      -7.989 -10.491  -0.211  0.00  0.00    -0.049 A 
ATOM     35  C   UNL     1      -7.873 -11.350  -1.288  0.00  0.00    +0.003 A 
ATOM     36  C   UNL     1      -8.364 -12.639  -1.200  0.00  0.00    +0.000 A 
ATOM     37  C   UNL     1      -8.979 -13.067  -0.038  0.00  0.00    +0.000 A 
ATOM     38  C   UNL     1      -9.100 -12.206   1.037  0.00  0.00    +0.000 A 
ATOM     39  C   UNL     1      -8.605 -10.919   0.951  0.00  0.00    +0.003 A 
ENDBRANCH  33  34
ENDBRANCH  32  33
ENDBRANCH  29  32
ENDBRANCH  28  29
ENDBRANCH  25  28
ENDBRANCH   5  24
TORSDOF 10
