REMARK  Name = ZINC09344958
REMARK  9 active torsions:
REMARK  status: ('A' for Active; 'I' for Inactive)
REMARK    1  A    between atoms: C_1  and  C_2
REMARK    2  A    between atoms: C_10  and  C_20
REMARK    3  A    between atoms: C_16  and  S_18
REMARK    4  A    between atoms: S_18  and  C_19
REMARK    5  A    between atoms: C_23  and  O_26
REMARK    6  A    between atoms: O_26  and  C_27
REMARK    7  A    between atoms: C_28  and  C_31
REMARK    8  A    between atoms: C_35  and  O_37
REMARK    9  A    between atoms: O_37  and  C_38
REMARK                            x       y       z     vdW  Elec       q    Type
REMARK                         _______ _______ _______ _____ _____    ______ ____
ROOT
ATOM      1  C   UNL     1      -0.022   2.048   1.991  0.00  0.00    +0.044 C 
ATOM      2  C   UNL     1      -0.066   0.615   1.528  0.00  0.00    -0.050 A 
ATOM      3  C   UNL     1      -0.167   0.329   0.177  0.00  0.00    +0.007 A 
ATOM      4  C   UNL     1      -0.207  -0.981  -0.262  0.00  0.00    +0.046 A 
ATOM      5  C   UNL     1      -0.146  -2.018   0.653  0.00  0.00    +0.131 A 
ATOM      6  C   UNL     1      -0.044  -1.728   2.019  0.00  0.00    +0.040 A 
ATOM      7  C   UNL     1       0.002  -0.410   2.453  0.00  0.00    +0.017 A 
ATOM      8  C   UNL     1       0.015  -2.862   2.977  0.00  0.00    +0.058 C 
ATOM      9  C   UNL     1      -0.355  -4.078   2.524  0.00  0.00    +0.025 C 
ATOM     10  C   UNL     1      -0.292  -5.245   3.483  0.00  0.00    +0.159 C 
ATOM     11  N   UNL     1       0.172  -4.938   4.842  0.00  0.00    -0.209 N 
ATOM     12  C   UNL     1       0.512  -3.635   5.153  0.00  0.00    +0.216 C 
ATOM     13  N   UNL     1       0.426  -2.677   4.255  0.00  0.00    -0.326 N 
ATOM     14  N   UNL     1       0.899  -3.620   6.441  0.00  0.00    -0.192 NA
ATOM     15  C   UNL     1       0.825  -4.832   6.955  0.00  0.00    +0.174 C 
ATOM     16  N   UNL     1       0.375  -5.699   5.995  0.00  0.00    -0.239 N 
ATOM     17  C   UNL     1      -0.823  -4.256   1.109  0.00  0.00    +0.234 C 
ATOM     18  O   UNL     1      -0.180  -3.313   0.249  0.00  0.00    -0.479 OA
ATOM     19  H   UNL     1       0.675  -1.779   4.525  0.00  0.00    +0.169 HD
ATOM     20  H   UNL     1       0.226  -6.652   6.096  0.00  0.00    +0.172 HD
ENDROOT
BRANCH  10  21
ATOM     21  C   UNL     1      -1.672  -5.843   3.587  0.00  0.00    -0.021 A 
ATOM     22  C   UNL     1      -2.666  -5.171   4.274  0.00  0.00    +0.009 A 
ATOM     23  C   UNL     1      -3.931  -5.717   4.371  0.00  0.00    +0.046 A 
ATOM     24  C   UNL     1      -4.204  -6.941   3.778  0.00  0.00    +0.120 A 
ATOM     25  C   UNL     1      -3.205  -7.613   3.088  0.00  0.00    +0.046 A 
ATOM     26  C   UNL     1      -1.943  -7.060   2.990  0.00  0.00    +0.009 A 
BRANCH  24  27
ATOM     27  O   UNL     1      -5.448  -7.480   3.872  0.00  0.00    -0.495 OA
ATOM     28  C   UNL     1      -5.657  -8.743   3.237  0.00  0.00    +0.277 C 
ENDBRANCH  24  27
ENDBRANCH  10  21
BRANCH  17  29
ATOM     29  C   UNL     1      -2.314  -4.048   1.046  0.00  0.00    +0.000 A 
ATOM     30  C   UNL     1      -3.155  -5.127   0.847  0.00  0.00    +0.008 A 
ATOM     31  C   UNL     1      -4.523  -4.939   0.789  0.00  0.00    +0.004 A 
ATOM     32  C   UNL     1      -5.054  -3.671   0.930  0.00  0.00    +0.045 A 
ATOM     33  C   UNL     1      -4.212  -2.586   1.129  0.00  0.00    +0.120 A 
ATOM     34  C   UNL     1      -2.840  -2.779   1.193  0.00  0.00    +0.053 A 
BRANCH  33  35
ATOM     35  O   UNL     1      -4.731  -1.338   1.268  0.00  0.00    -0.495 OA
ATOM     36  C   UNL     1      -6.154  -1.216   1.198  0.00  0.00    +0.277 C 
ENDBRANCH  33  35
ENDBRANCH  17  29
BRANCH  15  37
ATOM     37  S   UNL     1       1.239  -5.266   8.612  0.00  0.00    -0.092 S 
ATOM     38  C   UNL     1       1.757  -3.697   9.361  0.00  0.00    +0.093 C 
ENDBRANCH  15  37
TORSDOF 5
