REMARK  Name = ZINC12002932
REMARK  10 active torsions:
REMARK  status: ('A' for Active; 'I' for Inactive)
REMARK    1  A    between atoms: C_1  and  C_2
REMARK    2  A    between atoms: C_2  and  O_3
REMARK    3  A    between atoms: O_3  and  C_4
REMARK    4  A    between atoms: C_9  and  C_10
REMARK    5  A    between atoms: C_10  and  N_60
REMARK    6  A    between atoms: C_12  and  N_21
REMARK    7  A    between atoms: C_15  and  C_17
REMARK    8  A    between atoms: C_17  and  O_19
REMARK    9  A    between atoms: O_19  and  C_20
REMARK   10  A    between atoms: C_22  and  C_24
REMARK                            x       y       z     vdW  Elec       q    Type
REMARK                         _______ _______ _______ _____ _____    ______ ____
ROOT
ATOM      1  C   UNL     1       3.603   1.821  -0.563  0.00  0.00    -0.055 C 
ATOM      2  C   UNL     1       2.979   2.937  -1.422  0.00  0.00    +0.056 C 
ATOM      3  C   UNL     1       1.451   2.746  -1.284  0.00  0.00    +0.016 C 
ATOM      4  C   UNL     1       1.319   1.949   0.038  0.00  0.00    +0.045 C 
ATOM      5  N   UNL     1       2.478   1.051  -0.019  0.00  0.00    +0.393 N 
ATOM      6  H   UNL     1       2.271   0.256  -0.635  0.00  0.00    -0.080 HD
ENDROOT
BRANCH   2   7
ATOM      7  N   UNL     1       3.375   4.252  -0.913  0.00  0.00    -0.310 N 
ATOM      8  C   UNL     1       4.531   4.812  -1.322  0.00  0.00    +0.245 C 
ATOM      9  O   UNL     1       5.244   4.226  -2.113  0.00  0.00    -0.270 OA
ATOM     10  H   UNL     1       2.806   4.719  -0.282  0.00  0.00    +0.149 HD
BRANCH   8  11
ATOM     11  C   UNL     1       4.930   6.136  -0.809  0.00  0.00    +0.044 A 
ATOM     12  C   UNL     1       4.067   6.867  -0.005  0.00  0.00    +0.013 A 
ATOM     13  C   UNL     1       4.437   8.114   0.481  0.00  0.00    +0.001 A 
ATOM     14  C   UNL     1       5.653   8.654   0.184  0.00  0.00    +0.008 A 
ATOM     15  C   UNL     1       6.559   7.950  -0.627  0.00  0.00    -0.017 A 
ATOM     16  C   UNL     1       6.202   6.675  -1.128  0.00  0.00    -0.006 A 
ATOM     17  C   UNL     1       7.109   5.971  -1.932  0.00  0.00    +0.009 A 
ATOM     18  C   UNL     1       8.323   6.519  -2.218  0.00  0.00    +0.001 A 
ATOM     19  C   UNL     1       8.678   7.771  -1.722  0.00  0.00    +0.001 A 
ATOM     20  C   UNL     1       7.819   8.486  -0.946  0.00  0.00    +0.008 A 
ENDBRANCH   8  11
ENDBRANCH   2   7
BRANCH   4  21
ATOM     21  C   UNL     1       0.029   1.170   0.063  0.00  0.00    +0.293 C 
ATOM     22  O   UNL     1       0.053  -0.038   0.050  0.00  0.00    -0.253 OA
BRANCH  21  23
ATOM     23  O   UNL     1      -1.146   1.818   0.094  0.00  0.00    -0.469 OA
ATOM     24  C   UNL     1      -2.347   1.003   0.111  0.00  0.00    +0.280 C 
ENDBRANCH  21  23
ENDBRANCH   4  21
BRANCH   5  25
ATOM     25  C   UNL     1       2.814   0.538   1.344  0.00  0.00    -0.038 C 
BRANCH  25  31
ATOM     26  C   UNL     1       5.172  -0.263   1.057  0.00  0.00    +0.122 A 
ATOM     27  C   UNL     1       6.107  -1.284   0.965  0.00  0.00    +0.046 A 
ATOM     28  C   UNL     1       5.700  -2.602   1.047  0.00  0.00    +0.004 A 
ATOM     29  C   UNL     1       4.362  -2.903   1.224  0.00  0.00    +0.000 A 
ATOM     30  C   UNL     1       3.429  -1.887   1.321  0.00  0.00    +0.005 A 
ATOM     31  C   UNL     1       3.831  -0.568   1.240  0.00  0.00    -0.022 A 
BRANCH  26  32
ATOM     32  O   UNL     1       5.570   1.033   0.971  0.00  0.00    -0.492 OA
BRANCH  32  34
ATOM     33  C   UNL     1       7.220   2.780   0.710  0.00  0.00    +0.048 C 
ATOM     34  C   UNL     1       6.966   1.273   0.782  0.00  0.00    +0.225 C 
ENDBRANCH  32  34
ENDBRANCH  26  32
ENDBRANCH  25  31
ENDBRANCH   5  25
TORSDOF 8
