REMARK  Name = ZINC29568348
REMARK  5 active torsions:
REMARK  status: ('A' for Active; 'I' for Inactive)
REMARK    1  A    between atoms: C_4  and  C_7
REMARK    2  A    between atoms: C_7  and  N_8
REMARK    3  A    between atoms: N_17  and  C_18
REMARK    4  A    between atoms: N_21  and  C_24
REMARK    5  A    between atoms: C_24  and  C_25
REMARK                            x       y       z     vdW  Elec       q    Type
REMARK                         _______ _______ _______ _____ _____    ______ ____
ROOT
ATOM      1  N   UNL     1       3.688   4.730  -0.778  0.00  0.00    -0.294 N 
ATOM      2  C   UNL     1       4.676   4.021  -1.436  0.00  0.00    +0.160 A 
ATOM      3  C   UNL     1       4.809   4.624  -2.699  0.00  0.00    +0.085 A 
ATOM      4  C   UNL     1       5.746   4.110  -3.599  0.00  0.00    +0.031 A 
ATOM      5  C   UNL     1       6.510   3.028  -3.199  0.00  0.00    +0.022 A 
ATOM      6  C   UNL     1       6.319   2.486  -1.940  0.00  0.00    +0.113 A 
ATOM      7  N   UNL     1       5.427   2.983  -1.107  0.00  0.00    -0.236 NA
ATOM      8  N   UNL     1       3.926   5.654  -2.750  0.00  0.00    -0.326 N 
ATOM      9  C   UNL     1       3.265   5.719  -1.621  0.00  0.00    +0.176 A 
ATOM     10  N   UNL     1       2.288   6.646  -1.327  0.00  0.00    -0.313 N 
ATOM     11  H   UNL     1       1.785   6.624  -0.349  0.00  0.00    +0.149 HD
ATOM     12  H   UNL     1       3.860   6.277  -3.654  0.00  0.00    +0.169 HD
ENDROOT
BRANCH  10  13
ATOM     13  C   UNL     1       1.921   7.662  -2.317  0.00  0.00    +0.075 C 
ATOM     14  C   UNL     1       2.875   8.854  -2.205  0.00  0.00    +0.037 C 
ATOM     15  C   UNL     1       2.448   9.937  -3.199  0.00  0.00    +0.086 C 
ATOM     16  N   UNL     1       1.071  10.358  -2.906  0.00  0.00    -0.299 NA
ATOM     17  C   UNL     1       0.131   9.240  -3.054  0.00  0.00    +0.086 C 
ATOM     18  C   UNL     1       0.488   8.136  -2.055  0.00  0.00    +0.037 C 
BRANCH  16  19
ATOM     19  C   UNL     1       0.677  11.493  -3.752  0.00  0.00    +0.132 C 
BRANCH  19  20
ATOM     20  C   UNL     1      -0.512  12.214  -3.114  0.00  0.00    +0.225 C 
ATOM     21  C   UNL     1      -0.958  13.374  -4.016  0.00  0.00    +0.275 C 
ATOM     22  O   UNL     1      -2.060  14.034  -3.385  0.00  0.00    -0.485 OA
ATOM     23  C   UNL     1      -1.930  14.311  -2.059  0.00  0.00    +0.162 A 
ATOM     24  C   UNL     1      -2.774  15.242  -1.471  0.00  0.00    +0.049 A 
ATOM     25  C   UNL     1      -2.658  15.529  -0.124  0.00  0.00    +0.004 A 
ATOM     26  C   UNL     1      -1.702  14.888   0.641  0.00  0.00    +0.004 A 
ATOM     27  C   UNL     1      -0.857  13.960   0.062  0.00  0.00    +0.049 A 
ATOM     28  C   UNL     1      -0.967  13.669  -1.289  0.00  0.00    +0.163 A 
ATOM     29  O   UNL     1      -0.126  12.755  -1.846  0.00  0.00    -0.481 OA
ENDBRANCH  19  20
ENDBRANCH  16  19
ENDBRANCH  10  13
BRANCH   1  30
ATOM     30  C   UNL     1       3.191   4.473   0.576  0.00  0.00    +0.161 C 
BRANCH  30  34
ATOM     31  C   UNL     1      -0.093   1.748   0.389  0.00  0.00    +0.000 A 
ATOM     32  C   UNL     1       1.196   1.268   0.527  0.00  0.00    +0.000 A 
ATOM     33  C   UNL     1       2.259   2.150   0.585  0.00  0.00    +0.005 A 
ATOM     34  C   UNL     1       2.032   3.511   0.511  0.00  0.00    -0.028 A 
ATOM     35  C   UNL     1       0.743   3.991   0.379  0.00  0.00    +0.005 A 
ATOM     36  C   UNL     1      -0.320   3.109   0.319  0.00  0.00    +0.000 A 
ENDBRANCH  30  34
ENDBRANCH   1  30
TORSDOF 5
