REMARK  Name = ZINC30782163
REMARK  2 active torsions:
REMARK  status: ('A' for Active; 'I' for Inactive)
REMARK    1  A    between atoms: C_6  and  C_11
REMARK    2  A    between atoms: C_17  and  C_20
REMARK                            x       y       z     vdW  Elec       q    Type
REMARK                         _______ _______ _______ _____ _____    ______ ____
ROOT
ATOM      1  C   UNL     1       4.828   4.018  -0.025  0.00  0.00    +0.186 A 
ATOM      2  N   UNL     1       4.974   5.301  -0.294  0.00  0.00    -0.126 NA
ATOM      3  N   UNL     1       6.219   5.634  -0.208  0.00  0.00    -0.120 NA
ATOM      4  C   UNL     1       6.929   4.596   0.119  0.00  0.00    +0.213 A 
ATOM      5  N   UNL     1       6.071   3.525   0.249  0.00  0.00    -0.186 N 
ATOM      6  N   UNL     1       6.501   2.245   0.587  0.00  0.00    -0.166 NA
ATOM      7  C   UNL     1       7.631   2.025   1.163  0.00  0.00    +0.079 C 
ATOM      8  C   UNL     1       8.617   3.070   1.588  0.00  0.00    +0.135 C 
ATOM      9  S   UNL     1       8.663   4.437   0.392  0.00  0.00    -0.078 S 
ENDROOT
BRANCH   1  15
ATOM     10  C   UNL     1      -1.199   1.743   0.017  0.00  0.00    +0.001 A 
ATOM     11  C   UNL     1      -1.239   3.136   0.030  0.00  0.00    +0.001 A 
ATOM     12  C   UNL     1      -0.093   3.870   0.023  0.00  0.00    +0.008 A 
ATOM     13  C   UNL     1       1.152   3.215   0.008  0.00  0.00    -0.017 A 
ATOM     14  C   UNL     1       2.353   3.941  -0.001  0.00  0.00    +0.020 A 
ATOM     15  C   UNL     1       3.559   3.261  -0.016  0.00  0.00    +0.022 A 
ATOM     16  C   UNL     1       3.586   1.854  -0.023  0.00  0.00    +0.012 A 
ATOM     17  C   UNL     1       2.434   1.136  -0.015  0.00  0.00    +0.009 A 
ATOM     18  C   UNL     1       1.193   1.798   0.000  0.00  0.00    -0.018 A 
ATOM     19  C   UNL     1      -0.013   1.076   0.008  0.00  0.00    +0.008 A 
ENDBRANCH   1  15
BRANCH   7  20
ATOM     20  C   UNL     1       7.987   0.619   1.428  0.00  0.00    -0.001 A 
ATOM     21  C   UNL     1       9.201   0.306   2.045  0.00  0.00    +0.011 A 
ATOM     22  C   UNL     1       9.527  -1.010   2.293  0.00  0.00    +0.016 A 
ATOM     23  C   UNL     1       8.657  -2.023   1.923  0.00  0.00    +0.018 A 
ATOM     24  C   UNL     1       7.455  -1.721   1.307  0.00  0.00    +0.016 A 
ATOM     25  C   UNL     1       7.115  -0.408   1.057  0.00  0.00    +0.011 A 
ATOM     26 BR   UNL     1       9.114  -3.826   2.263  0.00  0.00    -0.050 Br
ENDBRANCH   7  20
TORSDOF 2
