REMARK  Name = ZINC02731681
REMARK  11 active torsions:
REMARK  status: ('A' for Active; 'I' for Inactive)
REMARK    1  A    between atoms: C_1  and  C_2
REMARK    2  A    between atoms: C_3  and  C_31
REMARK    3  A    between atoms: C_4  and  C_20
REMARK    4  A    between atoms: C_10  and  C_15
REMARK    5  A    between atoms: C_31  and  O_33
REMARK    6  A    between atoms: O_33  and  C_34
REMARK    7  A    between atoms: C_34  and  C_35
REMARK    8  A    between atoms: C_35  and  O_36
REMARK    9  A    between atoms: O_36  and  C_37
REMARK   10  A    between atoms: C_37  and  C_38
REMARK   11  A    between atoms: C_37  and  C_39
REMARK                            x       y       z     vdW  Elec       q    Type
REMARK                         _______ _______ _______ _____ _____    ______ ____
ROOT
ATOM      1  C   UNL     1       7.525   1.969  -2.361  0.00  0.00    +0.061 C 
ATOM      2  C   UNL     1       6.746   2.439  -1.160  0.00  0.00    +0.016 C 
ATOM      3  C   UNL     1       5.795   3.378  -1.307  0.00  0.00    +0.065 C 
ATOM      4  C   UNL     1       4.993   3.864  -0.136  0.00  0.00    +0.099 C 
ATOM      5  C   UNL     1       5.667   3.511   1.166  0.00  0.00    +0.024 C 
ATOM      6  C   UNL     1       6.630   2.566   1.210  0.00  0.00    +0.016 C 
ATOM      7  N   UNL     1       7.011   1.909   0.071  0.00  0.00    -0.321 N 
ATOM      8  C   UNL     1       7.314   2.212   2.508  0.00  0.00    +0.060 C 
ATOM      9  C   UNL     1       6.343   2.419   3.673  0.00  0.00    +0.039 C 
ATOM     10  C   UNL     1       5.880   3.880   3.666  0.00  0.00    +0.088 C 
ATOM     11  C   UNL     1       5.265   4.191   2.329  0.00  0.00    +0.162 C 
ATOM     12  O   UNL     1       4.405   5.047   2.252  0.00  0.00    -0.292 OA
ATOM     13  H   UNL     1       7.534   0.945   0.154  0.00  0.00    +0.152 HD
ENDROOT
BRANCH   4  14
ATOM     14  C   UNL     1       3.627   3.228  -0.173  0.00  0.00    +0.047 A 
ATOM     15  C   UNL     1       3.502   1.889  -0.122  0.00  0.00    +0.204 A 
ATOM     16  O   UNL     1       2.318   1.269  -0.153  0.00  0.00    -0.462 OA
ATOM     17  C   UNL     1       1.152   1.942  -0.237  0.00  0.00    +0.138 A 
ATOM     18  C   UNL     1      -0.063   1.267  -0.267  0.00  0.00    +0.047 A 
ATOM     19  C   UNL     1      -1.241   1.977  -0.360  0.00  0.00    +0.004 A 
ATOM     20  C   UNL     1      -1.230   3.364  -0.412  0.00  0.00    +0.001 A 
ATOM     21  C   UNL     1      -0.037   4.051  -0.384  0.00  0.00    +0.015 A 
ATOM     22  C   UNL     1       1.161   3.345  -0.296  0.00  0.00    +0.064 A 
ATOM     23  C   UNL     1       2.464   4.037  -0.263  0.00  0.00    +0.197 A 
ATOM     24  O   UNL     1       2.538   5.253  -0.312  0.00  0.00    -0.287 OA
ENDBRANCH   4  14
BRANCH   9  25
ATOM     25  C   UNL     1       7.037   2.114   4.976  0.00  0.00    -0.006 A 
ATOM     26  C   UNL     1       6.712   1.199   5.922  0.00  0.00    +0.011 A 
ATOM     27  C   UNL     1       7.505   1.091   7.049  0.00  0.00    +0.008 A 
ATOM     28  C   UNL     1       8.577   1.910   7.180  0.00  0.00    +0.045 A 
ATOM     29  S   UNL     1       8.495   2.869   5.677  0.00  0.00    -0.101 S 
ENDBRANCH   9  25
BRANCH   3  30
ATOM     30  C   UNL     1       5.545   3.918  -2.590  0.00  0.00    +0.338 C 
ATOM     31  O   UNL     1       6.256   3.611  -3.529  0.00  0.00    -0.245 OA
BRANCH  30  32
ATOM     32  O   UNL     1       4.518   4.773  -2.774  0.00  0.00    -0.459 OA
BRANCH  32  33
ATOM     33  C   UNL     1       4.324   5.280  -4.096  0.00  0.00    +0.260 C 
BRANCH  33  34
ATOM     34  C   UNL     1       3.122   6.227  -4.109  0.00  0.00    +0.201 C 
BRANCH  34  35
ATOM     35  O   UNL     1       3.410   7.372  -3.304  0.00  0.00    -0.374 OA
BRANCH  35  36
ATOM     36  C   UNL     1       2.346   8.325  -3.248  0.00  0.00    +0.112 C 
ATOM     37  C   UNL     1       2.384   9.052  -1.902  0.00  0.00    +0.037 C 
ATOM     38  C   UNL     1       2.510   9.339  -4.381  0.00  0.00    +0.037 C 
ENDBRANCH  35  36
ENDBRANCH  34  35
ENDBRANCH  33  34
ENDBRANCH  32  33
ENDBRANCH  30  32
ENDBRANCH   3  30
TORSDOF 8
