REMARK  Name = ZINC39467610
REMARK  8 active torsions:
REMARK  status: ('A' for Active; 'I' for Inactive)
REMARK    1  A    between atoms: C_1  and  C_2
REMARK    2  A    between atoms: C_2  and  C_3
REMARK    3  A    between atoms: C_2  and  S_4
REMARK    4  A    between atoms: S_4  and  C_7
REMARK    5  A    between atoms: P_16  and  C_32
REMARK    6  A    between atoms: C_24  and  C_25
REMARK    7  A    between atoms: C_30  and  O_31
REMARK    8  A    between atoms: C_37  and  O_38
REMARK                            x       y       z     vdW  Elec       q    Type
REMARK                         _______ _______ _______ _____ _____    ______ ____
ROOT
ATOM      1  C   UNL     1       2.256  -0.012  -1.000  0.00  0.00    +0.092 C 
ATOM      2  C   UNL     1       3.276  -0.864  -0.989  0.00  0.00    +0.004 C 
ATOM      3  C   UNL     1       4.685  -0.338  -1.017  0.00  0.00    +0.017 C 
ATOM      4  C   UNL     1       5.652  -1.368  -0.447  0.00  0.00    -0.003 C 
ATOM      5  C   UNL     1       5.367  -1.615   1.040  0.00  0.00    -0.020 C 
ATOM      6  C   UNL     1       6.398  -2.638   1.533  0.00  0.00    +0.157 C 
ATOM      7  O   UNL     1       6.148  -2.946   2.916  0.00  0.00    -0.316 OA
ATOM      8  P   UNL     1       5.979  -1.699   3.948  0.00  0.00    +0.291 P 
ATOM      9  O   UNL     1       7.306  -1.172   4.338  0.00  0.00    -0.269 OA
ATOM     10  N   UNL     1       5.134  -0.556   3.110  0.00  0.00    -0.288 NA
ATOM     11  N   UNL     1       5.463  -0.358   1.786  0.00  0.00    +0.398 N 
ATOM     12  C   UNL     1       4.491   0.620   1.271  0.00  0.00    -0.046 C 
ATOM     13  C   UNL     1       4.774   0.941  -0.179  0.00  0.00    +0.005 C 
ATOM     14  C   UNL     1       3.719   1.910  -0.658  0.00  0.00    -0.014 C 
ATOM     15  C   UNL     1       2.523   1.442  -1.057  0.00  0.00    +0.006 C 
ATOM     16  H   UNL     1       4.431  -0.041   3.537  0.00  0.00    +0.111 HD
ATOM     17  H   UNL     1       6.401   0.008   1.716  0.00  0.00    -0.055 HD
ENDROOT
BRANCH  15  18
ATOM     18  C   UNL     1       1.479   2.374  -1.546  0.00  0.00    +0.025 A 
ATOM     19  C   UNL     1       1.423   2.718  -2.895  0.00  0.00    +0.012 A 
ATOM     20  C   UNL     1       0.449   3.586  -3.345  0.00  0.00    +0.001 A 
ATOM     21  C   UNL     1      -0.473   4.117  -2.460  0.00  0.00    +0.004 A 
ATOM     22  C   UNL     1      -0.426   3.784  -1.120  0.00  0.00    +0.046 A 
ATOM     23  C   UNL     1       0.543   2.909  -0.656  0.00  0.00    +0.125 A 
BRANCH  23  24
ATOM     24  O   UNL     1       0.586   2.576   0.661  0.00  0.00    -0.506 OA
ATOM     25  H   UNL     1       1.136   3.163   1.197  0.00  0.00    +0.292 HD
ENDBRANCH  23  24
ENDBRANCH  15  18
BRANCH   8  26
ATOM     26  C   UNL     1       5.054  -2.220   5.418  0.00  0.00    +0.091 A 
ATOM     27  C   UNL     1       3.676  -2.119   5.440  0.00  0.00    +0.018 A 
ATOM     28  C   UNL     1       2.970  -2.515   6.561  0.00  0.00    +0.001 A 
ATOM     29  C   UNL     1       3.641  -3.015   7.662  0.00  0.00    +0.004 A 
ATOM     30  C   UNL     1       5.018  -3.119   7.645  0.00  0.00    +0.046 A 
ATOM     31  C   UNL     1       5.728  -2.727   6.520  0.00  0.00    +0.131 A 
BRANCH  31  32
ATOM     32  O   UNL     1       7.083  -2.833   6.498  0.00  0.00    -0.506 OA
ATOM     33  H   UNL     1       7.544  -2.049   6.825  0.00  0.00    +0.292 HD
ENDBRANCH  31  32
ENDBRANCH   8  26
BRANCH   1  34
ATOM     34  S   UNL     1       0.599  -0.609  -0.955  0.00  0.00    -0.001 S 
ATOM     35  O   UNL     1      -0.030   0.143   0.073  0.00  0.00    -0.169 OA
ATOM     36  O   UNL     1       0.725  -2.020  -0.846  0.00  0.00    -0.169 OA
BRANCH  34  38
ATOM     37  C   UNL     1       0.783  -0.737  -3.681  0.00  0.00    +0.032 C 
ATOM     38  C   UNL     1      -0.100  -0.167  -2.569  0.00  0.00    +0.130 C 
ATOM     39  C   UNL     1      -1.511  -0.747  -2.690  0.00  0.00    +0.032 C 
ENDBRANCH  34  38
ENDBRANCH   1  34
TORSDOF 6
