REMARK  Name = ZINC13501092
REMARK  11 active torsions:
REMARK  status: ('A' for Active; 'I' for Inactive)
REMARK    1  A    between atoms: C_1  and  C_2
REMARK    2  A    between atoms: C_2  and  C_3
REMARK    3  A    between atoms: C_3  and  C_5
REMARK    4  A    between atoms: C_3  and  N_69
REMARK    5  A    between atoms: N_9  and  C_10
REMARK    6  A    between atoms: C_10  and  C_11
REMARK    7  A    between atoms: C_16  and  C_17
REMARK    8  A    between atoms: C_16  and  N_69
REMARK    9  A    between atoms: C_21  and  C_30
REMARK   10  A    between atoms: C_23  and  C_29
REMARK   11  A    between atoms: C_31  and  N_69
REMARK                            x       y       z     vdW  Elec       q    Type
REMARK                         _______ _______ _______ _____ _____    ______ ____
ROOT
ATOM      1  N   UNL     1       1.056   3.825   1.339  0.00  0.00    +0.391 N 
ATOM      2  H   UNL     1       1.142   3.545   2.323  0.00  0.00    -0.080 HD
ENDROOT
BRANCH   1   3
ATOM      3  C   UNL     1      -0.366   3.761   0.944  0.00  0.00    -0.067 C 
ATOM      4  C   UNL     1      -0.920   2.383   1.309  0.00  0.00    -0.015 C 
ATOM      5  C   UNL     1      -2.399   2.309   0.926  0.00  0.00    -0.002 C 
ATOM      6  C   UNL     1      -2.548   2.535  -0.580  0.00  0.00    -0.000 C 
ATOM      7  C   UNL     1      -1.994   3.914  -0.946  0.00  0.00    -0.002 C 
ATOM      8  C   UNL     1      -0.515   3.988  -0.562  0.00  0.00    -0.015 C 
ENDBRANCH   1   3
BRANCH   1   9
ATOM      9  C   UNL     1       1.854   2.899   0.506  0.00  0.00    +0.003 C 
BRANCH   9  10
ATOM     10  C   UNL     1       2.104   3.497  -0.854  0.00  0.00    +0.139 A 
ATOM     11  N   UNL     1       2.572   4.694  -1.109  0.00  0.00    -0.115 NA
ATOM     12  N   UNL     1       2.643   4.830  -2.388  0.00  0.00    -0.023 NA
ATOM     13  N   UNL     1       2.232   3.751  -2.956  0.00  0.00    -0.044 NA
ATOM     14  N   UNL     1       1.891   2.905  -2.044  0.00  0.00    -0.223 N 
BRANCH  14  15
ATOM     15  C   UNL     1       1.370   1.553  -2.262  0.00  0.00    +0.221 C 
BRANCH  15  16
ATOM     16  C   UNL     1       2.516   0.576  -2.318  0.00  0.00    +0.126 A 
ATOM     17  C   UNL     1       3.046  -0.076  -1.267  0.00  0.00    +0.046 A 
ATOM     18  C   UNL     1       4.090  -0.885  -1.772  0.00  0.00    +0.041 A 
ATOM     19  C   UNL     1       4.141  -0.673  -3.099  0.00  0.00    +0.195 A 
ATOM     20  O   UNL     1       3.185   0.213  -3.424  0.00  0.00    -0.466 OA
ENDBRANCH  15  16
ENDBRANCH  14  15
ENDBRANCH   9  10
BRANCH   9  22
ATOM     21  C   UNL     1       2.942   1.927   2.534  0.00  0.00    +0.002 C 
ATOM     22  C   UNL     1       3.191   2.641   1.204  0.00  0.00    -0.011 C 
ENDBRANCH   9  22
ENDBRANCH   1   9
BRANCH   1  23
ATOM     23  C   UNL     1       1.562   5.205   1.186  0.00  0.00    -0.036 C 
BRANCH  23  24
ATOM     24  C   UNL     1       1.020   6.046   2.313  0.00  0.00    +0.001 A 
ATOM     25  C   UNL     1       1.755   6.222   3.439  0.00  0.00    +0.017 A 
ATOM     26  C   UNL     1       1.200   7.045   4.515  0.00  0.00    -0.001 A 
ATOM     27  C   UNL     1       1.911   7.262   5.700  0.00  0.00    +0.013 A 
ATOM     28  C   UNL     1       1.366   8.036   6.685  0.00  0.00    -0.050 A 
ATOM     29  C   UNL     1       0.111   8.608   6.521  0.00  0.00    +0.008 A 
ATOM     30  C   UNL     1      -0.607   8.407   5.362  0.00  0.00    -0.026 A 
ATOM     31  C   UNL     1      -0.072   7.623   4.345  0.00  0.00    +0.052 A 
ATOM     32  N   UNL     1      -0.768   7.406   3.175  0.00  0.00    -0.322 N 
ATOM     33  H   UNL     1      -1.645   7.805   3.060  0.00  0.00    +0.169 HD
ATOM     34  C   UNL     1      -0.248   6.653   2.190  0.00  0.00    +0.251 A 
ATOM     35  O   UNL     1      -0.890   6.486   1.168  0.00  0.00    -0.268 OA
ATOM     36  C   UNL     1      -1.967   9.034   5.197  0.00  0.00    +0.046 C 
ATOM     37  C   UNL     1       2.132   8.270   7.961  0.00  0.00    +0.044 C 
ENDBRANCH  23  24
ENDBRANCH   1  23
TORSDOF 8
