REMARK  Name = ZINC03285392
REMARK  12 active torsions:
REMARK  status: ('A' for Active; 'I' for Inactive)
REMARK    1  A    between atoms: C_1  and  C_2
REMARK    2  A    between atoms: C_2  and  O_3
REMARK    3  A    between atoms: O_3  and  C_4
REMARK    4  A    between atoms: C_4  and  C_6
REMARK    5  A    between atoms: C_7  and  C_38
REMARK    6  A    between atoms: N_8  and  C_31
REMARK    7  A    between atoms: C_12  and  O_15
REMARK    8  A    between atoms: O_15  and  C_16
REMARK    9  A    between atoms: C_16  and  C_17
REMARK   10  A    between atoms: N_19  and  C_20
REMARK   11  A    between atoms: C_21  and  C_29
REMARK   12  A    between atoms: C_31  and  C_32
REMARK                            x       y       z     vdW  Elec       q    Type
REMARK                         _______ _______ _______ _____ _____    ______ ____
ROOT
ATOM      1  C   UNL     1      -3.905   1.006   3.378  0.00  0.00    +0.087 A 
ATOM      2  C   UNL     1      -3.714   1.541   2.137  0.00  0.00    +0.031 A 
ATOM      3  N   UNL     1      -2.927   0.722   1.401  0.00  0.00    -0.339 N 
ATOM      4  C   UNL     1      -2.573  -0.394   2.135  0.00  0.00    +0.051 A 
ATOM      5  C   UNL     1      -3.161  -0.267   3.403  0.00  0.00    +0.018 A 
ATOM      6  C   UNL     1      -2.969  -1.256   4.365  0.00  0.00    +0.056 A 
ATOM      7  C   UNL     1      -2.204  -2.366   4.060  0.00  0.00    +0.122 A 
ATOM      8  C   UNL     1      -1.619  -2.489   2.804  0.00  0.00    +0.048 A 
ATOM      9  C   UNL     1      -1.800  -1.514   1.848  0.00  0.00    +0.030 A 
ATOM     10  C   UNL     1      -4.293   2.848   1.658  0.00  0.00    +0.064 C 
ENDROOT
BRANCH   1  11
ATOM     11  C   UNL     1      -4.694   1.584   4.472  0.00  0.00    +0.341 C 
ATOM     12  O   UNL     1      -5.876   1.317   4.575  0.00  0.00    -0.245 OA
BRANCH  11  13
ATOM     13  O   UNL     1      -4.109   2.410   5.362  0.00  0.00    -0.461 OA
BRANCH  13  15
ATOM     14  C   UNL     1      -4.118   3.853   7.324  0.00  0.00    +0.048 C 
ATOM     15  C   UNL     1      -4.951   2.944   6.418  0.00  0.00    +0.229 C 
ENDBRANCH  13  15
ENDBRANCH  11  13
ENDBRANCH   1  11
BRANCH   7  16
ATOM     16  O   UNL     1      -2.017  -3.337   4.993  0.00  0.00    -0.483 OA
BRANCH  16  17
ATOM     17  C   UNL     1      -1.209  -4.454   4.615  0.00  0.00    +0.324 C 
BRANCH  17  18
ATOM     18  C   UNL     1      -1.115  -5.420   5.768  0.00  0.00    +0.255 C 
ATOM     19  O   UNL     1      -1.684  -5.176   6.811  0.00  0.00    -0.272 OA
ATOM     20  N   UNL     1      -0.399  -6.554   5.640  0.00  0.00    -0.276 N 
ATOM     21  H   UNL     1       0.057  -6.749   4.805  0.00  0.00    +0.155 HD
BRANCH  20  22
ATOM     22  C   UNL     1      -0.312  -7.444   6.702  0.00  0.00    +0.090 A 
ATOM     23  C   UNL     1       0.365  -8.652   6.760  0.00  0.00    +0.084 A 
ATOM     24  C   UNL     1       0.301  -9.400   8.004  0.00  0.00    -0.018 A 
ATOM     25  C   UNL     1      -0.435  -8.827   8.981  0.00  0.00    -0.004 A 
ATOM     26  S   UNL     1      -1.030  -7.317   8.274  0.00  0.00    -0.077 S 
ATOM     27  C   UNL     1      -0.685  -9.364  10.357  0.00  0.00    +0.043 C 
ATOM     28  C   UNL     1      -0.289 -10.848  10.375  0.00  0.00    +0.005 C 
ATOM     29  C   UNL     1       1.091 -10.998   9.730  0.00  0.00    +0.005 C 
ATOM     30  C   UNL     1       0.994 -10.738   8.226  0.00  0.00    +0.037 C 
BRANCH  23  31
ATOM     31  C   UNL     1       1.104  -9.144   5.636  0.00  0.00    +0.102 C 
ATOM     32  N   UNL     1       1.690  -9.534   4.745  0.00  0.00    -0.191 NA
ENDBRANCH  23  31
ENDBRANCH  20  22
ENDBRANCH  17  18
ENDBRANCH  16  17
ENDBRANCH   7  16
BRANCH   3  33
ATOM     33  C   UNL     1      -2.514   0.980   0.019  0.00  0.00    +0.157 C 
BRANCH  33  34
ATOM     34  C   UNL     1      -1.219   1.751   0.017  0.00  0.00    -0.028 A 
ATOM     35  C   UNL     1      -0.013   1.076   0.008  0.00  0.00    +0.005 A 
ATOM     36  C   UNL     1       1.175   1.783   0.000  0.00  0.00    +0.000 A 
ATOM     37  C   UNL     1       1.156   3.165   0.008  0.00  0.00    +0.000 A 
ATOM     38  C   UNL     1      -0.050   3.840   0.022  0.00  0.00    +0.000 A 
ATOM     39  C   UNL     1      -1.238   3.133   0.030  0.00  0.00    +0.005 A 
ENDBRANCH  33  34
ENDBRANCH   3  33
TORSDOF 10
