REMARK  Name = ZINC03167775
REMARK  12 active torsions:
REMARK  status: ('A' for Active; 'I' for Inactive)
REMARK    1  A    between atoms: C_1  and  C_2
REMARK    2  A    between atoms: C_6  and  C_22
REMARK    3  A    between atoms: C_7  and  O_8
REMARK    4  A    between atoms: O_8  and  S_9
REMARK    5  A    between atoms: S_9  and  C_12
REMARK    6  A    between atoms: C_15  and  C_18
REMARK    7  A    between atoms: C_18  and  C_19
REMARK    8  A    between atoms: C_18  and  C_20
REMARK    9  A    between atoms: C_18  and  C_21
REMARK   10  A    between atoms: N_23  and  N_24
REMARK   11  A    between atoms: C_29  and  C_31
REMARK   12  A    between atoms: C_29  and  C_32
REMARK                            x       y       z     vdW  Elec       q    Type
REMARK                         _______ _______ _______ _____ _____    ______ ____
ROOT
ATOM      1  C   UNL     1      -0.282   0.978  -0.146  0.00  0.00    +0.047 C 
ATOM      2  C   UNL     1      -0.382  -0.517   0.017  0.00  0.00    -0.005 A 
ATOM      3  C   UNL     1      -0.720  -1.308  -1.066  0.00  0.00    +0.007 A 
ATOM      4  C   UNL     1      -0.814  -2.682  -0.928  0.00  0.00    +0.001 A 
ATOM      5  C   UNL     1      -0.572  -3.276   0.293  0.00  0.00    +0.013 A 
ATOM      6  C   UNL     1      -0.229  -2.488   1.395  0.00  0.00    +0.040 A 
ATOM      7  C   UNL     1      -0.130  -1.096   1.248  0.00  0.00    +0.168 A 
ENDROOT
BRANCH   6   8
ATOM      8  C   UNL     1       0.031  -3.115   2.700  0.00  0.00    +0.146 C 
ATOM      9  N   UNL     1       0.247  -2.370   3.751  0.00  0.00    -0.155 NA
BRANCH   9  10
ATOM     10  N   UNL     1       0.580  -2.916   4.871  0.00  0.00    -0.127 NA
ATOM     11  C   UNL     1       0.697  -2.177   5.954  0.00  0.00    +0.183 C 
ATOM     12  N   UNL     1       0.381  -0.844   6.114  0.00  0.00    -0.262 N 
ATOM     13  C   UNL     1       0.544  -0.208   7.262  0.00  0.00    +0.235 C 
ATOM     14  O   UNL     1       0.263   0.964   7.395  0.00  0.00    -0.274 OA
ATOM     15  C   UNL     1       1.105  -1.040   8.404  0.00  0.00    +0.094 C 
ATOM     16  S   UNL     1       1.295  -2.667   7.565  0.00  0.00    -0.073 S 
ATOM     17  C   UNL     1       2.454  -0.493   8.877  0.00  0.00    +0.032 C 
ATOM     18  C   UNL     1       0.111  -1.132   9.563  0.00  0.00    +0.032 C 
ATOM     19  H   UNL     1       0.025  -0.354   5.356  0.00  0.00    +0.157 HD
ENDBRANCH   9  10
ENDBRANCH   6   8
BRANCH   7  20
ATOM     20  O   UNL     1       0.207  -0.320   2.311  0.00  0.00    -0.341 OA
BRANCH  20  21
ATOM     21  S   UNL     1       1.708  -0.177   2.522  0.00  0.00    +0.151 S 
ATOM     22  O   UNL     1       1.881   0.471   3.775  0.00  0.00    -0.131 OA
ATOM     23  O   UNL     1       2.281  -1.446   2.235  0.00  0.00    -0.131 OA
BRANCH  21  24
ATOM     24  C   UNL     1       2.303   0.935   1.292  0.00  0.00    +0.128 A 
ATOM     25  C   UNL     1       2.848   0.442   0.121  0.00  0.00    +0.031 A 
ATOM     26  C   UNL     1       3.315   1.314  -0.845  0.00  0.00    +0.006 A 
ATOM     27  C   UNL     1       3.238   2.679  -0.638  0.00  0.00    -0.042 A 
ATOM     28  C   UNL     1       2.692   3.172   0.532  0.00  0.00    +0.006 A 
ATOM     29  C   UNL     1       2.221   2.299   1.496  0.00  0.00    +0.031 A 
BRANCH  27  30
ATOM     30  C   UNL     1       3.748   3.630  -1.690  0.00  0.00    -0.013 C 
ATOM     31  C   UNL     1       2.979   3.409  -2.994  0.00  0.00    +0.015 C 
ATOM     32  C   UNL     1       3.546   5.071  -1.217  0.00  0.00    +0.015 C 
ATOM     33  C   UNL     1       5.238   3.376  -1.928  0.00  0.00    +0.015 C 
ENDBRANCH  27  30
ENDBRANCH  21  24
ENDBRANCH  20  21
ENDBRANCH   7  20
TORSDOF 6
