REMARK  Name = ZINC35075092
REMARK  9 active torsions:
REMARK  status: ('A' for Active; 'I' for Inactive)
REMARK    1  A    between atoms: C_1  and  C_2
REMARK    2  A    between atoms: C_8  and  N_10
REMARK    3  A    between atoms: N_10  and  C_11
REMARK    4  A    between atoms: C_11  and  C_12
REMARK    5  A    between atoms: C_12  and  C_14
REMARK    6  A    between atoms: C_12  and  O_40
REMARK    7  A    between atoms: C_14  and  N_15
REMARK    8  A    between atoms: C_26  and  C_34
REMARK    9  A    between atoms: C_27  and  C_28
REMARK                            x       y       z     vdW  Elec       q    Type
REMARK                         _______ _______ _______ _____ _____    ______ ____
ROOT
ATOM      1  N   UNL     1       6.261   0.391   3.701  0.00  0.00    -0.336 N 
ATOM      2  C   UNL     1       7.249  -0.296   3.041  0.00  0.00    +0.058 A 
ATOM      3  C   UNL     1       7.230  -1.421   2.184  0.00  0.00    +0.006 A 
ATOM      4  C   UNL     1       6.026  -2.063   1.859  0.00  0.00    +0.010 A 
ATOM      5  C   UNL     1       6.040  -3.145   1.031  0.00  0.00    +0.001 A 
ATOM      6  C   UNL     1       7.236  -3.623   0.501  0.00  0.00    +0.001 A 
ATOM      7  C   UNL     1       8.423  -3.023   0.796  0.00  0.00    +0.008 A 
ATOM      8  C   UNL     1       8.446  -1.905   1.646  0.00  0.00    -0.016 A 
ATOM      9  C   UNL     1       9.661  -1.265   1.967  0.00  0.00    +0.009 A 
ATOM     10  C   UNL     1       9.669  -0.187   2.788  0.00  0.00    +0.011 A 
ATOM     11  C   UNL     1       8.473   0.311   3.335  0.00  0.00    +0.009 A 
ATOM     12  C   UNL     1       8.170   1.434   4.234  0.00  0.00    +0.015 A 
ATOM     13  C   UNL     1       6.801   1.431   4.413  0.00  0.00    +0.058 A 
ENDROOT
BRANCH  13  14
ATOM     14  C   UNL     1       6.043   2.390   5.241  0.00  0.00    -0.001 A 
ATOM     15  C   UNL     1       5.200   1.929   6.254  0.00  0.00    +0.010 A 
ATOM     16  C   UNL     1       4.494   2.831   7.024  0.00  0.00    +0.001 A 
ATOM     17  C   UNL     1       4.621   4.189   6.794  0.00  0.00    +0.000 A 
ATOM     18  C   UNL     1       5.455   4.653   5.792  0.00  0.00    +0.001 A 
ATOM     19  C   UNL     1       6.170   3.763   5.018  0.00  0.00    +0.010 A 
ENDBRANCH  13  14
BRANCH  12  20
ATOM     20  C   UNL     1       9.140   2.383   4.824  0.00  0.00    -0.015 A 
ATOM     21  C   UNL     1       9.356   2.397   6.203  0.00  0.00    +0.008 A 
ATOM     22  C   UNL     1      10.262   3.284   6.747  0.00  0.00    +0.001 A 
ATOM     23  C   UNL     1      10.955   4.158   5.930  0.00  0.00    +0.000 A 
ATOM     24  C   UNL     1      10.746   4.150   4.562  0.00  0.00    +0.001 A 
ATOM     25  C   UNL     1       9.847   3.264   4.005  0.00  0.00    +0.008 A 
ENDBRANCH  12  20
BRANCH   1  26
ATOM     26  C   UNL     1       4.833   0.064   3.648  0.00  0.00    +0.151 C 
BRANCH  26  27
ATOM     27  C   UNL     1       4.176   0.834   2.501  0.00  0.00    +0.117 C 
BRANCH  27  28
ATOM     28  O   UNL     1       4.723   0.393   1.256  0.00  0.00    -0.392 OA
ATOM     29  H   UNL     1       4.591  -0.549   1.081  0.00  0.00    +0.210 HD
ENDBRANCH  27  28
BRANCH  27  30
ATOM     30  C   UNL     1       2.668   0.580   2.514  0.00  0.00    -0.049 C 
BRANCH  30  31
ATOM     31  N   UNL     1       2.037   1.319   1.413  0.00  0.00    +0.383 N 
ATOM     32  H   UNL     1       2.422   1.007   0.534  0.00  0.00    -0.085 HD
ATOM     33  H   UNL     1       2.212   2.306   1.526  0.00  0.00    -0.085 HD
BRANCH  31  40
ATOM     34  C   UNL     1       0.186   3.417   0.654  0.00  0.00    +0.006 C 
ATOM     35  C   UNL     1      -0.085   1.940   0.358  0.00  0.00    -0.028 C 
ATOM     36  C   UNL     1      -1.593   1.686   0.371  0.00  0.00    +0.002 C 
ATOM     37  C   UNL     1      -1.864   0.209   0.076  0.00  0.00    +0.000 C 
ATOM     38  C   UNL     1      -1.191  -0.656   1.143  0.00  0.00    -0.002 C 
ATOM     39  C   UNL     1       0.317  -0.402   1.130  0.00  0.00    -0.016 C 
ATOM     40  C   UNL     1       0.588   1.074   1.425  0.00  0.00    -0.069 C 
ENDBRANCH  31  40
ENDBRANCH  30  31
ENDBRANCH  27  30
ENDBRANCH  26  27
ENDBRANCH   1  26
TORSDOF 8
