REMARK  Name = ZINC02916734
REMARK  6 active torsions:
REMARK  status: ('A' for Active; 'I' for Inactive)
REMARK    1  A    between atoms: C_1  and  C_2
REMARK    2  A    between atoms: C_5  and  C_8
REMARK    3  A    between atoms: C_19  and  C_21
REMARK    4  A    between atoms: C_24  and  C_27
REMARK    5  A    between atoms: C_27  and  O_29
REMARK    6  A    between atoms: O_29  and  C_30
REMARK                            x       y       z     vdW  Elec       q    Type
REMARK                         _______ _______ _______ _____ _____    ______ ____
ROOT
ATOM      1  C   UNL     1       0.059  -4.275  -0.021  0.00  0.00    +0.163 C 
ATOM      2  C   UNL     1      -1.360  -4.766   0.156  0.00  0.00    +0.028 C 
ATOM      3  C   UNL     1      -1.627  -5.565   1.210  0.00  0.00    +0.083 C 
ATOM      4  C   UNL     1      -3.026  -6.033   1.379  0.00  0.00    +0.044 A 
ATOM      5  C   UNL     1      -3.340  -7.091   2.221  0.00  0.00    +0.033 A 
ATOM      6  C   UNL     1      -4.656  -7.495   2.347  0.00  0.00    +0.042 A 
ATOM      7  C   UNL     1      -5.654  -6.849   1.637  0.00  0.00    +0.023 A 
ATOM      8  C   UNL     1      -5.348  -5.793   0.798  0.00  0.00    +0.048 A 
ATOM      9  C   UNL     1      -4.035  -5.378   0.663  0.00  0.00    +0.131 A 
ATOM     10  O   UNL     1      -3.709  -4.340  -0.148  0.00  0.00    -0.479 OA
ATOM     11  C   UNL     1      -2.444  -4.389  -0.811  0.00  0.00    +0.234 C 
ATOM     12 CL   UNL     1      -5.059  -8.817   3.398  0.00  0.00    -0.084 Cl
ATOM     13  N   UNL     1      -0.655  -5.927   2.083  0.00  0.00    -0.216 NA
ATOM     14  C   UNL     1       0.598  -5.542   1.994  0.00  0.00    +0.209 C 
ATOM     15  N   UNL     1       1.026  -4.727   0.990  0.00  0.00    -0.182 N 
ATOM     16  N   UNL     1       2.390  -4.503   1.182  0.00  0.00    -0.169 NA
ATOM     17  C   UNL     1       2.765  -5.146   2.241  0.00  0.00    +0.208 C 
ATOM     18  N   UNL     1       1.695  -5.804   2.773  0.00  0.00    -0.275 N 
ATOM     19  H   UNL     1       1.708  -6.359   3.568  0.00  0.00    +0.156 HD
ENDROOT
BRANCH   1  24
ATOM     20  C   UNL     1      -0.018   1.503   0.010  0.00  0.00    +0.044 C 
ATOM     21  C   UNL     1       0.002  -0.004   0.002  0.00  0.00    -0.050 A 
ATOM     22  C   UNL     1       0.006  -0.689  -1.199  0.00  0.00    +0.004 A 
ATOM     23  C   UNL     1       0.025  -2.071  -1.206  0.00  0.00    +0.006 A 
ATOM     24  C   UNL     1       0.040  -2.768  -0.013  0.00  0.00    -0.021 A 
ATOM     25  C   UNL     1       0.037  -2.084   1.188  0.00  0.00    +0.006 A 
ATOM     26  C   UNL     1       0.023  -0.702   1.195  0.00  0.00    +0.004 A 
ENDBRANCH   1  24
BRANCH  11  27
ATOM     27  C   UNL     1      -2.501  -5.411  -1.918  0.00  0.00    -0.003 A 
ATOM     28  C   UNL     1      -3.240  -6.568  -1.749  0.00  0.00    +0.008 A 
ATOM     29  C   UNL     1      -3.297  -7.507  -2.758  0.00  0.00    +0.015 A 
ATOM     30  C   UNL     1      -2.607  -7.287  -3.952  0.00  0.00    +0.059 A 
ATOM     31  C   UNL     1      -1.863  -6.117  -4.116  0.00  0.00    +0.015 A 
ATOM     32  C   UNL     1      -1.819  -5.184  -3.100  0.00  0.00    +0.008 A 
BRANCH  30  33
ATOM     33  C   UNL     1      -2.663  -8.288  -5.037  0.00  0.00    +0.339 C 
ATOM     34  O   UNL     1      -3.310  -9.306  -4.891  0.00  0.00    -0.245 OA
BRANCH  33  35
ATOM     35  O   UNL     1      -1.996  -8.073  -6.187  0.00  0.00    -0.464 OA
ATOM     36  C   UNL     1      -2.094  -9.083  -7.193  0.00  0.00    +0.280 C 
ENDBRANCH  33  35
ENDBRANCH  30  33
ENDBRANCH  11  27
TORSDOF 4
