REMARK  Name = ZINC63786750
REMARK  6 active torsions:
REMARK  status: ('A' for Active; 'I' for Inactive)
REMARK    1  A    between atoms: C_7  and  C_10
REMARK    2  A    between atoms: C_10  and  C_11
REMARK    3  A    between atoms: C_11  and  C_13
REMARK    4  A    between atoms: C_11  and  N_28
REMARK    5  A    between atoms: N_18  and  C_21
REMARK    6  A    between atoms: C_29  and  C_31
REMARK                            x       y       z     vdW  Elec       q    Type
REMARK                         _______ _______ _______ _____ _____    ______ ____
ROOT
ATOM      1  C   UNL     1       0.457  -3.653  -1.462  0.00  0.00    +0.163 C 
ENDROOT
BRANCH   1   2
ATOM      2  C   UNL     1      -0.385  -4.904  -1.452  0.00  0.00    +0.236 C 
ATOM      3  O   UNL     1      -1.574  -4.836  -1.679  0.00  0.00    -0.274 OA
ATOM      4  N   UNL     1       0.185  -6.097  -1.193  0.00  0.00    -0.297 N 
ATOM      5  C   UNL     1       1.624  -6.194  -0.910  0.00  0.00    +0.126 C 
ATOM      6  C   UNL     1       1.812  -6.896   0.440  0.00  0.00    +0.124 C 
ATOM      7  N   UNL     1       1.006  -8.125   0.447  0.00  0.00    -0.325 N 
ATOM      8  C   UNL     1      -0.434  -8.028   0.164  0.00  0.00    +0.124 C 
ATOM      9  C   UNL     1      -0.623  -7.325  -1.180  0.00  0.00    +0.126 C 
BRANCH   7  10
ATOM     10  C   UNL     1       1.596  -9.363   0.716  0.00  0.00    +0.065 A 
ATOM     11  C   UNL     1       1.666  -9.831   2.021  0.00  0.00    +0.026 A 
ATOM     12  C   UNL     1       2.250 -11.055   2.285  0.00  0.00    +0.002 A 
ATOM     13  C   UNL     1       2.766 -11.815   1.251  0.00  0.00    +0.003 A 
ATOM     14  C   UNL     1       2.699 -11.353  -0.051  0.00  0.00    +0.040 A 
ATOM     15  C   UNL     1       2.111 -10.131  -0.323  0.00  0.00    +0.144 A 
ATOM     16  F   UNL     1       2.040  -9.682  -1.595  0.00  0.00    -0.204 F 
ENDBRANCH   7  10
ENDBRANCH   1   2
BRANCH   1  17
ATOM     17  N   UNL     1      -0.238  -2.603  -2.210  0.00  0.00    -0.299 N 
ATOM     18  C   UNL     1      -1.451  -2.176  -1.805  0.00  0.00    +0.251 C 
ATOM     19  O   UNL     1      -1.969  -2.664  -0.818  0.00  0.00    -0.270 OA
ATOM     20  H   UNL     1       0.175  -2.214  -2.997  0.00  0.00    +0.150 HD
BRANCH  18  21
ATOM     21  C   UNL     1      -2.146  -1.125  -2.554  0.00  0.00    +0.074 A 
ATOM     22  C   UNL     1      -3.381  -0.547  -2.306  0.00  0.00    +0.021 A 
ATOM     23  C   UNL     1      -3.774   0.426  -3.193  0.00  0.00    +0.008 A 
ATOM     24  C   UNL     1      -2.953   0.749  -4.223  0.00  0.00    +0.046 A 
ATOM     25  S   UNL     1      -1.619  -0.252  -4.016  0.00  0.00    -0.092 S 
ENDBRANCH  18  21
ENDBRANCH   1  17
BRANCH   1  26
ATOM     26  C   UNL     1       0.691  -3.186  -0.024  0.00  0.00    +0.065 C 
BRANCH  26  33
ATOM     27  C   UNL     1      -0.016   1.348   0.009  0.00  0.00    +0.001 A 
ATOM     28  C   UNL     1       1.166   2.101   0.002  0.00  0.00    +0.002 A 
ATOM     29  C   UNL     1       2.391   1.535  -0.013  0.00  0.00    +0.026 A 
ATOM     30  C   UNL     1       2.529   0.120  -0.022  0.00  0.00    +0.043 A 
ATOM     31  N   UNL     1       3.587  -0.654  -0.037  0.00  0.00    -0.380 N 
ATOM     32  C   UNL     1       3.143  -2.053  -0.041  0.00  0.00    +0.144 C 
ATOM     33  C   UNL     1       1.631  -2.008  -0.025  0.00  0.00    -0.039 C 
ATOM     34  C   UNL     1       1.295  -0.698  -0.014  0.00  0.00    -0.001 A 
ATOM     35  C   UNL     1       0.002  -0.004   0.002  0.00  0.00    +0.010 A 
ATOM     36  H   UNL     1       4.509  -0.353  -0.045  0.00  0.00    +0.160 HD
ENDBRANCH  26  33
ENDBRANCH   1  26
TORSDOF 6
