REMARK  Name = ZINC38708292
REMARK  13 active torsions:
REMARK  status: ('A' for Active; 'I' for Inactive)
REMARK    1  A    between atoms: C_1  and  C_2
REMARK    2  A    between atoms: C_2  and  C_3
REMARK    3  A    between atoms: C_2  and  C_4
REMARK    4  A    between atoms: C_4  and  C_5
REMARK    5  A    between atoms: C_5  and  N_6
REMARK    6  A    between atoms: C_9  and  N_20
REMARK    7  A    between atoms: C_15  and  C_18
REMARK    8  A    between atoms: C_15  and  C_19
REMARK    9  A    between atoms: N_20  and  S_21
REMARK   10  A    between atoms: S_21  and  C_24
REMARK   11  A    between atoms: C_27  and  C_30
REMARK   12  A    between atoms: C_30  and  C_31
REMARK   13  A    between atoms: C_30  and  C_32
REMARK                            x       y       z     vdW  Elec       q    Type
REMARK                         _______ _______ _______ _____ _____    ______ ____
ROOT
ATOM      1  N   UNL     1      -2.812  -1.213  -1.886  0.00  0.00    -0.268 N 
ATOM      2  C   UNL     1      -3.366  -2.444  -2.261  0.00  0.00    +0.080 A 
ATOM      3  C   UNL     1      -2.777  -3.632  -1.862  0.00  0.00    +0.051 A 
ATOM      4  C   UNL     1      -3.337  -4.843  -2.247  0.00  0.00    +0.050 A 
ATOM      5  C   UNL     1      -4.484  -4.860  -3.031  0.00  0.00    +0.028 A 
ATOM      6  C   UNL     1      -5.072  -3.674  -3.428  0.00  0.00    +0.049 A 
ATOM      7  C   UNL     1      -4.519  -2.464  -3.044  0.00  0.00    +0.142 A 
ATOM      8  O   UNL     1      -5.098  -1.292  -3.420  0.00  0.00    -0.489 OA
ATOM      9  C   UNL     1      -5.833  -0.581  -2.427  0.00  0.00    +0.244 C 
ATOM     10  C   UNL     1      -5.066  -0.562  -1.107  0.00  0.00    +0.076 C 
ATOM     11  C   UNL     1      -3.611  -0.262  -1.353  0.00  0.00    +0.229 C 
ATOM     12  O   UNL     1      -3.159   0.830  -1.078  0.00  0.00    -0.275 OA
ATOM     13  C   UNL     1      -5.658   0.512  -0.192  0.00  0.00    +0.024 C 
ATOM     14  C   UNL     1      -5.191  -1.928  -0.428  0.00  0.00    +0.024 C 
ENDROOT
BRANCH   4  15
ATOM     15  N   UNL     1      -2.747  -6.046  -1.846  0.00  0.00    -0.216 N 
ATOM     16  H   UNL     1      -1.787  -6.166  -1.925  0.00  0.00    +0.174 HD
BRANCH  15  17
ATOM     17  S   UNL     1      -3.685  -7.266  -1.235  0.00  0.00    +0.072 S 
ATOM     18  O   UNL     1      -4.727  -7.487  -2.176  0.00  0.00    -0.150 OA
ATOM     19  O   UNL     1      -2.797  -8.297  -0.827  0.00  0.00    -0.150 OA
BRANCH  17  20
ATOM     20  C   UNL     1      -4.450  -6.653   0.229  0.00  0.00    +0.109 A 
ATOM     21  C   UNL     1      -3.860  -6.870   1.460  0.00  0.00    +0.029 A 
ATOM     22  C   UNL     1      -4.460  -6.388   2.608  0.00  0.00    +0.006 A 
ATOM     23  C   UNL     1      -5.649  -5.689   2.526  0.00  0.00    -0.045 A 
ATOM     24  C   UNL     1      -6.239  -5.471   1.295  0.00  0.00    +0.006 A 
ATOM     25  C   UNL     1      -5.637  -5.949   0.146  0.00  0.00    +0.029 A 
BRANCH  23  26
ATOM     26  C   UNL     1      -6.304  -5.165   3.778  0.00  0.00    +0.013 C 
ATOM     27  C   UNL     1      -6.425  -3.642   3.691  0.00  0.00    +0.012 C 
ATOM     28  C   UNL     1      -7.698  -5.780   3.921  0.00  0.00    +0.012 C 
ENDBRANCH  23  26
ENDBRANCH  17  20
ENDBRANCH  15  17
ENDBRANCH   4  15
BRANCH   1  29
ATOM     29  C   UNL     1      -1.379  -0.961  -2.063  0.00  0.00    +0.114 C 
BRANCH  29  30
ATOM     30  C   UNL     1      -0.625  -1.398  -0.806  0.00  0.00    +0.022 C 
BRANCH  30  32
ATOM     31  C   UNL     1       1.113   0.371  -1.106  0.00  0.00    +0.007 C 
ATOM     32  C   UNL     1       0.871  -1.135  -0.991  0.00  0.00    -0.016 C 
ATOM     33  C   UNL     1       1.638  -1.685   0.213  0.00  0.00    +0.007 C 
ENDBRANCH  30  32
ENDBRANCH  29  30
ENDBRANCH   1  29
TORSDOF 7
