REMARK  Name = ZINC03169261
REMARK  8 active torsions:
REMARK  status: ('A' for Active; 'I' for Inactive)
REMARK    1  A    between atoms: C_2  and  C_3
REMARK    2  A    between atoms: C_3  and  N_4
REMARK    3  A    between atoms: C_8  and  C_29
REMARK    4  A    between atoms: C_13  and  S_14
REMARK    5  A    between atoms: S_14  and  C_15
REMARK    6  A    between atoms: C_15  and  C_16
REMARK    7  A    between atoms: C_16  and  C_17
REMARK    8  A    between atoms: N_19  and  C_20
REMARK                            x       y       z     vdW  Elec       q    Type
REMARK                         _______ _______ _______ _____ _____    ______ ____
ROOT
ATOM      1  N   UNL     1       9.524  -5.471   6.300  0.00  0.00    -0.283 N 
ATOM      2  C   UNL     1       9.516  -6.727   6.781  0.00  0.00    +0.264 A 
ATOM      3  O   UNL     1      10.467  -7.151   7.415  0.00  0.00    -0.267 OA
ATOM      4  C   UNL     1       8.381  -7.560   6.535  0.00  0.00    +0.080 A 
ATOM      5  C   UNL     1       8.146  -8.942   6.944  0.00  0.00    +0.004 A 
ATOM      6  C   UNL     1       6.982  -9.536   6.593  0.00  0.00    +0.056 A 
ATOM      7  S   UNL     1       6.126  -8.264   5.683  0.00  0.00    -0.076 S 
ATOM      8  C   UNL     1       7.340  -6.975   5.795  0.00  0.00    +0.117 A 
ATOM      9  N   UNL     1       7.407  -5.724   5.352  0.00  0.00    -0.216 NA
ATOM     10  C   UNL     1       8.466  -4.978   5.593  0.00  0.00    +0.173 A 
ENDROOT
BRANCH   5  11
ATOM     11  C   UNL     1       9.163  -9.679   7.731  0.00  0.00    -0.016 A 
ATOM     12  C   UNL     1      10.491  -9.706   7.307  0.00  0.00    +0.011 A 
ATOM     13  C   UNL     1      11.435 -10.390   8.045  0.00  0.00    +0.039 A 
ATOM     14  C   UNL     1      11.063 -11.059   9.200  0.00  0.00    +0.123 A 
ATOM     15  C   UNL     1       9.744 -11.039   9.623  0.00  0.00    +0.039 A 
ATOM     16  C   UNL     1       8.794 -10.354   8.894  0.00  0.00    +0.011 A 
ATOM     17  F   UNL     1      11.990 -11.731   9.917  0.00  0.00    -0.205 F 
ENDBRANCH   5  11
BRANCH   1  18
ATOM     18  C   UNL     1      10.687  -4.614   6.544  0.00  0.00    +0.154 C 
BRANCH  18  20
ATOM     19  C   UNL     1      11.399  -3.937   8.779  0.00  0.00    +0.005 C 
ATOM     20  C   UNL     1      10.494  -3.861   7.835  0.00  0.00    -0.013 C 
ENDBRANCH  18  20
ENDBRANCH   1  18
BRANCH  10  21
ATOM     21  S   UNL     1       8.518  -3.323   4.989  0.00  0.00    -0.087 S 
BRANCH  21  22
ATOM     22  C   UNL     1       6.912  -3.240   4.160  0.00  0.00    +0.086 C 
BRANCH  22  23
ATOM     23  C   UNL     1       6.729  -1.853   3.541  0.00  0.00    +0.107 C 
BRANCH  23  24
ATOM     24  C   UNL     1       5.391  -1.784   2.850  0.00  0.00    +0.218 C 
ATOM     25  O   UNL     1       4.656  -2.749   2.853  0.00  0.00    -0.275 OA
ATOM     26  N   UNL     1       5.011  -0.649   2.229  0.00  0.00    -0.285 N 
ATOM     27  H   UNL     1       5.628   0.096   2.160  0.00  0.00    +0.155 HD
BRANCH  26  28
ATOM     28  C   UNL     1       3.725  -0.547   1.683  0.00  0.00    +0.037 A 
ATOM     29  C   UNL     1       2.658  -1.191   2.294  0.00  0.00    +0.027 A 
ATOM     30  C   UNL     1       1.388  -1.090   1.757  0.00  0.00    +0.051 A 
ATOM     31  C   UNL     1       1.177  -0.347   0.608  0.00  0.00    +0.166 A 
ATOM     32  C   UNL     1       2.246   0.301  -0.008  0.00  0.00    +0.168 A 
ATOM     33  C   UNL     1       3.517   0.199   0.531  0.00  0.00    +0.072 A 
ATOM     34  O   UNL     1       1.781   0.959  -1.110  0.00  0.00    -0.453 OA
ATOM     35  C   UNL     1       0.355   1.044  -0.934  0.00  0.00    +0.466 C 
ATOM     36  O   UNL     1       0.043  -0.094  -0.110  0.00  0.00    -0.453 OA
ENDBRANCH  26  28
ENDBRANCH  23  24
ENDBRANCH  22  23
ENDBRANCH  21  22
ENDBRANCH  10  21
TORSDOF 8
