REMARK  Name = ZINC39869650
REMARK  5 active torsions:
REMARK  status: ('A' for Active; 'I' for Inactive)
REMARK    1  A    between atoms: C_1  and  C_2
REMARK    2  A    between atoms: C_5  and  O_23
REMARK    3  A    between atoms: C_6  and  N_8
REMARK    4  A    between atoms: C_14  and  C_15
REMARK    5  A    between atoms: C_16  and  C_17
REMARK                            x       y       z     vdW  Elec       q    Type
REMARK                         _______ _______ _______ _____ _____    ______ ____
ROOT
ATOM      1  N   UNL     1       0.051  -2.794   2.398  0.00  0.00    -0.293 N 
ATOM      2  C   UNL     1       0.151  -2.118   3.588  0.00  0.00    +0.156 C 
ATOM      3  N   UNL     1       0.147  -0.811   3.793  0.00  0.00    -0.154 NA
ATOM      4  C   UNL     1       0.251  -0.286   4.995  0.00  0.00    +0.276 C 
ATOM      5  O   UNL     1       0.245   0.923   5.172  0.00  0.00    -0.267 OA
ATOM      6  C   UNL     1       0.375  -1.235   6.119  0.00  0.00    +0.079 C 
ATOM      7  C   UNL     1       0.499  -0.992   7.469  0.00  0.00    +0.020 C 
ATOM      8  S   UNL     1       0.312  -2.789   5.235  0.00  0.00    -0.051 S 
ATOM      9  H   UNL     1      -0.018  -3.762   2.395  0.00  0.00    +0.154 HD
ENDROOT
BRANCH   1  15
ATOM     10  C   UNL     1       0.557   1.456  -0.021  0.00  0.00    +0.044 C 
ATOM     11  C   UNL     1       0.289  -0.027  -0.014  0.00  0.00    -0.048 A 
ATOM     12  C   UNL     1       0.039  -0.689  -1.202  0.00  0.00    +0.007 A 
ATOM     13  C   UNL     1      -0.208  -2.050  -1.201  0.00  0.00    +0.047 A 
ATOM     14  C   UNL     1      -0.205  -2.754  -0.008  0.00  0.00    +0.138 A 
ATOM     15  C   UNL     1       0.047  -2.088   1.189  0.00  0.00    +0.075 A 
ATOM     16  C   UNL     1       0.299  -0.723   1.180  0.00  0.00    +0.030 A 
BRANCH  14  17
ATOM     17  O   UNL     1      -0.448  -4.092  -0.006  0.00  0.00    -0.505 OA
ATOM     18  H   UNL     1       0.346  -4.636  -0.100  0.00  0.00    +0.292 HD
ENDBRANCH  14  17
ENDBRANCH   1  15
BRANCH   7  19
ATOM     19  C   UNL     1       0.520   0.327   7.946  0.00  0.00    +0.005 C 
ATOM     20  C   UNL     1       0.642   0.567   9.281  0.00  0.00    +0.046 C 
BRANCH  20  21
ATOM     21  C   UNL     1       0.663   1.897   9.761  0.00  0.00    +0.128 A 
ATOM     22  C   UNL     1       0.787   2.284  11.081  0.00  0.00    +0.049 A 
ATOM     23  C   UNL     1       0.759   3.687  11.090  0.00  0.00    +0.042 A 
ATOM     24  C   UNL     1       0.623   4.092   9.808  0.00  0.00    +0.195 A 
ATOM     25  O   UNL     1       0.572   3.015   9.011  0.00  0.00    -0.464 OA
ENDBRANCH  20  21
ENDBRANCH   7  19
TORSDOF 4
