REMARK  Name = ZINC10049815
REMARK  12 active torsions:
REMARK  status: ('A' for Active; 'I' for Inactive)
REMARK    1  A    between atoms: C_1  and  C_2
REMARK    2  A    between atoms: C_3  and  C_36
REMARK    3  A    between atoms: N_9  and  C_10
REMARK    4  A    between atoms: N_16  and  C_35
REMARK    5  A    between atoms: N_19  and  C_22
REMARK    6  A    between atoms: C_22  and  C_23
REMARK    7  A    between atoms: C_23  and  C_25
REMARK    8  A    between atoms: C_23  and  C_26
REMARK    9  A    between atoms: C_26  and  N_68
REMARK   10  A    between atoms: C_27  and  N_68
REMARK   11  A    between atoms: C_28  and  C_29
REMARK   12  A    between atoms: C_28  and  N_68
REMARK                            x       y       z     vdW  Elec       q    Type
REMARK                         _______ _______ _______ _____ _____    ______ ____
ROOT
ATOM      1  C   UNL     1       2.386   3.932  -2.209  0.00  0.00    +0.066 C 
ATOM      2  C   UNL     1       3.076   3.845  -0.873  0.00  0.00    +0.043 A 
ATOM      3  C   UNL     1       4.214   4.447  -0.542  0.00  0.00    +0.044 A 
ATOM      4  N   UNL     1       4.516   4.119   0.769  0.00  0.00    -0.274 N 
ATOM      5  C   UNL     1       5.426   4.295   1.800  0.00  0.00    +0.157 A 
ATOM      6  C   UNL     1       4.944   3.555   2.879  0.00  0.00    +0.170 A 
ATOM      7  N   UNL     1       3.809   2.978   2.492  0.00  0.00    -0.193 NA
ATOM      8  C   UNL     1       3.539   3.309   1.238  0.00  0.00    +0.223 A 
ATOM      9  N   UNL     1       2.634   3.124   0.223  0.00  0.00    -0.282 N 
ATOM     10  N   UNL     1       5.667   3.549   4.062  0.00  0.00    -0.279 N 
ATOM     11  C   UNL     1       6.813   4.250   4.154  0.00  0.00    +0.333 A 
ATOM     12  O   UNL     1       7.436   4.235   5.198  0.00  0.00    -0.246 OA
ATOM     13  N   UNL     1       7.286   4.967   3.120  0.00  0.00    -0.259 N 
ATOM     14  C   UNL     1       6.627   5.011   1.944  0.00  0.00    +0.283 A 
ATOM     15  O   UNL     1       7.068   5.665   1.015  0.00  0.00    -0.265 OA
ATOM     16  C   UNL     1       5.185   2.780   5.212  0.00  0.00    +0.155 C 
ATOM     17  C   UNL     1       5.036   5.334  -1.441  0.00  0.00    +0.066 C 
ENDROOT
BRANCH   9  18
ATOM     18  C   UNL     1       1.470   2.349   0.286  0.00  0.00    +0.050 A 
ATOM     19  C   UNL     1       1.558   0.973   0.452  0.00  0.00    +0.026 A 
ATOM     20  C   UNL     1       0.407   0.212   0.514  0.00  0.00    +0.002 A 
ATOM     21  C   UNL     1      -0.831   0.817   0.404  0.00  0.00    +0.000 A 
ATOM     22  C   UNL     1      -0.922   2.188   0.244  0.00  0.00    +0.002 A 
ATOM     23  C   UNL     1       0.224   2.955   0.182  0.00  0.00    +0.026 A 
ENDBRANCH   9  18
BRANCH  13  24
ATOM     24  C   UNL     1       8.538   5.713   3.272  0.00  0.00    +0.131 C 
BRANCH  24  25
ATOM     25  C   UNL     1       8.233   7.122   3.783  0.00  0.00    -0.011 C 
ATOM     26  C   UNL     1       7.433   7.886   2.726  0.00  0.00    +0.007 C 
BRANCH  25  27
ATOM     27  C   UNL     1       9.545   7.859   4.061  0.00  0.00    -0.074 C 
BRANCH  27  29
ATOM     28  C   UNL     1      10.396  10.078   4.522  0.00  0.00    -0.096 C 
ATOM     29  N   UNL     1       9.232   9.177   4.652  0.00  0.00    +0.381 N 
ATOM     30  H   UNL     1       8.436   9.587   4.149  0.00  0.00    -0.082 HD
BRANCH  29  31
ATOM     31  C   UNL     1       8.871   9.019   6.076  0.00  0.00    -0.043 C 
BRANCH  31  32
ATOM     32  C   UNL     1       8.347  10.334   6.593  0.00  0.00    -0.064 A 
ATOM     33  C   UNL     1       9.213  11.245   7.169  0.00  0.00    +0.002 A 
ATOM     34  C   UNL     1       8.733  12.453   7.639  0.00  0.00    +0.000 A 
ATOM     35  C   UNL     1       7.385  12.746   7.543  0.00  0.00    +0.000 A 
ATOM     36  C   UNL     1       6.519  11.833   6.973  0.00  0.00    +0.000 A 
ATOM     37  C   UNL     1       6.999  10.627   6.498  0.00  0.00    +0.002 A 
ENDBRANCH  31  32
ENDBRANCH  29  31
ENDBRANCH  27  29
ENDBRANCH  25  27
ENDBRANCH  24  25
ENDBRANCH  13  24
TORSDOF 7
