REMARK  Name = ZINC09505519
REMARK  10 active torsions:
REMARK  status: ('A' for Active; 'I' for Inactive)
REMARK    1  A    between atoms: C_1  and  C_2
REMARK    2  A    between atoms: C_2  and  C_3
REMARK    3  A    between atoms: N_12  and  C_13
REMARK    4  A    between atoms: C_13  and  C_14
REMARK    5  A    between atoms: C_14  and  N_60
REMARK    6  A    between atoms: C_15  and  N_60
REMARK    7  A    between atoms: C_16  and  N_60
REMARK    8  A    between atoms: C_17  and  C_19
REMARK    9  A    between atoms: N_24  and  S_25
REMARK   10  A    between atoms: S_25  and  C_28
REMARK                            x       y       z     vdW  Elec       q    Type
REMARK                         _______ _______ _______ _____ _____    ______ ____
ROOT
ATOM      1  C   UNL     1      -1.849   7.902  -1.405  0.00  0.00    -0.021 A 
ATOM      2  C   UNL     1      -2.697   8.544  -2.268  0.00  0.00    +0.006 A 
ATOM      3  C   UNL     1      -3.624   7.846  -3.027  0.00  0.00    +0.001 A 
ATOM      4  C   UNL     1      -3.696   6.470  -2.912  0.00  0.00    +0.017 A 
ATOM      5  C   UNL     1      -2.850   5.818  -2.050  0.00  0.00    +0.041 A 
ATOM      6  C   UNL     1      -1.893   6.496  -1.261  0.00  0.00    +0.083 A 
ATOM      7  N   UNL     1      -1.139   5.715  -0.457  0.00  0.00    -0.224 NA
ATOM      8  C   UNL     1      -1.272   4.410  -0.414  0.00  0.00    +0.168 A 
ATOM      9  S   UNL     1      -2.590   4.122  -1.586  0.00  0.00    -0.052 S 
ATOM     10  N   UNL     1      -0.572   3.491   0.350  0.00  0.00    -0.251 N 
ATOM     11  C   UNL     1       0.470   3.894   1.104  0.00  0.00    +0.240 C 
ATOM     12  O   UNL     1       1.027   3.107   1.839  0.00  0.00    -0.273 OA
ENDROOT
BRANCH  11  13
ATOM     13  C   UNL     1       0.943   5.323   1.032  0.00  0.00    +0.166 C 
ATOM     14  C   UNL     1       0.192   6.177   2.075  0.00  0.00    +0.031 C 
ATOM     15  C   UNL     1       1.190   6.220   3.268  0.00  0.00    +0.019 C 
ATOM     16  C   UNL     1       2.552   6.265   2.532  0.00  0.00    +0.110 C 
ATOM     17  N   UNL     1       2.375   5.393   1.356  0.00  0.00    -0.164 NA
BRANCH  17  18
ATOM     18  S   UNL     1       3.589   4.620   0.536  0.00  0.00    +0.068 S 
ATOM     19  O   UNL     1       4.671   4.484   1.447  0.00  0.00    -0.152 OA
ATOM     20  O   UNL     1       2.994   3.505  -0.113  0.00  0.00    -0.152 OA
BRANCH  18  21
ATOM     21  C   UNL     1       4.135   5.711  -0.735  0.00  0.00    +0.143 A 
ATOM     22  C   UNL     1       5.105   6.657  -0.689  0.00  0.00    +0.036 A 
ATOM     23  C   UNL     1       5.369   7.402  -1.824  0.00  0.00    +0.010 A 
ATOM     24  C   UNL     1       4.642   7.172  -2.945  0.00  0.00    +0.047 A 
ATOM     25  S   UNL     1       3.550   5.863  -2.415  0.00  0.00    -0.077 S 
ENDBRANCH  18  21
ENDBRANCH  17  18
ENDBRANCH  11  13
BRANCH   1  27
ATOM     26  C   UNL     1       0.485   8.738  -1.335  0.00  0.00    +0.009 C 
ATOM     27  C   UNL     1      -0.857   8.702  -0.601  0.00  0.00    +0.034 C 
ENDBRANCH   1  27
BRANCH  10  28
ATOM     28  C   UNL     1      -0.965   2.079   0.339  0.00  0.00    +0.097 C 
BRANCH  28  29
ATOM     29  C   UNL     1      -0.164   1.335  -0.732  0.00  0.00    -0.060 C 
BRANCH  29  32
ATOM     30  C   UNL     1      -0.070  -0.725  -2.000  0.00  0.00    -0.097 C 
ATOM     31  C   UNL     1      -0.358  -0.795   0.403  0.00  0.00    -0.097 C 
ATOM     32  N   UNL     1      -0.674  -0.048  -0.833  0.00  0.00    +0.377 N 
ATOM     33  H   UNL     1      -1.693  -0.020  -0.955  0.00  0.00    -0.083 HD
ENDBRANCH  29  32
ENDBRANCH  28  29
ENDBRANCH  10  28
TORSDOF 7
