REMARK  Name = ZINC39632624
REMARK  4 active torsions:
REMARK  status: ('A' for Active; 'I' for Inactive)
REMARK    1  A    between atoms: C_5  and  C_7
REMARK    2  A    between atoms: C_10  and  C_12
REMARK    3  A    between atoms: C_16  and  C_25
REMARK    4  A    between atoms: N_27  and  C_28
REMARK                            x       y       z     vdW  Elec       q    Type
REMARK                         _______ _______ _______ _____ _____    ______ ____
ROOT
ATOM      1  C   UNL     1       2.354  -5.497  -1.347  0.00  0.00    +0.282 C 
ATOM      2  O   UNL     1       2.133  -6.639  -0.988  0.00  0.00    -0.267 OA
ATOM      3  N   UNL     1       3.223  -5.261  -2.349  0.00  0.00    -0.294 N 
ATOM      4  C   UNL     1       3.623  -3.952  -2.916  0.00  0.00    +0.121 C 
ATOM      5  C   UNL     1       5.138  -4.089  -3.184  0.00  0.00    +0.100 C 
ATOM      6  C   UNL     1       5.377  -5.601  -3.328  0.00  0.00    -0.004 C 
ATOM      7  C   UNL     1       4.001  -6.254  -3.129  0.00  0.00    +0.115 C 
ATOM      8  C   UNL     1       6.344  -6.088  -2.254  0.00  0.00    -0.010 C 
ATOM      9  C   UNL     1       6.609  -7.583  -2.452  0.00  0.00    -0.082 C 
ATOM     10  N   UNL     1       7.176  -7.809  -3.788  0.00  0.00    +0.379 N 
ATOM     11  C   UNL     1       6.201  -7.423  -4.816  0.00  0.00    -0.082 C 
ATOM     12  C   UNL     1       5.919  -5.922  -4.717  0.00  0.00    -0.010 C 
ATOM     13  H   UNL     1       8.012  -7.255  -3.894  0.00  0.00    -0.086 HD
ATOM     14  H   UNL     1       7.406  -8.785  -3.893  0.00  0.00    -0.086 HD
ENDROOT
BRANCH   1  18
ATOM     15  C   UNL     1       1.047  -2.334  -0.180  0.00  0.00    +0.139 A 
ATOM     16  C   UNL     1       0.373  -3.173   0.661  0.00  0.00    +0.051 A 
ATOM     17  C   UNL     1       0.766  -4.477   0.343  0.00  0.00    +0.055 A 
ATOM     18  C   UNL     1       1.674  -4.378  -0.689  0.00  0.00    +0.190 A 
ATOM     19  O   UNL     1       1.824  -3.071  -0.992  0.00  0.00    -0.450 OA
BRANCH  15  24
ATOM     20  C   UNL     1      -0.417   1.122  -0.250  0.00  0.00    +0.001 A 
ATOM     21  C   UNL     1       0.727   1.901  -0.233  0.00  0.00    +0.003 A 
ATOM     22  C   UNL     1       1.976   1.308  -0.199  0.00  0.00    +0.039 A 
ATOM     23  C   UNL     1       2.089  -0.070  -0.181  0.00  0.00    +0.134 A 
ATOM     24  C   UNL     1       0.936  -0.862  -0.198  0.00  0.00    +0.052 A 
ATOM     25  C   UNL     1      -0.320  -0.253  -0.233  0.00  0.00    +0.014 A 
ATOM     26  F   UNL     1       3.309  -0.649  -0.148  0.00  0.00    -0.205 F 
ENDBRANCH  15  24
ENDBRANCH   1  18
BRANCH   5  27
ATOM     27  C   UNL     1       5.513  -3.373  -4.457  0.00  0.00    +0.218 C 
ATOM     28  O   UNL     1       4.715  -3.297  -5.367  0.00  0.00    -0.275 OA
ATOM     29  N   UNL     1       6.735  -2.818  -4.583  0.00  0.00    -0.312 N 
ATOM     30  H   UNL     1       7.373  -2.879  -3.855  0.00  0.00    +0.149 HD
BRANCH  29  31
ATOM     31  C   UNL     1       7.099  -2.123  -5.820  0.00  0.00    +0.073 C 
ATOM     32  C   UNL     1       7.688  -3.123  -6.835  0.00  0.00    +0.022 C 
ATOM     33  C   UNL     1       8.812  -2.329  -7.544  0.00  0.00    +0.002 C 
ATOM     34  C   UNL     1       9.419  -1.492  -6.390  0.00  0.00    +0.002 C 
ATOM     35  C   UNL     1       8.200  -1.085  -5.537  0.00  0.00    +0.022 C 
ENDBRANCH  29  31
ENDBRANCH   5  27
TORSDOF 4
