REMARK  Name = ZINC40014641
REMARK  15 active torsions:
REMARK  status: ('A' for Active; 'I' for Inactive)
REMARK    1  A    between atoms: C_1  and  C_2
REMARK    2  A    between atoms: C_2  and  C_3
REMARK    3  A    between atoms: C_3  and  C_4
REMARK    4  A    between atoms: C_4  and  N_5
REMARK    5  A    between atoms: N_5  and  C_6
REMARK    6  A    between atoms: N_5  and  C_10
REMARK    7  A    between atoms: C_6  and  C_7
REMARK    8  A    between atoms: C_7  and  C_8
REMARK    9  A    between atoms: C_8  and  C_9
REMARK   10  A    between atoms: C_10  and  C_11
REMARK   11  A    between atoms: C_11  and  C_12
REMARK   12  A    between atoms: C_12  and  N_13
REMARK   13  A    between atoms: C_14  and  C_30
REMARK   14  A    between atoms: C_33  and  C_36
REMARK   15  A    between atoms: C_36  and  C_37
REMARK                            x       y       z     vdW  Elec       q    Type
REMARK                         _______ _______ _______ _____ _____    ______ ____
ROOT
ATOM      1  N   UNL     1      -5.843  -6.581   0.174  0.00  0.00    -0.284 N 
ATOM      2  C   UNL     1      -6.812  -6.685   1.278  0.00  0.00    +0.144 C 
ATOM      3  C   UNL     1      -8.070  -7.211   0.667  0.00  0.00    +0.072 A 
ATOM      4  C   UNL     1      -9.372  -7.531   1.262  0.00  0.00    +0.199 A 
ATOM      5  O   UNL     1      -9.675  -7.233   2.404  0.00  0.00    -0.287 OA
ATOM      6  C   UNL     1     -10.285  -8.252   0.340  0.00  0.00    +0.066 A 
ATOM      7  C   UNL     1     -11.477  -8.800   0.813  0.00  0.00    +0.035 A 
ATOM      8  C   UNL     1     -12.310  -9.471  -0.056  0.00  0.00    +0.042 A 
ATOM      9  C   UNL     1     -11.961  -9.599  -1.394  0.00  0.00    +0.023 A 
ATOM     10  C   UNL     1     -10.788  -9.061  -1.872  0.00  0.00    +0.048 A 
ATOM     11  C   UNL     1      -9.930  -8.375  -1.013  0.00  0.00    +0.140 A 
ATOM     12  O   UNL     1      -8.788  -7.847  -1.511  0.00  0.00    -0.450 OA
ATOM     13  C   UNL     1      -7.843  -7.387  -0.668  0.00  0.00    +0.199 A 
ATOM     14  C   UNL     1      -6.454  -6.989  -0.957  0.00  0.00    +0.283 C 
ATOM     15  O   UNL     1      -5.935  -7.024  -2.055  0.00  0.00    -0.267 OA
ATOM     16 CL   UNL     1     -13.797 -10.156   0.523  0.00  0.00    -0.084 Cl
ENDROOT
BRANCH   2  17
ATOM     17  C   UNL     1      -7.055  -5.327   1.885  0.00  0.00    -0.022 A 
ATOM     18  C   UNL     1      -7.161  -4.215   1.071  0.00  0.00    +0.006 A 
ATOM     19  C   UNL     1      -7.384  -2.970   1.629  0.00  0.00    +0.004 A 
ATOM     20  C   UNL     1      -7.502  -2.837   3.000  0.00  0.00    -0.048 A 
ATOM     21  C   UNL     1      -7.397  -3.950   3.813  0.00  0.00    +0.004 A 
ATOM     22  C   UNL     1      -7.178  -5.196   3.256  0.00  0.00    +0.006 A 
BRANCH  20  23
ATOM     23  C   UNL     1      -7.744  -1.480   3.607  0.00  0.00    +0.032 C 
ATOM     24  C   UNL     1      -9.249  -1.228   3.711  0.00  0.00    +0.009 C 
ENDBRANCH  20  23
ENDBRANCH   2  17
BRANCH   1  25
ATOM     25  C   UNL     1      -4.460  -6.112   0.284  0.00  0.00    +0.107 C 
BRANCH  25  26
ATOM     26  C   UNL     1      -4.417  -4.597   0.072  0.00  0.00    +0.000 C 
BRANCH  26  27
ATOM     27  C   UNL     1      -2.972  -4.107   0.187  0.00  0.00    -0.077 C 
BRANCH  27  28
ATOM     28  N   UNL     1      -2.913  -2.677  -0.142  0.00  0.00    +0.380 N 
ATOM     29  H   UNL     1      -3.320  -2.524  -1.052  0.00  0.00    -0.082 HD
BRANCH  28  30
ATOM     30  C   UNL     1      -3.662  -1.911   0.864  0.00  0.00    -0.079 C 
BRANCH  30  31
ATOM     31  C   UNL     1      -3.706  -0.438   0.455  0.00  0.00    -0.019 C 
BRANCH  31  33
ATOM     32  C   UNL     1      -4.530   1.833   1.093  0.00  0.00    +0.004 C 
ATOM     33  C   UNL     1      -4.486   0.359   1.502  0.00  0.00    -0.005 C 
ENDBRANCH  31  33
ENDBRANCH  30  31
ENDBRANCH  28  30
BRANCH  28  34
ATOM     34  C   UNL     1      -1.512  -2.234  -0.150  0.00  0.00    -0.079 C 
BRANCH  34  35
ATOM     35  C   UNL     1      -0.769  -2.915  -1.302  0.00  0.00    -0.019 C 
BRANCH  35  36
ATOM     36  C   UNL     1       0.707  -2.516  -1.262  0.00  0.00    -0.005 C 
ATOM     37  C   UNL     1       1.450  -3.197  -2.413  0.00  0.00    +0.004 C 
ENDBRANCH  35  36
ENDBRANCH  34  35
ENDBRANCH  28  34
ENDBRANCH  27  28
ENDBRANCH  26  27
ENDBRANCH  25  26
ENDBRANCH   1  25
TORSDOF 12
