REMARK  Name = ZINC03143910
REMARK  6 active torsions:
REMARK  status: ('A' for Active; 'I' for Inactive)
REMARK    1  A    between atoms: C_9  and  C_12
REMARK    2  A    between atoms: N_14  and  N_15
REMARK    3  A    between atoms: C_16  and  C_17
REMARK    4  A    between atoms: C_21  and  O_23
REMARK    5  A    between atoms: O_23  and  C_24
REMARK    6  A    between atoms: C_24  and  C_26
REMARK                            x       y       z     vdW  Elec       q    Type
REMARK                         _______ _______ _______ _____ _____    ______ ____
ROOT
ATOM      1  C   UNL     1       8.614  -2.806   4.404  0.00  0.00    -0.002 A 
ATOM      2  C   UNL     1       9.299  -1.588   4.384  0.00  0.00    +0.010 A 
ATOM      3  C   UNL     1       8.702  -0.471   3.836  0.00  0.00    +0.004 A 
ATOM      4  C   UNL     1       7.430  -0.554   3.301  0.00  0.00    +0.046 A 
ATOM      5  C   UNL     1       6.739  -1.758   3.320  0.00  0.00    +0.133 A 
ATOM      6  C   UNL     1       7.328  -2.886   3.867  0.00  0.00    +0.055 A 
ENDROOT
BRANCH   1   8
ATOM      7  N   UNL     1      10.444  -3.925   5.486  0.00  0.00    -0.188 NA
ATOM      8  C   UNL     1       9.249  -4.002   4.988  0.00  0.00    +0.138 C 
BRANCH   7  11
ATOM      9  C   UNL     1      12.289  -4.981   6.558  0.00  0.00    +0.276 C 
ATOM     10  O   UNL     1      12.885  -3.925   6.542  0.00  0.00    -0.270 OA
ATOM     11  N   UNL     1      11.047  -5.061   6.041  0.00  0.00    -0.204 N 
ATOM     12  H   UNL     1      10.570  -5.906   6.053  0.00  0.00    +0.177 HD
BRANCH   9  21
ATOM     13  C   UNL     1      16.769  -8.928   8.711  0.00  0.00    +0.004 A 
ATOM     14  C   UNL     1      16.951  -7.670   9.256  0.00  0.00    +0.004 A 
ATOM     15  C   UNL     1      16.087  -6.642   8.929  0.00  0.00    +0.049 A 
ATOM     16  C   UNL     1      15.036  -6.870   8.053  0.00  0.00    +0.163 A 
ATOM     17  C   UNL     1      14.852  -8.135   7.508  0.00  0.00    +0.162 A 
ATOM     18  C   UNL     1      15.723  -9.162   7.840  0.00  0.00    +0.049 A 
ATOM     19  O   UNL     1      13.822  -8.382   6.653  0.00  0.00    -0.484 OA
ATOM     20  C   UNL     1      13.195  -7.242   6.054  0.00  0.00    +0.283 C 
ATOM     21  C   UNL     1      12.937  -6.204   7.155  0.00  0.00    +0.297 C 
ATOM     22  O   UNL     1      14.195  -5.847   7.738  0.00  0.00    -0.472 OA
ENDBRANCH   9  21
ENDBRANCH   7  11
ENDBRANCH   1   8
BRANCH   5  23
ATOM     23  O   UNL     1       5.487  -1.832   2.797  0.00  0.00    -0.422 OA
BRANCH  23  24
ATOM     24  C   UNL     1       4.460  -1.855   3.669  0.00  0.00    +0.345 C 
ATOM     25  O   UNL     1       4.678  -1.901   4.863  0.00  0.00    -0.245 OA
BRANCH  24  26
ATOM     26  C   UNL     1       3.071  -1.825   3.173  0.00  0.00    +0.063 A 
ATOM     27  C   UNL     1       2.819  -1.772   1.799  0.00  0.00    +0.019 A 
ATOM     28  C   UNL     1       1.521  -1.745   1.339  0.00  0.00    +0.050 A 
ATOM     29  C   UNL     1       0.460  -1.769   2.235  0.00  0.00    +0.166 A 
ATOM     30  C   UNL     1       0.706  -1.822   3.607  0.00  0.00    +0.167 A 
ATOM     31  C   UNL     1       2.004  -1.849   4.076  0.00  0.00    +0.064 A 
ATOM     32  O   UNL     1      -0.492  -1.836   4.263  0.00  0.00    -0.453 OA
ATOM     33  C   UNL     1      -1.468  -2.205   3.271  0.00  0.00    +0.466 C 
ATOM     34  O   UNL     1      -0.888  -1.750   2.034  0.00  0.00    -0.453 OA
ENDBRANCH  24  26
ENDBRANCH  23  24
ENDBRANCH   5  23
TORSDOF 6
