REMARK  Name = ZINC39266388
REMARK  9 active torsions:
REMARK  status: ('A' for Active; 'I' for Inactive)
REMARK    1  A    between atoms: C_1  and  C_2
REMARK    2  A    between atoms: C_5  and  N_9
REMARK    3  A    between atoms: C_6  and  C_7
REMARK    4  A    between atoms: C_10  and  C_12
REMARK    5  A    between atoms: C_12  and  N_13
REMARK    6  A    between atoms: C_17  and  C_19
REMARK    7  A    between atoms: N_21  and  C_22
REMARK    8  A    between atoms: C_22  and  C_23
REMARK    9  A    between atoms: C_22  and  C_29
REMARK                            x       y       z     vdW  Elec       q    Type
REMARK                         _______ _______ _______ _____ _____    ______ ____
ROOT
ATOM      1  N   UNL     1       0.072  -6.807   2.251  0.00  0.00    +0.393 N 
ATOM      2  C   UNL     1       1.282  -6.939   1.410  0.00  0.00    -0.077 C 
ATOM      3  C   UNL     1       1.735  -8.408   1.599  0.00  0.00    -0.020 C 
ATOM      4  C   UNL     1       1.416  -8.645   3.098  0.00  0.00    -0.008 C 
ATOM      5  C   UNL     1       0.124  -7.829   3.312  0.00  0.00    +0.020 C 
ATOM      6  H   UNL     1      -0.750  -6.947   1.683  0.00  0.00    -0.080 HD
ENDROOT
BRANCH   5   7
ATOM      7  C   UNL     1       0.155  -7.164   4.663  0.00  0.00    +0.200 C 
ATOM      8  O   UNL     1       1.024  -6.359   4.923  0.00  0.00    -0.278 OA
ATOM      9  N   UNL     1      -0.783  -7.464   5.584  0.00  0.00    -0.306 N 
ATOM     10  H   UNL     1      -1.478  -8.107   5.376  0.00  0.00    +0.150 HD
BRANCH   9  11
ATOM     11  C   UNL     1      -0.753  -6.817   6.898  0.00  0.00    +0.133 C 
BRANCH  11  12
ATOM     12  C   UNL     1      -1.460  -5.488   6.820  0.00  0.00    -0.023 A 
ATOM     13  C   UNL     1      -2.624  -5.367   6.084  0.00  0.00    +0.006 A 
ATOM     14  C   UNL     1      -3.272  -4.148   6.013  0.00  0.00    +0.000 A 
ATOM     15  C   UNL     1      -2.758  -3.051   6.679  0.00  0.00    +0.000 A 
ATOM     16  C   UNL     1      -1.595  -3.173   7.416  0.00  0.00    +0.000 A 
ATOM     17  C   UNL     1      -0.948  -4.393   7.490  0.00  0.00    +0.006 A 
ENDBRANCH  11  12
BRANCH  11  18
ATOM     18  C   UNL     1      -1.446  -7.697   7.907  0.00  0.00    -0.023 A 
ATOM     19  C   UNL     1      -2.598  -8.375   7.556  0.00  0.00    +0.006 A 
ATOM     20  C   UNL     1      -3.233  -9.182   8.481  0.00  0.00    +0.000 A 
ATOM     21  C   UNL     1      -2.716  -9.311   9.757  0.00  0.00    +0.000 A 
ATOM     22  C   UNL     1      -1.564  -8.633  10.107  0.00  0.00    +0.000 A 
ATOM     23  C   UNL     1      -0.926  -7.829   9.181  0.00  0.00    +0.006 A 
ENDBRANCH  11  18
ENDBRANCH   9  11
ENDBRANCH   5   7
BRANCH   1  24
ATOM     24  C   UNL     1       0.035  -5.468   2.855  0.00  0.00    +0.020 C 
BRANCH  24  26
ATOM     25  N   UNL     1      -0.271  -3.132   2.103  0.00  0.00    -0.281 N 
ATOM     26  C   UNL     1      -0.198  -4.438   1.780  0.00  0.00    +0.201 C 
ATOM     27  O   UNL     1      -0.321  -4.785   0.625  0.00  0.00    -0.278 OA
ATOM     28  H   UNL     1      -0.173  -2.854   3.028  0.00  0.00    +0.155 HD
BRANCH  25  33
ATOM     29  C   UNL     1      -0.945   1.456   0.069  0.00  0.00    +0.045 C 
ATOM     30  C   UNL     1      -0.815  -0.045   0.053  0.00  0.00    -0.024 A 
ATOM     31  C   UNL     1      -0.903  -0.759  -1.085  0.00  0.00    +0.051 A 
ATOM     32  S   UNL     1      -0.681  -2.436  -0.533  0.00  0.00    -0.080 S 
ATOM     33  C   UNL     1      -0.485  -2.183   1.114  0.00  0.00    +0.089 A 
ATOM     34  C   UNL     1      -0.582  -0.807   1.258  0.00  0.00    +0.083 A 
BRANCH  34  35
ATOM     35  C   UNL     1      -0.462  -0.175   2.537  0.00  0.00    +0.102 C 
ATOM     36  N   UNL     1      -0.367   0.327   3.552  0.00  0.00    -0.191 NA
ENDBRANCH  34  35
ENDBRANCH  25  33
ENDBRANCH  24  26
ENDBRANCH   1  24
TORSDOF 8
