REMARK  Name = ZINC47133627
REMARK  8 active torsions:
REMARK  status: ('A' for Active; 'I' for Inactive)
REMARK    1  A    between atoms: C_1  and  C_2
REMARK    2  A    between atoms: C_2  and  C_3
REMARK    3  A    between atoms: C_3  and  O_4
REMARK    4  A    between atoms: O_4  and  C_5
REMARK    5  A    between atoms: C_8  and  C_12
REMARK    6  A    between atoms: C_16  and  C_20
REMARK    7  A    between atoms: C_22  and  C_27
REMARK    8  A    between atoms: C_25  and  C_26
REMARK                            x       y       z     vdW  Elec       q    Type
REMARK                         _______ _______ _______ _____ _____    ______ ____
ROOT
ATOM      1  C   UNL     1      -6.179  -4.976  -0.006  0.00  0.00    +0.250 C 
ATOM      2  O   UNL     1      -6.715  -5.219   1.057  0.00  0.00    -0.270 OA
ATOM      3  N   UNL     1      -6.845  -5.184  -1.160  0.00  0.00    -0.262 N 
ATOM      4  C   UNL     1      -8.146  -5.678  -1.133  0.00  0.00    +0.197 A 
ATOM      5  C   UNL     1      -9.024  -5.850  -2.296  0.00  0.00    +0.156 A 
ATOM      6  N   UNL     1     -10.164  -6.336  -1.881  0.00  0.00    -0.047 NA
ATOM      7  O   UNL     1     -10.081  -6.496  -0.476  0.00  0.00    -0.240 OA
ATOM      8  N   UNL     1      -8.792  -6.071  -0.071  0.00  0.00    -0.033 NA
ATOM      9  H   UNL     1      -6.417  -4.991  -2.008  0.00  0.00    +0.157 HD
ENDROOT
BRANCH   1  13
ATOM     10  C   UNL     1      -2.207  -3.472  -0.088  0.00  0.00    +0.157 A 
ATOM     11  C   UNL     1      -2.819  -3.749   1.130  0.00  0.00    +0.085 A 
ATOM     12  C   UNL     1      -4.108  -4.237   1.160  0.00  0.00    +0.036 A 
ATOM     13  C   UNL     1      -4.799  -4.453  -0.035  0.00  0.00    +0.040 A 
ATOM     14  C   UNL     1      -4.181  -4.174  -1.256  0.00  0.00    +0.036 A 
ATOM     15  C   UNL     1      -2.894  -3.681  -1.279  0.00  0.00    +0.085 A 
ATOM     16 CL   UNL     1      -2.128  -3.326  -2.795  0.00  0.00    -0.080 Cl
ATOM     17 CL   UNL     1      -1.959  -3.480   2.613  0.00  0.00    -0.080 Cl
BRANCH  10  18
ATOM     18  O   UNL     1      -0.938  -2.991  -0.114  0.00  0.00    -0.489 OA
BRANCH  18  19
ATOM     19  C   UNL     1      -0.781  -1.571  -0.076  0.00  0.00    +0.229 C 
BRANCH  19  21
ATOM     20  C   UNL     1       0.876   0.298  -0.072  0.00  0.00    +0.007 C 
ATOM     21  C   UNL     1       0.708  -1.222  -0.113  0.00  0.00    +0.038 C 
ENDBRANCH  19  21
ENDBRANCH  18  19
ENDBRANCH  10  18
ENDBRANCH   1  13
BRANCH   5  22
ATOM     22  C   UNL     1      -8.677  -5.528  -3.702  0.00  0.00    +0.010 A 
ATOM     23  C   UNL     1      -8.079  -4.308  -4.013  0.00  0.00    +0.014 A 
ATOM     24  C   UNL     1      -7.758  -4.014  -5.323  0.00  0.00    -0.050 A 
ATOM     25  C   UNL     1      -8.029  -4.928  -6.326  0.00  0.00    +0.003 A 
ATOM     26  C   UNL     1      -8.622  -6.140  -6.023  0.00  0.00    +0.004 A 
ATOM     27  C   UNL     1      -8.942  -6.447  -4.716  0.00  0.00    -0.041 A 
ATOM     28  C   UNL     1      -9.582  -7.771  -4.387  0.00  0.00    +0.044 C 
ATOM     29  C   UNL     1      -7.112  -2.695  -5.661  0.00  0.00    +0.044 C 
ENDBRANCH   5  22
TORSDOF 5
