REMARK  Name = ZINC21805299
REMARK  6 active torsions:
REMARK  status: ('A' for Active; 'I' for Inactive)
REMARK    1  A    between atoms: C_3  and  C_6
REMARK    2  A    between atoms: C_6  and  C_8
REMARK    3  A    between atoms: C_6  and  N_27
REMARK    4  A    between atoms: C_8  and  N_9
REMARK    5  A    between atoms: C_10  and  C_12
REMARK    6  A    between atoms: C_14  and  C_17
REMARK                            x       y       z     vdW  Elec       q    Type
REMARK                         _______ _______ _______ _____ _____    ______ ____
ROOT
ATOM      1  N   UNL     1      -7.991  -2.518  -0.195  0.00  0.00    -0.311 N 
ATOM      2  C   UNL     1      -7.373  -1.327  -0.321  0.00  0.00    +0.266 C 
ATOM      3  O   UNL     1      -8.028  -0.305  -0.361  0.00  0.00    -0.268 OA
ATOM      4  H   UNL     1      -7.398  -3.444  -0.158  0.00  0.00    +0.149 HD
ENDROOT
BRANCH   2   5
ATOM      5  C   UNL     1      -5.894  -1.264  -0.409  0.00  0.00    +0.168 A 
ATOM      6  C   UNL     1      -5.098  -0.097  -0.538  0.00  0.00    +0.086 A 
ATOM      7  C   UNL     1      -3.818  -0.577  -0.579  0.00  0.00    +0.168 A 
ATOM      8  O   UNL     1      -3.911  -1.914  -0.471  0.00  0.00    -0.354 OA
ATOM      9  N   UNL     1      -5.061  -2.276  -0.379  0.00  0.00    -0.073 NA
BRANCH   7  10
ATOM     10  C   UNL     1      -2.578   0.217  -0.709  0.00  0.00    +0.024 A 
ATOM     11  C   UNL     1      -2.645   1.608  -0.812  0.00  0.00    +0.015 A 
ATOM     12  C   UNL     1      -1.487   2.345  -0.939  0.00  0.00    +0.050 A 
ATOM     13  C   UNL     1      -0.251   1.710  -0.958  0.00  0.00    +0.162 A 
ATOM     14  C   UNL     1      -0.178   0.324  -0.854  0.00  0.00    +0.163 A 
ATOM     15  C   UNL     1      -1.337  -0.422  -0.731  0.00  0.00    +0.061 A 
ATOM     16  O   UNL     1       1.025  -0.313  -0.870  0.00  0.00    -0.485 OA
ATOM     17  C   UNL     1       2.140   0.432  -1.370  0.00  0.00    +0.270 C 
ATOM     18  C   UNL     1       2.113   1.826  -0.730  0.00  0.00    +0.270 C 
ATOM     19  O   UNL     1       0.878   2.458  -1.085  0.00  0.00    -0.485 OA
ENDBRANCH   7  10
ENDBRANCH   2   5
BRANCH   1  20
ATOM     20  C   UNL     1      -9.452  -2.580  -0.108  0.00  0.00    +0.094 C 
BRANCH  20  21
ATOM     21  C   UNL     1      -9.893  -4.039   0.028  0.00  0.00    -0.013 C 
BRANCH  21  22
ATOM     22  N   UNL     1      -9.339  -4.824  -1.083  0.00  0.00    +0.386 N 
ATOM     23  C   UNL     1      -9.662  -4.207  -2.376  0.00  0.00    -0.078 C 
ATOM     24  C   UNL     1      -8.949  -4.966  -3.497  0.00  0.00    -0.019 C 
ATOM     25  C   UNL     1      -9.400  -6.429  -3.483  0.00  0.00    -0.004 C 
ATOM     26  C   UNL     1      -9.097  -7.035  -2.110  0.00  0.00    -0.019 C 
ATOM     27  C   UNL     1      -9.805  -6.215  -1.028  0.00  0.00    -0.078 C 
ATOM     28  H   UNL     1      -8.244  -4.833  -0.980  0.00  0.00    -0.081 HD
ENDBRANCH  21  22
BRANCH  21  31
ATOM     29  C   UNL     1     -13.617  -4.412   0.735  0.00  0.00    +0.008 A 
ATOM     30  C   UNL     1     -12.261  -4.401   1.000  0.00  0.00    +0.009 A 
ATOM     31  C   UNL     1     -11.398  -4.114  -0.005  0.00  0.00    -0.022 A 
ATOM     32  S   UNL     1     -12.507  -3.839  -1.377  0.00  0.00    -0.103 S 
ATOM     33  C   UNL     1     -14.045  -4.135  -0.521  0.00  0.00    +0.045 A 
ENDBRANCH  21  31
ENDBRANCH  20  21
ENDBRANCH   1  20
TORSDOF 6
