REMARK  Name = ZINC23292854
REMARK  6 active torsions:
REMARK  status: ('A' for Active; 'I' for Inactive)
REMARK    1  A    between atoms: C_1  and  C_2
REMARK    2  A    between atoms: C_11  and  C_24
REMARK    3  A    between atoms: C_17  and  C_20
REMARK    4  A    between atoms: C_20  and  C_21
REMARK    5  A    between atoms: C_20  and  C_22
REMARK    6  A    between atoms: C_20  and  C_23
REMARK                            x       y       z     vdW  Elec       q    Type
REMARK                         _______ _______ _______ _____ _____    ______ ____
ROOT
ATOM      1  C   UNL     1     -10.300  -1.068   2.480  0.00  0.00    +0.008 C 
ATOM      2  C   UNL     1      -9.007  -0.363   2.068  0.00  0.00    -0.009 C 
ATOM      3  C   UNL     1      -8.349  -1.129   0.916  0.00  0.00    +0.008 C 
ATOM      4  C   UNL     1      -7.199  -0.305   0.336  0.00  0.00    +0.037 C 
ATOM      5  C   UNL     1      -6.265   0.106   1.472  0.00  0.00    -0.027 A 
ATOM      6  C   UNL     1      -6.685   0.077   2.754  0.00  0.00    -0.004 A 
ATOM      7  S   UNL     1      -5.294   0.624   3.707  0.00  0.00    -0.075 S 
ATOM      8  C   UNL     1      -4.147   0.893   2.377  0.00  0.00    +0.086 A 
ATOM      9  C   UNL     1      -4.890   0.544   1.232  0.00  0.00    +0.020 A 
ATOM     10  C   UNL     1      -4.206   0.662  -0.013  0.00  0.00    +0.032 A 
ATOM     11  C   UNL     1      -2.880   1.105  -0.024  0.00  0.00    -0.017 A 
ATOM     12  C   UNL     1      -2.253   1.425   1.159  0.00  0.00    +0.021 A 
ATOM     13  N   UNL     1      -2.904   1.305   2.312  0.00  0.00    -0.352 N 
ATOM     14  C   UNL     1      -0.832   1.927   1.215  0.00  0.00    +0.054 C 
ATOM     15  C   UNL     1      -0.099   1.606  -0.086  0.00  0.00    +0.010 C 
ATOM     16  C   UNL     1      -0.955   2.100  -1.259  0.00  0.00    -0.001 C 
ATOM     17  C   UNL     1      -2.191   1.210  -1.360  0.00  0.00    +0.041 C 
ATOM     18  C   UNL     1      -8.036  -0.332   3.257  0.00  0.00    +0.046 C 
ATOM     19  H   UNL     1      -2.362   1.566   3.232  0.00  0.00    +0.166 HD
ENDROOT
BRANCH  10  20
ATOM     20  C   UNL     1      -4.889   0.320  -1.274  0.00  0.00    +0.136 A 
ATOM     21  C   UNL     1      -4.599  -0.739  -2.080  0.00  0.00    +0.050 A 
ATOM     22  C   UNL     1      -5.495  -0.681  -3.164  0.00  0.00    +0.042 A 
ATOM     23  C   UNL     1      -6.274   0.403  -2.976  0.00  0.00    +0.196 A 
ATOM     24  O   UNL     1      -5.906   1.005  -1.834  0.00  0.00    -0.463 OA
ENDBRANCH  10  20
BRANCH  16  25
ATOM     25  C   UNL     1      -0.149   2.014  -2.557  0.00  0.00    -0.035 C 
ATOM     26  C   UNL     1       0.263   0.561  -2.805  0.00  0.00    +0.011 C 
ATOM     27  C   UNL     1      -1.007   2.507  -3.723  0.00  0.00    +0.011 C 
ATOM     28  C   UNL     1       1.103   2.885  -2.439  0.00  0.00    +0.011 C 
ENDBRANCH  16  25
TORSDOF 2
