REMARK  Name = ZINC48870002
REMARK  3 active torsions:
REMARK  status: ('A' for Active; 'I' for Inactive)
REMARK    1  A    between atoms: C_5  and  C_8
REMARK    2  A    between atoms: N_10  and  S_11
REMARK    3  A    between atoms: S_11  and  N_14
REMARK                            x       y       z     vdW  Elec       q    Type
REMARK                         _______ _______ _______ _____ _____    ______ ____
ROOT
ATOM      1  C   UNL     1       1.267  -2.145  -0.023  0.00  0.00    +0.316 C 
ATOM      2  O   UNL     1       0.113  -2.851  -0.016  0.00  0.00    -0.262 OA
ATOM      3  N   UNL     1       2.408  -2.766  -0.038  0.00  0.00    -0.073 NA
ENDROOT
BRANCH   1   8
ATOM      4  C   UNL     1      -0.017   1.383   0.010  0.00  0.00    +0.025 A 
ATOM      5  C   UNL     1       1.192   2.061   0.002  0.00  0.00    +0.041 A 
ATOM      6  C   UNL     1       2.376   1.339  -0.013  0.00  0.00    +0.130 A 
ATOM      7  N   UNL     1       2.365   0.023  -0.021  0.00  0.00    -0.229 NA
ATOM      8  C   UNL     1       1.230  -0.665  -0.014  0.00  0.00    +0.151 A 
ATOM      9  C   UNL     1       0.002  -0.004   0.002  0.00  0.00    +0.072 A 
ATOM     10 CL   UNL     1      -1.482  -0.905   0.012  0.00  0.00    -0.081 Cl
ATOM     11 CL   UNL     1       3.893   2.184  -0.023  0.00  0.00    -0.062 Cl
ENDBRANCH   1   8
BRANCH   3  12
ATOM     12  S   UNL     1       2.450  -4.422  -0.049  0.00  0.00    +0.142 S 
ATOM     13  O   UNL     1       1.922  -4.849   1.200  0.00  0.00    -0.134 OA
ATOM     14  O   UNL     1       1.897  -4.834  -1.291  0.00  0.00    -0.134 OA
BRANCH  12  15
ATOM     15  N   UNL     1       4.044  -4.871  -0.067  0.00  0.00    -0.160 NA
ATOM     16  C   UNL     1       4.753  -5.061  -1.339  0.00  0.00    +0.111 C 
ATOM     17  C   UNL     1       6.025  -4.207  -1.327  0.00  0.00    +0.017 C 
ATOM     18  C   UNL     1       6.854  -4.551  -0.088  0.00  0.00    +0.003 C 
ATOM     19  C   UNL     1       6.046  -4.233   1.173  0.00  0.00    +0.017 C 
ATOM     20  C   UNL     1       4.777  -5.082   1.189  0.00  0.00    +0.111 C 
ENDBRANCH  12  15
ENDBRANCH   3  12
TORSDOF 3
