REMARK  Name = ZINC39851593
REMARK  10 active torsions:
REMARK  status: ('A' for Active; 'I' for Inactive)
REMARK    1  A    between atoms: C_1  and  C_2
REMARK    2  A    between atoms: C_5  and  C_8
REMARK    3  A    between atoms: C_8  and  N_9
REMARK    4  A    between atoms: C_13  and  C_14
REMARK    5  A    between atoms: C_15  and  C_33
REMARK    6  A    between atoms: C_16  and  C_31
REMARK    7  A    between atoms: N_19  and  C_30
REMARK    8  A    between atoms: C_20  and  N_21
REMARK    9  A    between atoms: N_21  and  C_22
REMARK   10  A    between atoms: C_22  and  C_23
REMARK                            x       y       z     vdW  Elec       q    Type
REMARK                         _______ _______ _______ _____ _____    ______ ____
ROOT
ATOM      1  C   UNL     1       3.851  -5.555  -3.608  0.00  0.00    +0.019 A 
ATOM      2  C   UNL     1       2.598  -5.024  -3.958  0.00  0.00    -0.017 A 
ATOM      3  C   UNL     1       2.335  -4.748  -5.297  0.00  0.00    +0.120 A 
ATOM      4  C   UNL     1       3.332  -5.009  -6.272  0.00  0.00    +0.270 A 
ATOM      5  O   UNL     1       3.107  -4.769  -7.445  0.00  0.00    -0.266 OA
ATOM      6  N   UNL     1       4.523  -5.518  -5.911  0.00  0.00    -0.298 N 
ATOM      7  C   UNL     1       4.806  -5.790  -4.611  0.00  0.00    +0.109 A 
ATOM      8  C   UNL     1       5.535  -5.779  -6.937  0.00  0.00    +0.154 C 
ATOM      9  C   UNL     1       1.557  -4.756  -2.902  0.00  0.00    +0.046 C 
ENDROOT
BRANCH   1  14
ATOM     10  N   UNL     1       5.001  -9.416  -2.050  0.00  0.00    -0.251 N 
ATOM     11  C   UNL     1       4.588  -8.305  -2.635  0.00  0.00    +0.259 C 
ATOM     12  O   UNL     1       4.258  -8.299  -3.807  0.00  0.00    -0.269 OA
ATOM     13  C   UNL     1       4.541  -7.112  -1.851  0.00  0.00    +0.077 C 
ATOM     14  C   UNL     1       4.160  -5.856  -2.209  0.00  0.00    +0.032 C 
ATOM     15  S   UNL     1       5.120  -7.719  -0.272  0.00  0.00    -0.061 S 
ATOM     16  C   UNL     1       5.362  -9.424  -0.747  0.00  0.00    +0.121 C 
ATOM     17  S   UNL     1       5.914 -10.735   0.205  0.00  0.00    -0.027 S 
BRANCH  10  18
ATOM     18  C   UNL     1       5.062 -10.659  -2.823  0.00  0.00    +0.150 C 
BRANCH  18  23
ATOM     19  C   UNL     1       0.007 -13.431  -2.422  0.00  0.00    +0.044 C 
ATOM     20  C   UNL     1       1.326 -12.708  -2.526  0.00  0.00    -0.050 A 
ATOM     21  C   UNL     1       1.534 -11.793  -3.542  0.00  0.00    +0.003 A 
ATOM     22  C   UNL     1       2.743 -11.130  -3.638  0.00  0.00    +0.005 A 
ATOM     23  C   UNL     1       3.744 -11.381  -2.718  0.00  0.00    -0.030 A 
ATOM     24  C   UNL     1       3.535 -12.295  -1.702  0.00  0.00    +0.005 A 
ATOM     25  C   UNL     1       2.325 -12.956  -1.604  0.00  0.00    +0.003 A 
ENDBRANCH  18  23
ENDBRANCH  10  18
ENDBRANCH   1  14
BRANCH   7  26
ATOM     26  N   UNL     1       6.026  -6.301  -4.276  0.00  0.00    -0.326 N 
ATOM     27  H   UNL     1       6.184  -7.257  -4.334  0.00  0.00    +0.148 HD
BRANCH  26  28
ATOM     28  C   UNL     1       7.097  -5.407  -3.831  0.00  0.00    +0.138 C 
BRANCH  28  29
ATOM     29  C   UNL     1       8.367  -6.197  -3.648  0.00  0.00    -0.030 A 
ATOM     30  C   UNL     1       8.650  -6.777  -2.425  0.00  0.00    +0.008 A 
ATOM     31  C   UNL     1       9.814  -7.502  -2.256  0.00  0.00    +0.038 A 
ATOM     32  C   UNL     1      10.698  -7.648  -3.312  0.00  0.00    +0.123 A 
ATOM     33  C   UNL     1      10.414  -7.067  -4.536  0.00  0.00    +0.038 A 
ATOM     34  C   UNL     1       9.246  -6.346  -4.704  0.00  0.00    +0.008 A 
ATOM     35  F   UNL     1      11.837  -8.356  -3.148  0.00  0.00    -0.205 F 
ENDBRANCH  28  29
ENDBRANCH  26  28
ENDBRANCH   7  26
BRANCH   3  36
ATOM     36  C   UNL     1       1.068  -4.206  -5.687  0.00  0.00    +0.105 C 
ATOM     37  N   UNL     1       0.063  -3.776  -5.997  0.00  0.00    -0.191 NA
ENDBRANCH   3  36
TORSDOF 7
