REMARK  Name = ZINC39325211
REMARK  10 active torsions:
REMARK  status: ('A' for Active; 'I' for Inactive)
REMARK    1  A    between atoms: C_1  and  C_2
REMARK    2  A    between atoms: C_6  and  C_8
REMARK    3  A    between atoms: C_8  and  C_9
REMARK    4  A    between atoms: C_9  and  N_10
REMARK    5  A    between atoms: N_10  and  C_11
REMARK    6  A    between atoms: N_10  and  S_26
REMARK    7  A    between atoms: C_11  and  C_12
REMARK    8  A    between atoms: C_17  and  C_25
REMARK    9  A    between atoms: C_18  and  C_24
REMARK   10  A    between atoms: S_26  and  C_29
REMARK                            x       y       z     vdW  Elec       q    Type
REMARK                         _______ _______ _______ _____ _____    ______ ____
ROOT
ATOM      1  N   UNL     1       1.505  -5.871   2.614  0.00  0.00    -0.175 NA
ENDROOT
BRANCH   1   2
ATOM      2  S   UNL     1       0.759  -4.733   3.558  0.00  0.00    +0.061 S 
ATOM      3  O   UNL     1       0.934  -5.146   4.907  0.00  0.00    -0.153 OA
ATOM      4  O   UNL     1       1.194  -3.466   3.087  0.00  0.00    -0.153 OA
BRANCH   2   5
ATOM      5  C   UNL     1      -0.969  -4.829   3.223  0.00  0.00    +0.106 A 
ATOM      6  C   UNL     1      -1.520  -4.063   2.213  0.00  0.00    +0.031 A 
ATOM      7  C   UNL     1      -2.874  -4.138   1.949  0.00  0.00    +0.040 A 
ATOM      8  C   UNL     1      -3.679  -4.981   2.696  0.00  0.00    +0.124 A 
ATOM      9  C   UNL     1      -3.126  -5.747   3.708  0.00  0.00    +0.040 A 
ATOM     10  C   UNL     1      -1.770  -5.675   3.967  0.00  0.00    +0.031 A 
ATOM     11  F   UNL     1      -5.003  -5.054   2.439  0.00  0.00    -0.205 F 
ENDBRANCH   2   5
ENDBRANCH   1   2
BRANCH   1  12
ATOM     12  C   UNL     1       2.086  -5.487   1.326  0.00  0.00    +0.114 C 
BRANCH  12  13
ATOM     13  C   UNL     1       1.064  -5.725   0.213  0.00  0.00    +0.052 C 
BRANCH  13  19
ATOM     14  C   UNL     1       1.913  -2.261  -3.298  0.00  0.00    +0.044 C 
ATOM     15  C   UNL     1       2.068  -3.672  -2.792  0.00  0.00    -0.050 A 
ATOM     16  C   UNL     1       2.759  -4.604  -3.544  0.00  0.00    +0.003 A 
ATOM     17  C   UNL     1       2.901  -5.898  -3.080  0.00  0.00    +0.001 A 
ATOM     18  C   UNL     1       2.353  -6.261  -1.864  0.00  0.00    +0.004 A 
ATOM     19  C   UNL     1       1.662  -5.329  -1.112  0.00  0.00    -0.046 A 
ATOM     20  C   UNL     1       1.524  -4.034  -1.574  0.00  0.00    +0.007 A 
ENDBRANCH  13  19
ENDBRANCH  12  13
ENDBRANCH   1  12
BRANCH   1  21
ATOM     21  C   UNL     1       1.583  -7.262   3.067  0.00  0.00    +0.126 C 
BRANCH  21  22
ATOM     22  C   UNL     1       3.034  -7.606   3.409  0.00  0.00    +0.114 C 
ATOM     23  C   UNL     1       3.511  -6.621   4.457  0.00  0.00    -0.003 C 
ATOM     24  C   UNL     1       3.958  -7.133   5.639  0.00  0.00    -0.007 A 
ATOM     25  C   UNL     1       4.437  -6.253   6.705  0.00  0.00    +0.013 A 
ATOM     26  C   UNL     1       4.873  -6.807   7.866  0.00  0.00    -0.047 A 
ATOM     27  C   UNL     1       4.872  -8.189   8.056  0.00  0.00    -0.046 A 
ATOM     28  C   UNL     1       4.440  -9.059   7.106  0.00  0.00    +0.027 A 
ATOM     29  C   UNL     1       3.967  -8.588   5.868  0.00  0.00    +0.041 A 
ATOM     30  N   UNL     1       3.546  -9.451   4.944  0.00  0.00    -0.284 N 
ATOM     31  C   UNL     1       3.091  -9.076   3.760  0.00  0.00    +0.225 C 
ATOM     32  O   UNL     1       2.720  -9.911   2.957  0.00  0.00    -0.275 OA
ATOM     33  C   UNL     1       5.370  -8.739   9.368  0.00  0.00    +0.044 C 
ATOM     34  C   UNL     1       5.369  -5.911   8.971  0.00  0.00    +0.044 C 
ATOM     35  H   UNL     1       3.574 -10.399   5.149  0.00  0.00    +0.155 HD
ENDBRANCH  21  22
ENDBRANCH   1  21
TORSDOF 7
