REMARK  Name = ZINC09123872
REMARK  8 active torsions:
REMARK  status: ('A' for Active; 'I' for Inactive)
REMARK    1  A    between atoms: C_1  and  O_2
REMARK    2  A    between atoms: O_2  and  C_3
REMARK    3  A    between atoms: C_8  and  O_9
REMARK    4  A    between atoms: O_9  and  C_10
REMARK    5  A    between atoms: C_14  and  N_16
REMARK    6  A    between atoms: N_24  and  N_25
REMARK    7  A    between atoms: C_26  and  C_28
REMARK    8  A    between atoms: C_31  and  O_34
REMARK                            x       y       z     vdW  Elec       q    Type
REMARK                         _______ _______ _______ _____ _____    ______ ____
ROOT
ATOM      1  N   UNL     1      -5.714  -2.744  -1.122  0.00  0.00    -0.225 N 
ATOM      2  C   UNL     1      -5.708  -3.618  -2.204  0.00  0.00    +0.050 A 
ATOM      3  C   UNL     1      -5.101  -4.856  -2.388  0.00  0.00    +0.024 A 
ATOM      4  C   UNL     1      -5.253  -5.531  -3.582  0.00  0.00    +0.002 A 
ATOM      5  C   UNL     1      -6.009  -4.989  -4.607  0.00  0.00    +0.001 A 
ATOM      6  C   UNL     1      -6.620  -3.762  -4.443  0.00  0.00    +0.012 A 
ATOM      7  C   UNL     1      -6.472  -3.074  -3.244  0.00  0.00    +0.029 A 
ATOM      8  C   UNL     1      -6.979  -1.771  -2.752  0.00  0.00    +0.153 C 
ATOM      9  N   UNL     1      -7.739  -0.917  -3.394  0.00  0.00    -0.174 NA
ATOM     10  C   UNL     1      -6.446  -1.647  -1.381  0.00  0.00    +0.274 C 
ATOM     11  O   UNL     1      -6.635  -0.716  -0.621  0.00  0.00    -0.268 OA
ENDROOT
BRANCH   1  21
ATOM     12  C   UNL     1      -1.730  -0.381   0.850  0.00  0.00    +0.162 A 
ATOM     13  C   UNL     1      -2.974   0.223   0.789  0.00  0.00    +0.050 A 
ATOM     14  C   UNL     1      -4.111  -0.538   0.563  0.00  0.00    +0.013 A 
ATOM     15  C   UNL     1      -4.010  -1.898   0.398  0.00  0.00    +0.030 A 
ATOM     16  C   UNL     1      -2.760  -2.527   0.456  0.00  0.00    +0.112 A 
ATOM     17  C   UNL     1      -1.612  -1.758   0.679  0.00  0.00    +0.176 A 
ATOM     18  C   UNL     1      -2.974  -3.966   0.245  0.00  0.00    +0.345 C 
ATOM     19  O   UNL     1      -2.097  -4.807   0.234  0.00  0.00    -0.245 OA
ATOM     20  O   UNL     1      -4.282  -4.216   0.065  0.00  0.00    -0.434 OA
ATOM     21  C   UNL     1      -5.016  -2.991   0.142  0.00  0.00    +0.306 C 
BRANCH  12  23
ATOM     22  C   UNL     1      -0.813   1.778   1.239  0.00  0.00    +0.277 C 
ATOM     23  O   UNL     1      -0.620   0.372   1.072  0.00  0.00    -0.491 OA
ENDBRANCH  12  23
BRANCH  17  24
ATOM     24  O   UNL     1      -0.392  -2.351   0.733  0.00  0.00    -0.491 OA
ATOM     25  C   UNL     1       0.054  -2.802   2.014  0.00  0.00    +0.277 C 
ENDBRANCH  17  24
ENDBRANCH   1  21
BRANCH   9  26
ATOM     26  N   UNL     1      -8.272  -1.255  -4.645  0.00  0.00    -0.202 N 
ATOM     27  C   UNL     1      -8.951  -0.336  -5.359  0.00  0.00    +0.263 C 
ATOM     28  O   UNL     1      -9.101   0.787  -4.918  0.00  0.00    -0.268 OA
ATOM     29  H   UNL     1      -8.152  -2.151  -4.997  0.00  0.00    +0.178 HD
BRANCH  27  30
ATOM     30  C   UNL     1      -9.512  -0.692  -6.676  0.00  0.00    +0.039 A 
ATOM     31  C   UNL     1      -9.346  -1.985  -7.182  0.00  0.00    +0.016 A 
ATOM     32  C   UNL     1      -9.871  -2.313  -8.412  0.00  0.00    +0.046 A 
ATOM     33  C   UNL     1     -10.566  -1.361  -9.149  0.00  0.00    +0.117 A 
ATOM     34  C   UNL     1     -10.733  -0.075  -8.650  0.00  0.00    +0.046 A 
ATOM     35  C   UNL     1     -10.217   0.260  -7.418  0.00  0.00    +0.016 A 
BRANCH  33  36
ATOM     36  O   UNL     1     -11.082  -1.689 -10.361  0.00  0.00    -0.507 OA
ATOM     37  H   UNL     1     -11.985  -2.033 -10.324  0.00  0.00    +0.292 HD
ENDBRANCH  33  36
ENDBRANCH  27  30
ENDBRANCH   9  26
TORSDOF 6
