REMARK  Name = ZINC36638038
REMARK  8 active torsions:
REMARK  status: ('A' for Active; 'I' for Inactive)
REMARK    1  A    between atoms: C_1  and  C_2
REMARK    2  A    between atoms: C_2  and  N_3
REMARK    3  A    between atoms: N_3  and  C_4
REMARK    4  A    between atoms: N_3  and  C_6
REMARK    5  A    between atoms: C_4  and  C_5
REMARK    6  A    between atoms: C_6  and  C_7
REMARK    7  A    between atoms: C_7  and  N_8
REMARK    8  A    between atoms: C_19  and  C_21
REMARK                            x       y       z     vdW  Elec       q    Type
REMARK                         _______ _______ _______ _____ _____    ______ ____
ROOT
ATOM      1  N   UNL     1      -2.679  -3.724  -4.437  0.00  0.00    -0.248 N 
ATOM      2  C   UNL     1      -2.182  -4.375  -3.321  0.00  0.00    +0.168 A 
ATOM      3  N   UNL     1      -2.834  -4.850  -2.286  0.00  0.00    -0.221 NA
ATOM      4  C   UNL     1      -2.213  -5.470  -1.258  0.00  0.00    +0.115 A 
ATOM      5  C   UNL     1      -2.794  -6.023  -0.091  0.00  0.00    +0.150 A 
ATOM      6  C   UNL     1      -2.012  -6.622   0.864  0.00  0.00    +0.040 A 
ATOM      7  C   UNL     1      -0.634  -6.707   0.723  0.00  0.00    +0.004 A 
ATOM      8  C   UNL     1      -0.035  -6.178  -0.404  0.00  0.00    +0.017 A 
ATOM      9  C   UNL     1      -0.809  -5.576  -1.366  0.00  0.00    +0.044 A 
ATOM     10  S   UNL     1      -0.488  -4.790  -2.927  0.00  0.00    -0.052 S 
ATOM     11  F   UNL     1      -4.132  -5.960   0.083  0.00  0.00    -0.203 F 
ATOM     12  C   UNL     1      -1.853  -3.398  -5.451  0.00  0.00    +0.259 C 
ATOM     13  O   UNL     1      -0.676  -3.700  -5.397  0.00  0.00    -0.269 OA
ENDROOT
BRANCH  12  14
ATOM     14  C   UNL     1      -2.375  -2.679  -6.623  0.00  0.00    +0.122 A 
ATOM     15  C   UNL     1      -2.770  -3.356  -7.776  0.00  0.00    +0.032 A 
ATOM     16  C   UNL     1      -3.231  -2.593  -8.866  0.00  0.00    +0.026 A 
ATOM     17  C   UNL     1      -3.863  -3.237 -10.020  0.00  0.00    -0.007 A 
ATOM     18  C   UNL     1      -4.014  -4.624 -10.093  0.00  0.00    +0.009 A 
ATOM     19  C   UNL     1      -4.609  -5.183 -11.187  0.00  0.00    +0.001 A 
ATOM     20  C   UNL     1      -5.068  -4.387 -12.232  0.00  0.00    +0.001 A 
ATOM     21  C   UNL     1      -4.935  -3.031 -12.192  0.00  0.00    +0.008 A 
ATOM     22  C   UNL     1      -4.328  -2.425 -11.081  0.00  0.00    -0.017 A 
ATOM     23  C   UNL     1      -4.175  -1.026 -11.004  0.00  0.00    +0.012 A 
ATOM     24  C   UNL     1      -3.579  -0.443  -9.934  0.00  0.00    +0.047 A 
ATOM     25  C   UNL     1      -3.094  -1.197  -8.861  0.00  0.00    +0.140 A 
ATOM     26  O   UNL     1      -2.471  -0.584  -7.827  0.00  0.00    -0.422 OA
ATOM     27  C   UNL     1      -2.510  -1.212  -6.627  0.00  0.00    +0.350 A 
ATOM     28  O   UNL     1      -2.647  -0.589  -5.591  0.00  0.00    -0.244 OA
ENDBRANCH  12  14
BRANCH   1  29
ATOM     29  C   UNL     1      -4.103  -3.388  -4.515  0.00  0.00    +0.097 C 
BRANCH  29  30
ATOM     30  C   UNL     1      -4.732  -3.509  -3.126  0.00  0.00    -0.059 C 
BRANCH  30  31
ATOM     31  N   UNL     1      -6.160  -3.173  -3.204  0.00  0.00    +0.380 N 
ATOM     32  H   UNL     1      -6.268  -2.258  -3.616  0.00  0.00    -0.082 HD
BRANCH  31  34
ATOM     33  C   UNL     1      -8.308  -3.739  -4.236  0.00  0.00    -0.017 C 
ATOM     34  C   UNL     1      -6.853  -4.168  -4.033  0.00  0.00    -0.082 C 
ENDBRANCH  31  34
BRANCH  31  35
ATOM     35  C   UNL     1      -6.738  -3.173  -1.854  0.00  0.00    -0.082 C 
ATOM     36  C   UNL     1      -6.120  -2.038  -1.034  0.00  0.00    -0.017 C 
ENDBRANCH  31  35
ENDBRANCH  30  31
ENDBRANCH  29  30
ENDBRANCH   1  29
TORSDOF 6
