REMARK  Name = ZINC12056241
REMARK  7 active torsions:
REMARK  status: ('A' for Active; 'I' for Inactive)
REMARK    1  A    between atoms: C_1  and  O_2
REMARK    2  A    between atoms: O_2  and  C_3
REMARK    3  A    between atoms: C_8  and  C_9
REMARK    4  A    between atoms: C_9  and  N_10
REMARK    5  A    between atoms: C_21  and  N_55
REMARK    6  A    between atoms: C_25  and  C_26
REMARK    7  A    between atoms: C_25  and  N_55
REMARK                            x       y       z     vdW  Elec       q    Type
REMARK                         _______ _______ _______ _____ _____    ______ ____
ROOT
ATOM      1  N   UNL     1       5.239   3.474   1.869  0.00  0.00    -0.294 N 
ATOM      2  C   UNL     1       5.745   2.722   2.876  0.00  0.00    +0.203 A 
ATOM      3  N   UNL     1       5.167   1.623   3.309  0.00  0.00    -0.230 NA
ATOM      4  C   UNL     1       4.035   1.254   2.718  0.00  0.00    +0.116 A 
ATOM      5  C   UNL     1       3.429   1.970   1.662  0.00  0.00    +0.076 A 
ATOM      6  C   UNL     1       4.093   3.163   1.218  0.00  0.00    +0.263 A 
ATOM      7  O   UNL     1       3.652   3.853   0.315  0.00  0.00    -0.267 OA
ATOM      8  C   UNL     1       2.193   1.416   1.139  0.00  0.00    -0.023 A 
ATOM      9  C   UNL     1       1.749   0.274   1.713  0.00  0.00    -0.006 A 
ATOM     10  S   UNL     1       2.946  -0.112   2.966  0.00  0.00    -0.073 S 
ATOM     11  C   UNL     1       0.513  -0.496   1.364  0.00  0.00    +0.027 C 
ATOM     12  C   UNL     1       0.002  -0.004   0.002  0.00  0.00    -0.066 C 
ATOM     13  C   UNL     1      -0.019   1.527   0.010  0.00  0.00    -0.011 C 
ATOM     14  C   UNL     1       1.412   2.066  -0.000  0.00  0.00    +0.035 C 
ENDROOT
BRANCH  12  15
ATOM     15  N   UNL     1      -1.365  -0.509  -0.226  0.00  0.00    +0.384 N 
ATOM     16  H   UNL     1      -1.858   0.126  -0.865  0.00  0.00    -0.085 HD
ATOM     17  H   UNL     1      -1.865  -0.550   0.670  0.00  0.00    -0.085 HD
BRANCH  15  18
ATOM     18  C   UNL     1      -1.320  -1.858  -0.821  0.00  0.00    -0.043 C 
BRANCH  18  19
ATOM     19  C   UNL     1      -2.728  -2.347  -1.042  0.00  0.00    -0.026 A 
ATOM     20  C   UNL     1      -3.303  -3.229  -0.146  0.00  0.00    +0.005 A 
ATOM     21  C   UNL     1      -4.596  -3.674  -0.344  0.00  0.00    +0.003 A 
ATOM     22  C   UNL     1      -5.314  -3.247  -1.446  0.00  0.00    +0.041 A 
ATOM     23  C   UNL     1      -4.740  -2.369  -2.348  0.00  0.00    +0.159 A 
ATOM     24  C   UNL     1      -3.444  -1.918  -2.146  0.00  0.00    +0.160 A 
ATOM     25  F   UNL     1      -2.881  -1.060  -3.025  0.00  0.00    -0.202 F 
ATOM     26  F   UNL     1      -5.441  -1.951  -3.424  0.00  0.00    -0.202 F 
ENDBRANCH  18  19
ENDBRANCH  15  18
ENDBRANCH  12  15
BRANCH   1  27
ATOM     27  C   UNL     1       5.966   4.680   1.465  0.00  0.00    +0.165 C 
BRANCH  27  33
ATOM     28  C   UNL     1       5.930   6.051   3.564  0.00  0.00    +0.125 A 
ATOM     29  C   UNL     1       5.478   7.137   4.300  0.00  0.00    +0.046 A 
ATOM     30  C   UNL     1       4.569   8.016   3.745  0.00  0.00    +0.004 A 
ATOM     31  C   UNL     1       4.112   7.817   2.455  0.00  0.00    +0.001 A 
ATOM     32  C   UNL     1       4.564   6.738   1.718  0.00  0.00    +0.009 A 
ATOM     33  C   UNL     1       5.474   5.856   2.269  0.00  0.00    +0.014 A 
BRANCH  28  35
ATOM     34  C   UNL     1       7.247   5.444   5.449  0.00  0.00    +0.277 C 
ATOM     35  O   UNL     1       6.821   5.181   4.110  0.00  0.00    -0.495 OA
ENDBRANCH  28  35
ENDBRANCH  27  33
ENDBRANCH   1  27
TORSDOF 6
