REMARK  Name = ZINC02194292
REMARK  8 active torsions:
REMARK  status: ('A' for Active; 'I' for Inactive)
REMARK    1  A    between atoms: C_1  and  C_2
REMARK    2  A    between atoms: C_2  and  O_3
REMARK    3  A    between atoms: O_3  and  C_4
REMARK    4  A    between atoms: C_6  and  C_20
REMARK    5  A    between atoms: C_9  and  O_10
REMARK    6  A    between atoms: O_10  and  C_11
REMARK    7  A    between atoms: C_11  and  C_13
REMARK    8  A    between atoms: C_31  and  N_58
REMARK                            x       y       z     vdW  Elec       q    Type
REMARK                         _______ _______ _______ _____ _____    ______ ____
ROOT
ATOM      1  C   UNL     1      -0.030   1.394   0.040  0.00  0.00    +0.163 A 
ATOM      2  C   UNL     1       1.158   2.108   0.034  0.00  0.00    +0.056 A 
ATOM      3  C   UNL     1       2.367   1.438  -0.008  0.00  0.00    -0.006 A 
ATOM      4  C   UNL     1       2.394   0.056  -0.045  0.00  0.00    +0.011 A 
ATOM      5  C   UNL     1       1.213  -0.662  -0.039  0.00  0.00    +0.050 A 
ATOM      6  C   UNL     1      -0.002   0.003   0.004  0.00  0.00    +0.173 A 
ENDROOT
BRANCH   3   7
ATOM      7  C   UNL     1       3.657   2.216  -0.015  0.00  0.00    +0.190 C 
ATOM      8  N   UNL     1       4.684   1.441  -0.735  0.00  0.00    -0.316 N 
ATOM      9  C   UNL     1       4.687   1.543  -2.102  0.00  0.00    +0.080 A 
ATOM     10  C   UNL     1       4.142   2.640  -2.787  0.00  0.00    +0.068 A 
ATOM     11  C   UNL     1       4.237   2.590  -4.235  0.00  0.00    -0.027 A 
ATOM     12  C   UNL     1       4.832   1.488  -4.747  0.00  0.00    -0.021 A 
ATOM     13  S   UNL     1       5.276   0.512  -3.336  0.00  0.00    -0.080 S 
ATOM     14  C   UNL     1       5.053   1.187  -6.196  0.00  0.00    -0.036 C 
ATOM     15  C   UNL     1       4.382   3.490  -6.537  0.00  0.00    -0.074 C 
ATOM     16  C   UNL     1       3.721   3.680  -5.169  0.00  0.00    +0.018 C 
ATOM     17  C   UNL     1       4.509   1.978  -8.424  0.00  0.00    -0.096 C 
ATOM     18  C   UNL     1       3.534   3.720  -1.976  0.00  0.00    +0.248 C 
ATOM     19  O   UNL     1       3.142   4.753  -2.488  0.00  0.00    -0.270 OA
ATOM     20  N   UNL     1       3.432   3.511  -0.648  0.00  0.00    -0.289 N 
ATOM     21  H   UNL     1       5.327   0.887  -0.264  0.00  0.00    +0.149 HD
ATOM     22  H   UNL     1       3.195   4.263  -0.083  0.00  0.00    +0.151 HD
ATOM     23  N   UNL     1       4.187   2.096  -6.986  0.00  0.00    +0.381 N 
ATOM     24  H   UNL     1       3.205   1.833  -6.841  0.00  0.00    -0.082 HD
ENDBRANCH   3   7
BRANCH   1  25
ATOM     25  O   UNL     1      -1.219   2.052   0.076  0.00  0.00    -0.489 OA
BRANCH  25  27
ATOM     26  C   UNL     1      -2.595   4.037   0.150  0.00  0.00    +0.048 C 
ATOM     27  C   UNL     1      -1.171   3.479   0.113  0.00  0.00    +0.226 C 
ENDBRANCH  25  27
ENDBRANCH   1  25
BRANCH   6  28
ATOM     28  O   UNL     1      -1.165  -0.702   0.009  0.00  0.00    -0.419 OA
BRANCH  28  29
ATOM     29  C   UNL     1      -1.808  -0.830  -1.168  0.00  0.00    +0.346 C 
ATOM     30  O   UNL     1      -1.297  -0.412  -2.188  0.00  0.00    -0.244 OA
BRANCH  29  31
ATOM     31  C   UNL     1      -3.134  -1.477  -1.218  0.00  0.00    +0.078 A 
ATOM     32  C   UNL     1      -3.722  -1.963  -0.048  0.00  0.00    +0.016 A 
ATOM     33  C   UNL     1      -4.963  -2.562  -0.102  0.00  0.00    +0.001 A 
ATOM     34  C   UNL     1      -5.622  -2.692  -1.312  0.00  0.00    +0.001 A 
ATOM     35  C   UNL     1      -5.044  -2.219  -2.476  0.00  0.00    +0.021 A 
ATOM     36  C   UNL     1      -3.804  -1.612  -2.437  0.00  0.00    +0.055 A 
ATOM     37 CL   UNL     1      -3.079  -1.018  -3.899  0.00  0.00    -0.083 Cl
ENDBRANCH  29  31
ENDBRANCH  28  29
ENDBRANCH   6  28
TORSDOF 6
