REMARK  Name = ZINC21080633
REMARK  9 active torsions:
REMARK  status: ('A' for Active; 'I' for Inactive)
REMARK    1  A    between atoms: C_1  and  O_2
REMARK    2  A    between atoms: O_2  and  C_3
REMARK    3  A    between atoms: C_8  and  C_9
REMARK    4  A    between atoms: N_10  and  N_11
REMARK    5  A    between atoms: C_14  and  S_17
REMARK    6  A    between atoms: S_17  and  C_18
REMARK    7  A    between atoms: C_18  and  C_19
REMARK    8  A    between atoms: C_19  and  O_21
REMARK    9  A    between atoms: O_21  and  C_22
REMARK                            x       y       z     vdW  Elec       q    Type
REMARK                         _______ _______ _______ _____ _____    ______ ____
ROOT
ATOM      1  N   UNL     1      -1.150   2.163   0.019  0.00  0.00    -0.205 N 
ATOM      2  C   UNL     1      -0.017   1.363   0.009  0.00  0.00    +0.232 A 
ATOM      3  N   UNL     1       0.002  -0.004   0.002  0.00  0.00    -0.186 NA
ATOM      4  C   UNL     1       1.307  -0.408  -0.013  0.00  0.00    +0.211 A 
ATOM      5  N   UNL     1       2.063   0.663  -0.014  0.00  0.00    -0.144 NA
ATOM      6  N   UNL     1       1.225   1.785   0.000  0.00  0.00    -0.245 N 
ATOM      7  H   UNL     1      -2.148   1.702   0.022  0.00  0.00    +0.177 HD
ATOM      8  H   UNL     1       1.439   2.864   0.004  0.00  0.00    +0.192 HD
ENDROOT
BRANCH   1  10
ATOM      9  C   UNL     1      -2.083   4.307   0.036  0.00  0.00    +0.142 C 
ATOM     10  N   UNL     1      -1.022   3.558   0.026  0.00  0.00    -0.187 NA
BRANCH   9  16
ATOM     11  C   UNL     1      -0.678   6.366   0.046  0.00  0.00    +0.129 A 
ATOM     12  C   UNL     1      -0.563   7.746   0.047  0.00  0.00    +0.047 A 
ATOM     13  C   UNL     1      -1.697   8.537   0.057  0.00  0.00    +0.019 A 
ATOM     14  C   UNL     1      -2.955   7.958   0.060  0.00  0.00    +0.019 A 
ATOM     15  C   UNL     1      -3.087   6.584   0.053  0.00  0.00    +0.028 A 
ATOM     16  C   UNL     1      -1.949   5.775   0.043  0.00  0.00    +0.037 A 
ATOM     17 BR   UNL     1      -4.496   9.053   0.074  0.00  0.00    -0.050 Br
BRANCH  11  19
ATOM     18  C   UNL     1       1.696   6.261   0.045  0.00  0.00    +0.277 C 
ATOM     19  O   UNL     1       0.436   5.589   0.042  0.00  0.00    -0.494 OA
ENDBRANCH  11  19
ENDBRANCH   9  16
ENDBRANCH   1  10
BRANCH   4  20
ATOM     20  S   UNL     1       1.874  -2.077  -0.028  0.00  0.00    -0.073 S 
BRANCH  20  21
ATOM     21  C   UNL     1       3.681  -1.926  -0.044  0.00  0.00    +0.197 C 
BRANCH  21  22
ATOM     22  C   UNL     1       4.300  -3.300  -0.057  0.00  0.00    +0.318 C 
ATOM     23  O   UNL     1       3.594  -4.280  -0.056  0.00  0.00    -0.250 OA
BRANCH  22  24
ATOM     24  O   UNL     1       5.636  -3.434  -0.071  0.00  0.00    -0.461 OA
BRANCH  24  25
ATOM     25  C   UNL     1       6.162  -4.788  -0.084  0.00  0.00    +0.176 C 
ATOM     26  C   UNL     1       6.434  -5.263   1.359  0.00  0.00    +0.044 C 
ATOM     27  C   UNL     1       7.728  -6.105   1.244  0.00  0.00    +0.004 C 
ATOM     28  C   UNL     1       8.558  -5.315   0.202  0.00  0.00    +0.004 C 
ATOM     29  C   UNL     1       7.513  -4.821  -0.819  0.00  0.00    +0.044 C 
ENDBRANCH  24  25
ENDBRANCH  22  24
ENDBRANCH  21  22
ENDBRANCH  20  21
ENDBRANCH   4  20
TORSDOF 8
