REMARK  Name = ZINC15484867
REMARK  10 active torsions:
REMARK  status: ('A' for Active; 'I' for Inactive)
REMARK    1  A    between atoms: C_1  and  C_2
REMARK    2  A    between atoms: C_2  and  N_3
REMARK    3  A    between atoms: N_3  and  C_4
REMARK    4  A    between atoms: C_4  and  C_5
REMARK    5  A    between atoms: C_6  and  C_8
REMARK    6  A    between atoms: C_8  and  N_9
REMARK    7  A    between atoms: N_9  and  C_10
REMARK    8  A    between atoms: N_9  and  C_11
REMARK    9  A    between atoms: C_11  and  C_12
REMARK   10  A    between atoms: N_17  and  C_18
REMARK                            x       y       z     vdW  Elec       q    Type
REMARK                         _______ _______ _______ _____ _____    ______ ____
ROOT
ATOM      1  C   UNL     1      -2.455  -0.708   6.016  0.00  0.00    +0.204 C 
ATOM      2  O   UNL     1      -3.574  -1.122   5.798  0.00  0.00    -0.277 OA
ATOM      3  N   UNL     1      -2.068  -0.447   7.280  0.00  0.00    -0.241 N 
ATOM      4  C   UNL     1      -2.924  -0.646   8.302  0.00  0.00    +0.310 C 
ATOM      5  O   UNL     1      -4.045  -1.061   8.084  0.00  0.00    -0.252 OA
ATOM      6  N   UNL     1      -2.536  -0.385   9.566  0.00  0.00    -0.269 N 
ATOM      7  H   UNL     1      -1.173  -0.116   7.454  0.00  0.00    +0.159 HD
ATOM      8  H   UNL     1      -1.621  -0.118   9.748  0.00  0.00    +0.156 HD
ENDROOT
BRANCH   6   9
ATOM      9  C   UNL     1      -3.453  -0.498  10.617  0.00  0.00    +0.035 A 
ATOM     10  C   UNL     1      -3.391   0.378  11.693  0.00  0.00    +0.024 A 
ATOM     11  C   UNL     1      -4.298   0.264  12.728  0.00  0.00    +0.017 A 
ATOM     12  C   UNL     1      -5.268  -0.723  12.695  0.00  0.00    +0.018 A 
ATOM     13  C   UNL     1      -5.332  -1.597  11.624  0.00  0.00    +0.017 A 
ATOM     14  C   UNL     1      -4.431  -1.484  10.583  0.00  0.00    +0.024 A 
ATOM     15 BR   UNL     1      -6.507  -0.876  14.114  0.00  0.00    -0.050 Br
ENDBRANCH   6   9
BRANCH   1  16
ATOM     16  C   UNL     1      -1.498  -0.486   4.873  0.00  0.00    +0.019 C 
BRANCH  16  17
ATOM     17  N   UNL     1      -2.155  -0.841   3.608  0.00  0.00    +0.389 N 
ATOM     18  C   UNL     1      -2.447  -2.281   3.596  0.00  0.00    -0.095 C 
ATOM     19  H   UNL     1      -3.016  -0.323   3.519  0.00  0.00    -0.081 HD
BRANCH  17  20
ATOM     20  C   UNL     1      -1.267  -0.512   2.486  0.00  0.00    +0.019 C 
BRANCH  20  22
ATOM     21  N   UNL     1      -1.362  -0.528   0.014  0.00  0.00    -0.304 N 
ATOM     22  C   UNL     1      -1.986  -0.762   1.185  0.00  0.00    +0.199 C 
ATOM     23  O   UNL     1      -3.127  -1.173   1.193  0.00  0.00    -0.278 OA
BRANCH  21  25
ATOM     24  C   UNL     1       0.006   1.499   0.012  0.00  0.00    +0.024 C 
ATOM     25  C   UNL     1       0.016  -0.031   0.005  0.00  0.00    +0.104 C 
ENDBRANCH  21  25
BRANCH  21  26
ATOM     26  C   UNL     1      -2.062  -0.771  -1.250  0.00  0.00    +0.104 C 
ATOM     27  C   UNL     1      -1.816  -2.212  -1.700  0.00  0.00    +0.024 C 
ENDBRANCH  21  26
ENDBRANCH  20  22
ENDBRANCH  17  20
ENDBRANCH  16  17
ENDBRANCH   1  16
TORSDOF 7
