REMARK  Name = ZINC59426229
REMARK  6 active torsions:
REMARK  status: ('A' for Active; 'I' for Inactive)
REMARK    1  A    between atoms: C_4  and  C_7
REMARK    2  A    between atoms: C_9  and  C_25
REMARK    3  A    between atoms: C_10  and  C_19
REMARK    4  A    between atoms: N_11  and  C_12
REMARK    5  A    between atoms: N_26  and  N_27
REMARK    6  A    between atoms: N_27  and  C_28
REMARK                            x       y       z     vdW  Elec       q    Type
REMARK                         _______ _______ _______ _____ _____    ______ ____
ROOT
ATOM      1  C   UNL     1       3.924  -0.752   0.163  0.00  0.00    +0.055 A 
ATOM      2  C   UNL     1       5.186  -0.256   0.059  0.00  0.00    +0.038 A 
ATOM      3  C   UNL     1       6.063  -1.349  -0.125  0.00  0.00    +0.021 A 
ATOM      4  C   UNL     1       5.283  -2.501  -0.126  0.00  0.00    +0.063 A 
ATOM      5  N   UNL     1       3.977  -2.121   0.056  0.00  0.00    -0.308 N 
ENDROOT
BRANCH   5   6
ATOM      6  C   UNL     1       2.878  -2.987   0.119  0.00  0.00    +0.047 A 
ATOM      7  C   UNL     1       1.921  -2.971  -0.887  0.00  0.00    +0.027 A 
ATOM      8  C   UNL     1       0.839  -3.826  -0.822  0.00  0.00    +0.017 A 
ATOM      9  C   UNL     1       0.706  -4.697   0.244  0.00  0.00    +0.018 A 
ATOM     10  C   UNL     1       1.657  -4.714   1.249  0.00  0.00    +0.017 A 
ATOM     11  C   UNL     1       2.746  -3.866   1.186  0.00  0.00    +0.027 A 
ATOM     12 BR   UNL     1      -0.778  -5.865   0.330  0.00  0.00    -0.050 Br
ENDBRANCH   5   6
BRANCH   1  16
ATOM     13  C   UNL     1       0.401   1.548   0.743  0.00  0.00    +0.000 A 
ATOM     14  C   UNL     1       0.415   0.209   1.093  0.00  0.00    +0.001 A 
ATOM     15  C   UNL     1       1.556  -0.544   0.907  0.00  0.00    +0.010 A 
ATOM     16  C   UNL     1       2.698   0.048   0.364  0.00  0.00    -0.001 A 
ATOM     17  C   UNL     1       2.677   1.399   0.014  0.00  0.00    +0.010 A 
ATOM     18  C   UNL     1       1.530   2.141   0.205  0.00  0.00    +0.001 A 
ENDBRANCH   1  16
BRANCH   4  19
ATOM     19  C   UNL     1       5.773  -3.882  -0.289  0.00  0.00    -0.001 A 
ATOM     20  C   UNL     1       6.742  -4.390   0.580  0.00  0.00    +0.010 A 
ATOM     21  C   UNL     1       7.195  -5.683   0.422  0.00  0.00    +0.001 A 
ATOM     22  C   UNL     1       6.693  -6.477  -0.595  0.00  0.00    +0.000 A 
ATOM     23  C   UNL     1       5.733  -5.980  -1.459  0.00  0.00    +0.001 A 
ATOM     24  C   UNL     1       5.265  -4.691  -1.309  0.00  0.00    +0.010 A 
ENDBRANCH   4  19
BRANCH   3  25
ATOM     25  C   UNL     1       7.525  -1.281  -0.286  0.00  0.00    +0.140 C 
ATOM     26  N   UNL     1       8.201  -2.360  -0.544  0.00  0.00    -0.190 NA
BRANCH  26  27
ATOM     27  N   UNL     1       9.601  -2.318  -0.581  0.00  0.00    -0.238 N 
ATOM     28  H   UNL     1      10.068  -1.502  -0.341  0.00  0.00    +0.174 HD
BRANCH  27  29
ATOM     29  C   UNL     1      10.322  -3.448  -0.964  0.00  0.00    +0.048 A 
ATOM     30  C   UNL     1       9.656  -4.577  -1.427  0.00  0.00    +0.025 A 
ATOM     31  C   UNL     1      10.374  -5.694  -1.806  0.00  0.00    +0.002 A 
ATOM     32  C   UNL     1      11.755  -5.691  -1.724  0.00  0.00    +0.000 A 
ATOM     33  C   UNL     1      12.421  -4.570  -1.264  0.00  0.00    +0.002 A 
ATOM     34  C   UNL     1      11.711  -3.447  -0.889  0.00  0.00    +0.025 A 
ENDBRANCH  27  29
ENDBRANCH  26  27
ENDBRANCH   3  25
TORSDOF 6
