REMARK  Name = ZINC34923605
REMARK  10 active torsions:
REMARK  status: ('A' for Active; 'I' for Inactive)
REMARK    1  A    between atoms: C_1  and  C_2
REMARK    2  A    between atoms: C_3  and  C_31
REMARK    3  A    between atoms: C_4  and  C_24
REMARK    4  A    between atoms: C_7  and  C_12
REMARK    5  A    between atoms: C_13  and  N_15
REMARK    6  A    between atoms: N_15  and  C_16
REMARK    7  A    between atoms: N_15  and  C_17
REMARK    8  A    between atoms: N_20  and  C_23
REMARK    9  A    between atoms: C_31  and  O_33
REMARK   10  A    between atoms: O_33  and  C_34
REMARK                            x       y       z     vdW  Elec       q    Type
REMARK                         _______ _______ _______ _____ _____    ______ ____
ROOT
ATOM      1  C   UNL     1      -0.029   1.372  -0.394  0.00  0.00    +0.066 C 
ATOM      2  C   UNL     1       0.034  -0.127  -0.248  0.00  0.00    +0.053 C 
ATOM      3  C   UNL     1      -1.136  -0.860  -0.189  0.00  0.00    +0.082 C 
ATOM      4  C   UNL     1      -1.021  -2.361  -0.042  0.00  0.00    +0.150 C 
ATOM      5  N   UNL     1       0.351  -2.931   0.027  0.00  0.00    -0.267 N 
ATOM      6  C   UNL     1       0.692  -4.262   0.159  0.00  0.00    +0.048 C 
ATOM      7  C   UNL     1       2.006  -4.571   0.201  0.00  0.00    +0.072 C 
ATOM      8  S   UNL     1       2.767  -2.967   0.054  0.00  0.00    -0.060 S 
ATOM      9  C   UNL     1       1.377  -2.032  -0.050  0.00  0.00    +0.166 C 
ATOM     10  N   UNL     1       1.208  -0.732  -0.183  0.00  0.00    -0.230 NA
ENDROOT
BRANCH   4  11
ATOM     11  C   UNL     1      -1.729  -2.997  -1.211  0.00  0.00    -0.022 A 
ATOM     12  C   UNL     1      -1.153  -2.966  -2.467  0.00  0.00    +0.007 A 
ATOM     13  C   UNL     1      -1.802  -3.548  -3.540  0.00  0.00    +0.020 A 
ATOM     14  C   UNL     1      -3.027  -4.163  -3.356  0.00  0.00    +0.041 A 
ATOM     15  C   UNL     1      -3.603  -4.194  -2.098  0.00  0.00    +0.020 A 
ATOM     16  C   UNL     1      -2.951  -3.615  -1.025  0.00  0.00    +0.007 A 
ATOM     17 CL   UNL     1      -3.843  -4.895  -4.702  0.00  0.00    -0.084 Cl
ENDBRANCH   4  11
BRANCH   6  18
ATOM     18  C   UNL     1      -0.339  -5.306   0.250  0.00  0.00    +0.091 C 
ATOM     19  C   UNL     1       0.013  -6.578   0.522  0.00  0.00    +0.241 C 
ATOM     20  O   UNL     1       1.296  -6.872   0.844  0.00  0.00    -0.271 OA
BRANCH  19  21
ATOM     21  N   UNL     1      -0.937  -7.584   0.473  0.00  0.00    -0.298 N 
ATOM     22  C   UNL     1      -2.352  -7.249   0.296  0.00  0.00    +0.132 C 
BRANCH  21  23
ATOM     23  C   UNL     1      -0.526  -8.985   0.597  0.00  0.00    +0.073 C 
ATOM     24  C   UNL     1      -0.883  -9.739  -0.688  0.00  0.00    +0.004 C 
ATOM     25  C   UNL     1      -0.525 -11.217  -0.522  0.00  0.00    -0.077 C 
ATOM     26  N   UNL     1      -1.277 -11.783   0.605  0.00  0.00    +0.378 N 
ATOM     27  C   UNL     1      -0.887 -11.113   1.851  0.00  0.00    -0.077 C 
ATOM     28  C   UNL     1      -1.259  -9.631   1.776  0.00  0.00    +0.004 C 
ATOM     29  C   UNL     1      -0.989 -13.220   0.711  0.00  0.00    -0.096 C 
ATOM     30  H   UNL     1      -2.265 -11.651   0.448  0.00  0.00    -0.082 HD
ENDBRANCH  21  23
ENDBRANCH  19  21
ENDBRANCH   6  18
BRANCH   3  31
ATOM     31  C   UNL     1      -2.386  -0.234  -0.261  0.00  0.00    +0.339 C 
ATOM     32  O   UNL     1      -2.456   0.977  -0.379  0.00  0.00    -0.245 OA
BRANCH  31  33
ATOM     33  O   UNL     1      -3.517  -0.973  -0.201  0.00  0.00    -0.465 OA
ATOM     34  C   UNL     1      -4.757  -0.268  -0.281  0.00  0.00    +0.280 C 
ENDBRANCH  31  33
ENDBRANCH   3  31
TORSDOF 6
