REMARK  Name = ZINC64491007
REMARK  2 active torsions:
REMARK  status: ('A' for Active; 'I' for Inactive)
REMARK    1  A    between atoms: C_8  and  C_29
REMARK    2  A    between atoms: N_18  and  C_19
REMARK                            x       y       z     vdW  Elec       q    Type
REMARK                         _______ _______ _______ _____ _____    ______ ____
ROOT
ATOM      1  C   UNL     1      -0.143   1.195   1.383  0.00  0.00    +0.001 A 
ATOM      2  C   UNL     1       0.890   1.858   2.061  0.00  0.00    +0.002 A 
ATOM      3  C   UNL     1       2.099   1.297   2.271  0.00  0.00    +0.026 A 
ATOM      4  C   UNL     1       2.375  -0.017   1.804  0.00  0.00    +0.043 A 
ATOM      5  N   UNL     1       3.447  -0.771   1.901  0.00  0.00    -0.375 N 
ATOM      6  C   UNL     1       3.209  -2.013   1.170  0.00  0.00    +0.131 C 
ATOM      7  C   UNL     1       3.384  -3.245   2.064  0.00  0.00    +0.134 C 
ATOM      8  N   UNL     1       2.747  -4.387   1.389  0.00  0.00    -0.276 N 
ATOM      9  C   UNL     1       1.317  -4.359   1.062  0.00  0.00    +0.114 C 
ATOM     10  C   UNL     1       1.025  -3.146   0.159  0.00  0.00    +0.052 C 
ATOM     11  C   UNL     1       1.751  -1.956   0.744  0.00  0.00    -0.035 C 
ATOM     12  C   UNL     1       1.297  -0.744   1.089  0.00  0.00    -0.001 A 
ATOM     13  C   UNL     1       0.012  -0.058   0.900  0.00  0.00    +0.010 A 
ATOM     14  C   UNL     1       3.484  -5.468   1.067  0.00  0.00    +0.307 C 
ATOM     15  O   UNL     1       4.619  -5.579   1.490  0.00  0.00    -0.252 OA
ATOM     16  N   UNL     1       2.964  -6.428   0.276  0.00  0.00    -0.269 N 
ATOM     17  H   UNL     1       2.097  -6.296  -0.140  0.00  0.00    +0.156 HD
ATOM     18  H   UNL     1       4.259  -0.542   2.379  0.00  0.00    +0.160 HD
ENDROOT
BRANCH  16  19
ATOM     19  C   UNL     1       3.675  -7.615   0.054  0.00  0.00    +0.038 A 
ATOM     20  C   UNL     1       5.063  -7.603   0.051  0.00  0.00    +0.027 A 
ATOM     21  C   UNL     1       5.764  -8.773  -0.169  0.00  0.00    +0.051 A 
ATOM     22  C   UNL     1       5.084  -9.963  -0.385  0.00  0.00    +0.162 A 
ATOM     23  C   UNL     1       3.694  -9.978  -0.379  0.00  0.00    +0.164 A 
ATOM     24  C   UNL     1       2.991  -8.804  -0.156  0.00  0.00    +0.072 A 
ATOM     25  O   UNL     1       3.010 -11.137  -0.582  0.00  0.00    -0.485 OA
ATOM     26  C   UNL     1       3.739 -12.222  -1.167  0.00  0.00    +0.270 C 
ATOM     27  C   UNL     1       5.087 -12.341  -0.442  0.00  0.00    +0.270 C 
ATOM     28  O   UNL     1       5.792 -11.105  -0.604  0.00  0.00    -0.485 OA
ENDBRANCH  16  19
BRANCH   7  29
ATOM     29  C   UNL     1       4.851  -3.525   2.266  0.00  0.00    -0.025 A 
ATOM     30  C   UNL     1       5.714  -3.498   1.187  0.00  0.00    +0.008 A 
ATOM     31  C   UNL     1       7.060  -3.753   1.372  0.00  0.00    +0.038 A 
ATOM     32  C   UNL     1       7.543  -4.036   2.638  0.00  0.00    +0.123 A 
ATOM     33  C   UNL     1       6.677  -4.063   3.718  0.00  0.00    +0.038 A 
ATOM     34  C   UNL     1       5.333  -3.802   3.532  0.00  0.00    +0.008 A 
ATOM     35  F   UNL     1       8.858  -4.287   2.820  0.00  0.00    -0.205 F 
ENDBRANCH   7  29
TORSDOF 2
