REMARK  Name = ZINC39666594
REMARK  9 active torsions:
REMARK  status: ('A' for Active; 'I' for Inactive)
REMARK    1  A    between atoms: C_1  and  C_2
REMARK    2  A    between atoms: C_4  and  C_11
REMARK    3  A    between atoms: C_5  and  C_7
REMARK    4  A    between atoms: C_15  and  C_24
REMARK    5  A    between atoms: N_26  and  C_27
REMARK    6  A    between atoms: C_27  and  C_28
REMARK    7  A    between atoms: C_28  and  C_30
REMARK    8  A    between atoms: C_28  and  O_31
REMARK    9  A    between atoms: O_31  and  C_32
REMARK                            x       y       z     vdW  Elec       q    Type
REMARK                         _______ _______ _______ _____ _____    ______ ____
ROOT
ATOM      1  C   UNL     1      -1.323  -3.599  -0.136  0.00  0.00    +0.250 C 
ATOM      2  O   UNL     1      -0.778  -4.676  -0.289  0.00  0.00    -0.270 OA
ATOM      3  N   UNL     1      -2.663  -3.534  -0.009  0.00  0.00    -0.296 N 
ATOM      4  C   UNL     1      -3.510  -2.320   0.060  0.00  0.00    +0.121 C 
ATOM      5  C   UNL     1      -4.766  -2.673  -0.768  0.00  0.00    +0.100 C 
ATOM      6  C   UNL     1      -4.835  -4.209  -0.742  0.00  0.00    -0.004 C 
ATOM      7  C   UNL     1      -3.623  -4.660   0.086  0.00  0.00    +0.115 C 
ATOM      8  C   UNL     1      -4.735  -4.768  -2.158  0.00  0.00    -0.010 C 
ATOM      9  C   UNL     1      -4.863  -6.293  -2.111  0.00  0.00    -0.082 C 
ATOM     10  N   UNL     1      -6.151  -6.659  -1.508  0.00  0.00    +0.379 N 
ATOM     11  C   UNL     1      -6.201  -6.198  -0.115  0.00  0.00    -0.082 C 
ATOM     12  C   UNL     1      -6.129  -4.669  -0.078  0.00  0.00    -0.010 C 
ATOM     13  H   UNL     1      -6.899  -6.229  -2.030  0.00  0.00    -0.086 HD
ATOM     14  H   UNL     1      -6.259  -7.662  -1.533  0.00  0.00    -0.086 HD
ENDROOT
BRANCH   1  18
ATOM     15  C   UNL     1       0.261   1.153   0.832  0.00  0.00    +0.086 C 
ATOM     16  C   UNL     1       0.164  -0.270   0.346  0.00  0.00    +0.103 A 
ATOM     17  C   UNL     1      -0.867  -1.100   0.570  0.00  0.00    +0.058 A 
ATOM     18  C   UNL     1      -0.517  -2.366  -0.091  0.00  0.00    +0.087 A 
ATOM     19  C   UNL     1       0.709  -2.160  -0.653  0.00  0.00    +0.220 A 
ATOM     20  O   UNL     1       1.091  -0.908  -0.385  0.00  0.00    -0.455 OA
BRANCH  19  21
ATOM     21  C   UNL     1       1.496  -3.172  -1.446  0.00  0.00    +0.451 C 
ATOM     22  F   UNL     1       1.161  -3.066  -2.800  0.00  0.00    -0.163 F 
ATOM     23  F   UNL     1       2.864  -2.929  -1.284  0.00  0.00    -0.163 F 
ATOM     24  F   UNL     1       1.193  -4.460  -0.990  0.00  0.00    -0.163 F 
ENDBRANCH  19  21
ENDBRANCH   1  18
BRANCH   5  25
ATOM     25  C   UNL     1      -4.618  -2.177  -2.184  0.00  0.00    +0.218 C 
ATOM     26  O   UNL     1      -3.528  -2.181  -2.717  0.00  0.00    -0.275 OA
ATOM     27  N   UNL     1      -5.696  -1.728  -2.857  0.00  0.00    -0.312 N 
ATOM     28  H   UNL     1      -6.567  -1.724  -2.430  0.00  0.00    +0.149 HD
BRANCH  27  29
ATOM     29  C   UNL     1      -5.551  -1.246  -4.233  0.00  0.00    +0.148 C 
BRANCH  29  30
ATOM     30  C   UNL     1      -6.915  -0.797  -4.761  0.00  0.00    +0.187 C 
ATOM     31  C   UNL     1      -6.764  -0.293  -6.198  0.00  0.00    +0.053 C 
BRANCH  30  32
ATOM     32  O   UNL     1      -7.822  -1.901  -4.736  0.00  0.00    -0.486 OA
BRANCH  32  33
ATOM     33  C   UNL     1      -9.126  -1.622  -4.473  0.00  0.00    +0.139 A 
ATOM     34  C   UNL     1      -9.548  -0.305  -4.368  0.00  0.00    +0.047 A 
ATOM     35  C   UNL     1     -10.874  -0.024  -4.102  0.00  0.00    +0.004 A 
ATOM     36  C   UNL     1     -11.781  -1.055  -3.939  0.00  0.00    +0.002 A 
ATOM     37  C   UNL     1     -11.365  -2.369  -4.042  0.00  0.00    +0.023 A 
ATOM     38  C   UNL     1     -10.040  -2.655  -4.315  0.00  0.00    +0.083 A 
ATOM     39 CL   UNL     1      -9.518  -4.305  -4.453  0.00  0.00    -0.080 Cl
ENDBRANCH  32  33
ENDBRANCH  30  32
ENDBRANCH  29  30
ENDBRANCH  27  29
ENDBRANCH   5  25
TORSDOF 7
