REMARK  Name = ZINC49181166
REMARK  17 active torsions:
REMARK  status: ('A' for Active; 'I' for Inactive)
REMARK    1  A    between atoms: C_1  and  C_2
REMARK    2  A    between atoms: C_2  and  C_3
REMARK    3  A    between atoms: C_3  and  C_5
REMARK    4  A    between atoms: C_3  and  C_6
REMARK    5  A    between atoms: C_7  and  C_8
REMARK    6  A    between atoms: C_7  and  C_9
REMARK    7  A    between atoms: C_10  and  C_11
REMARK    8  A    between atoms: C_17  and  C_32
REMARK    9  A    between atoms: C_17  and  O_33
REMARK   10  A    between atoms: N_22  and  C_23
REMARK   11  A    between atoms: C_23  and  C_24
REMARK   12  A    between atoms: C_24  and  C_25
REMARK   13  A    between atoms: C_25  and  CA_26
REMARK   14  A    between atoms: CA_26  and  C_28
REMARK   15  A    between atoms: CA_26  and  N_31
REMARK   16  A    between atoms: O_33  and  C_34
REMARK   17  A    between atoms: C_34  and  C_36
REMARK                            x       y       z     vdW  Elec       q    Type
REMARK                         _______ _______ _______ _____ _____    ______ ____
ROOT
ATOM      1  C   UNL     1      -3.135  -6.729   1.756  0.00  0.00    +0.034 C 
ATOM      2  C   UNL     1      -3.746  -7.346   2.833  0.00  0.00    +0.033 C 
ATOM      3  C   UNL     1      -4.058  -8.711   2.737  0.00  0.00    +0.010 C 
ATOM      4  C   UNL     1      -4.638  -9.432   3.783  0.00  0.00    +0.096 C 
ATOM      5  C   UNL     1      -4.705 -10.807   3.761  0.00  0.00    +0.226 C 
ATOM      6  O   UNL     1      -5.261 -11.384   4.679  0.00  0.00    -0.286 OA
ATOM      7  C   UNL     1      -4.116 -11.623   2.640  0.00  0.00    +0.235 C 
ATOM      8  C   UNL     1      -4.160 -10.812   1.359  0.00  0.00    +0.216 C 
ATOM      9  O   UNL     1      -4.508 -11.300   0.303  0.00  0.00    -0.287 OA
ATOM     10  C   UNL     1      -3.758  -9.405   1.466  0.00  0.00    +0.045 C 
ATOM     11  C   UNL     1      -3.141  -8.720   0.450  0.00  0.00    +0.087 C 
ATOM     12  N   UNL     1      -2.838  -7.416   0.607  0.00  0.00    -0.306 N 
ATOM     13  C   UNL     1      -4.928 -12.907   2.461  0.00  0.00    +0.073 C 
ATOM     14 CL   UNL     1      -5.289  -8.574   5.145  0.00  0.00    -0.079 Cl
ENDROOT
BRANCH   1  16
ATOM     15  C   UNL     1      -2.994  -4.639   3.003  0.00  0.00    +0.005 C 
ATOM     16  C   UNL     1      -2.803  -5.308   1.844  0.00  0.00    +0.024 C 
BRANCH  15  18
ATOM     17  C   UNL     1      -2.750  -2.586   4.268  0.00  0.00    -0.021 C 
ATOM     18  C   UNL     1      -2.562  -3.246   3.124  0.00  0.00    -0.054 C 
ATOM     19  C   UNL     1      -1.904  -2.557   1.956  0.00  0.00    +0.043 C 
BRANCH  17  20
ATOM     20  C   UNL     1      -2.182  -1.201   4.441  0.00  0.00    +0.009 C 
ATOM     21  C   UNL     1      -1.328  -1.154   5.709  0.00  0.00    +0.012 C 
BRANCH  20  23
ATOM     22  C   UNL     1      -2.754   1.225   4.609  0.00  0.00    +0.004 C 
ATOM     23  C   UNL     1      -3.327  -0.192   4.559  0.00  0.00    +0.004 C 
ENDBRANCH  20  23
ENDBRANCH  17  20
ENDBRANCH  15  18
ENDBRANCH   1  16
BRANCH  12  24
ATOM     24  C   UNL     1      -2.163  -6.710  -0.485  0.00  0.00    +0.110 C 
BRANCH  24  25
ATOM     25  C   UNL     1      -0.650  -6.755  -0.263  0.00  0.00    +0.018 C 
BRANCH  25  26
ATOM     26  C   UNL     1       0.055  -6.018  -1.404  0.00  0.00    -0.004 C 
BRANCH  26  27
ATOM     27  CA  UNL     1       1.568  -6.062  -1.182  0.00  0.00    +0.040 C 
BRANCH  27  28
ATOM     28  N   UNL     1       1.907  -5.312   0.034  0.00  0.00    +0.387 N 
ATOM     29  H1  UNL     1       1.438  -5.725   0.827  0.00  0.00    -0.089 HD
ATOM     30  H2  UNL     1       2.905  -5.341   0.181  0.00  0.00    -0.089 HD
ATOM     31  H3  UNL     1       1.610  -4.353  -0.069  0.00  0.00    -0.089 HD
ENDBRANCH  27  28
BRANCH  27  32
ATOM     32  C   UNL     1       2.268  -5.445  -2.365  0.00  0.00    +0.342 C 
ATOM     33  O   UNL     1       2.832  -4.370  -2.247  0.00  0.00    -0.248 OA
ATOM     34  OXT UNL     1       2.270  -6.019  -3.440  0.00  0.00    -0.248 OA
ENDBRANCH  27  32
ENDBRANCH  26  27
ENDBRANCH  25  26
ENDBRANCH  24  25
ENDBRANCH  12  24
BRANCH   7  35
ATOM     35  O   UNL     1      -2.761 -11.953   2.951  0.00  0.00    -0.442 OA
BRANCH  35  36
ATOM     36  C   UNL     1      -2.548 -12.668   4.067  0.00  0.00    +0.305 C 
ATOM     37  O   UNL     1      -3.481 -13.002   4.757  0.00  0.00    -0.251 OA
ATOM     38  C   UNL     1      -1.145 -13.053   4.459  0.00  0.00    +0.136 C 
ENDBRANCH  35  36
ENDBRANCH   7  35
TORSDOF 12
