REMARK  Name = ZINC45618281
REMARK  8 active torsions:
REMARK  status: ('A' for Active; 'I' for Inactive)
REMARK    1  A    between atoms: C_1  and  C_2
REMARK    2  A    between atoms: C_5  and  N_8
REMARK    3  A    between atoms: C_11  and  C_16
REMARK    4  A    between atoms: C_16  and  S_17
REMARK    5  A    between atoms: S_17  and  C_18
REMARK    6  A    between atoms: C_18  and  C_20
REMARK    7  A    between atoms: C_18  and  C_21
REMARK    8  A    between atoms: C_27  and  C_32
REMARK                            x       y       z     vdW  Elec       q    Type
REMARK                         _______ _______ _______ _____ _____    ______ ____
ROOT
ATOM      1  C   UNL     1       0.552  -8.357   2.268  0.00  0.00    +0.146 C 
ENDROOT
BRANCH   1   5
ATOM      2  N   UNL     1       0.057  -4.169  -0.021  0.00  0.00    -0.284 N 
ATOM      3  C   UNL     1       0.176  -4.865   1.167  0.00  0.00    +0.224 A 
ATOM      4  N   UNL     1       0.299  -6.190   1.153  0.00  0.00    -0.198 NA
ATOM      5  C   UNL     1       0.413  -6.856   2.288  0.00  0.00    +0.146 A 
ATOM      6  N   UNL     1       0.406  -6.211   3.441  0.00  0.00    -0.199 NA
ATOM      7  C   UNL     1       0.284  -4.886   3.463  0.00  0.00    +0.217 A 
ATOM      8  N   UNL     1       0.174  -4.211   2.323  0.00  0.00    -0.181 NA
ATOM      9  N   UNL     1       0.276  -4.212   4.667  0.00  0.00    -0.327 N 
ATOM     10  H   UNL     1      -0.022  -4.650  -0.859  0.00  0.00    +0.155 HD
ATOM     11  H   UNL     1       0.359  -4.705   5.499  0.00  0.00    +0.145 HD
ATOM     12  H   UNL     1       0.186  -3.246   4.683  0.00  0.00    +0.145 HD
BRANCH   2  17
ATOM     13  C   UNL     1       0.030   1.503   0.005  0.00  0.00    +0.044 C 
ATOM     14  C   UNL     1       0.037  -0.004  -0.002  0.00  0.00    -0.050 A 
ATOM     15  C   UNL     1       0.791  -0.694   0.929  0.00  0.00    +0.005 A 
ATOM     16  C   UNL     1       0.800  -2.075   0.926  0.00  0.00    +0.023 A 
ATOM     17  C   UNL     1       0.050  -2.771  -0.014  0.00  0.00    +0.034 A 
ATOM     18  C   UNL     1      -0.707  -2.074  -0.948  0.00  0.00    +0.023 A 
ATOM     19  C   UNL     1      -0.716  -0.693  -0.935  0.00  0.00    +0.005 A 
ENDBRANCH   2  17
ENDBRANCH   1   5
BRANCH   1  20
ATOM     20  S   UNL     1       2.309  -8.801   2.182  0.00  0.00    -0.142 S 
BRANCH  20  21
ATOM     21  C   UNL     1       2.302 -10.615   2.166  0.00  0.00    +0.110 C 
ATOM     22  C   UNL     1       1.631 -11.111   0.884  0.00  0.00    +0.027 C 
BRANCH  21  23
ATOM     23  C   UNL     1       3.720 -11.123   2.219  0.00  0.00    +0.124 A 
ATOM     24  N   UNL     1       3.994 -12.268   2.894  0.00  0.00    -0.309 N 
ATOM     25  H   UNL     1       3.273 -12.745   3.333  0.00  0.00    +0.170 HD
ATOM     26  C   UNL     1       5.247 -12.756   2.965  0.00  0.00    +0.260 A 
ATOM     27  O   UNL     1       5.476 -13.786   3.574  0.00  0.00    -0.267 OA
ATOM     28  C   UNL     1       6.305 -12.046   2.313  0.00  0.00    +0.083 A 
ATOM     29  C   UNL     1       7.727 -12.367   2.246  0.00  0.00    +0.039 A 
ATOM     30  C   UNL     1       8.550 -11.535   1.560  0.00  0.00    +0.059 A 
ATOM     31  S   UNL     1       7.451 -10.265   0.964  0.00  0.00    -0.076 S 
ATOM     32  C   UNL     1       5.927 -10.873   1.641  0.00  0.00    +0.116 A 
ATOM     33  N   UNL     1       4.664 -10.456   1.609  0.00  0.00    -0.225 NA
BRANCH  29  34
ATOM     34  C   UNL     1       8.259 -13.574   2.911  0.00  0.00    +0.136 A 
ATOM     35  C   UNL     1       9.067 -14.508   2.342  0.00  0.00    +0.050 A 
ATOM     36  C   UNL     1       9.328 -15.478   3.332  0.00  0.00    +0.042 A 
ATOM     37  C   UNL     1       8.673 -15.092   4.444  0.00  0.00    +0.196 A 
ATOM     38  O   UNL     1       8.032 -13.938   4.188  0.00  0.00    -0.463 OA
ENDBRANCH  29  34
ENDBRANCH  21  23
ENDBRANCH  20  21
ENDBRANCH   1  20
TORSDOF 6
