REMARK  Name = ZINC36217001
REMARK  14 active torsions:
REMARK  status: ('A' for Active; 'I' for Inactive)
REMARK    1  A    between atoms: C_1  and  C_2
REMARK    2  A    between atoms: C_2  and  C_3
REMARK    3  A    between atoms: C_3  and  C_4
REMARK    4  A    between atoms: N_6  and  C_7
REMARK    5  A    between atoms: C_10  and  C_13
REMARK    6  A    between atoms: C_15  and  C_29
REMARK    7  A    between atoms: N_17  and  C_21
REMARK    8  A    between atoms: C_21  and  C_22
REMARK    9  A    between atoms: C_25  and  C_28
REMARK   10  A    between atoms: N_31  and  C_32
REMARK   11  A    between atoms: C_32  and  C_33
REMARK   12  A    between atoms: C_33  and  N_34
REMARK   13  A    between atoms: N_34  and  C_35
REMARK   14  A    between atoms: N_34  and  C_36
REMARK                            x       y       z     vdW  Elec       q    Type
REMARK                         _______ _______ _______ _____ _____    ______ ____
ROOT
ATOM      1  C   UNL     1       1.239  -8.350   2.581  0.00  0.00    +0.238 C 
ATOM      2  C   UNL     1       2.623  -8.955   2.248  0.00  0.00    +0.210 C 
ATOM      3  N   UNL     1       2.710 -10.080   3.200  0.00  0.00    -0.248 N 
ATOM      4  C   UNL     1       1.753  -9.905   4.130  0.00  0.00    +0.405 C 
ATOM      5  O   UNL     1       1.550 -10.683   5.041  0.00  0.00    -0.226 OA
ATOM      6  O   UNL     1       1.044  -8.778   3.943  0.00  0.00    -0.440 OA
ENDROOT
BRANCH   1  10
ATOM      7  C   UNL     1       1.334  -4.085   2.320  0.00  0.00    +0.033 A 
ATOM      8  C   UNL     1       0.758  -4.832   1.301  0.00  0.00    +0.024 A 
ATOM      9  C   UNL     1       0.729  -6.210   1.388  0.00  0.00    +0.009 A 
ATOM     10  C   UNL     1       1.272  -6.846   2.489  0.00  0.00    -0.005 A 
ATOM     11  C   UNL     1       1.846  -6.106   3.506  0.00  0.00    +0.009 A 
ATOM     12  C   UNL     1       1.884  -4.728   3.422  0.00  0.00    +0.024 A 
BRANCH   7  15
ATOM     13  C   UNL     1       0.339  -2.026   1.666  0.00  0.00    +0.217 C 
ATOM     14  O   UNL     1      -0.571  -2.642   1.153  0.00  0.00    -0.275 OA
ATOM     15  N   UNL     1       1.365  -2.689   2.235  0.00  0.00    -0.285 N 
ATOM     16  H   UNL     1       2.125  -2.198   2.585  0.00  0.00    +0.155 HD
BRANCH  13  17
ATOM     17  C   UNL     1       0.323  -0.519   1.667  0.00  0.00    +0.096 C 
BRANCH  17  19
ATOM     18  C   UNL     1      -0.959   1.508   0.964  0.00  0.00    +0.004 C 
ATOM     19  C   UNL     1      -0.942  -0.022   0.963  0.00  0.00    +0.006 C 
ENDBRANCH  17  19
ENDBRANCH  13  17
ENDBRANCH   7  15
ENDBRANCH   1  10
BRANCH   2  20
ATOM     20  C   UNL     1       3.721  -7.952   2.494  0.00  0.00    +0.238 C 
ATOM     21  O   UNL     1       4.374  -8.006   3.514  0.00  0.00    -0.274 OA
ATOM     22  N   UNL     1       3.975  -6.994   1.581  0.00  0.00    -0.315 N 
ATOM     23  H   UNL     1       3.453  -6.950   0.765  0.00  0.00    +0.149 HD
BRANCH  22  24
ATOM     24  C   UNL     1       5.042  -6.019   1.820  0.00  0.00    +0.085 C 
BRANCH  24  25
ATOM     25  C   UNL     1       5.122  -5.050   0.639  0.00  0.00    -0.061 C 
BRANCH  25  26
ATOM     26  N   UNL     1       6.192  -4.072   0.879  0.00  0.00    +0.377 N 
ATOM     27  C   UNL     1       7.489  -4.761   0.905  0.00  0.00    -0.097 C 
ATOM     28  C   UNL     1       6.190  -3.071  -0.196  0.00  0.00    -0.097 C 
ATOM     29  H   UNL     1       6.036  -3.614   1.764  0.00  0.00    -0.083 HD
ENDBRANCH  25  26
ENDBRANCH  24  25
ENDBRANCH  22  24
ENDBRANCH   2  20
BRANCH   3  30
ATOM     30  C   UNL     1       3.667 -11.188   3.143  0.00  0.00    +0.147 C 
BRANCH  30  31
ATOM     31  C   UNL     1       4.905 -10.822   3.921  0.00  0.00    -0.030 A 
ATOM     32  C   UNL     1       5.955 -10.181   3.289  0.00  0.00    +0.005 A 
ATOM     33  C   UNL     1       7.090  -9.846   4.002  0.00  0.00    +0.003 A 
ATOM     34  C   UNL     1       7.176 -10.152   5.348  0.00  0.00    -0.050 A 
ATOM     35  C   UNL     1       6.127 -10.792   5.980  0.00  0.00    +0.003 A 
ATOM     36  C   UNL     1       4.990 -11.123   5.268  0.00  0.00    +0.005 A 
ATOM     37  C   UNL     1       8.415  -9.787   6.125  0.00  0.00    +0.044 C 
ENDBRANCH  30  31
ENDBRANCH   3  30
TORSDOF 10
