REMARK  Name = ZINC12481861
REMARK  8 active torsions:
REMARK  status: ('A' for Active; 'I' for Inactive)
REMARK    1  A    between atoms: C_1  and  O_2
REMARK    2  A    between atoms: O_2  and  C_3
REMARK    3  A    between atoms: C_8  and  N_9
REMARK    4  A    between atoms: C_15  and  C_17
REMARK    5  A    between atoms: C_17  and  C_18
REMARK    6  A    between atoms: C_23  and  C_25
REMARK    7  A    between atoms: C_25  and  C_26
REMARK    8  A    between atoms: C_28  and  C_31
REMARK                            x       y       z     vdW  Elec       q    Type
REMARK                         _______ _______ _______ _____ _____    ______ ____
ROOT
ATOM      1  C   UNL     1      -0.729   1.579   1.267  0.00  0.00    -0.002 C 
ATOM      2  C   UNL     1      -0.639   3.106   1.341  0.00  0.00    -0.015 C 
ATOM      3  C   UNL     1       0.832   3.519   1.451  0.00  0.00    -0.082 C 
ATOM      4  C   UNL     1       1.391   1.449   2.580  0.00  0.00    -0.079 C 
ATOM      5  C   UNL     1      -0.062   0.974   2.505  0.00  0.00    -0.019 C 
ATOM      6  N   UNL     1       1.429   2.922   2.661  0.00  0.00    +0.379 N 
ATOM      7  H   UNL     1       0.900   3.229   3.486  0.00  0.00    -0.086 HD
ATOM      8  H   UNL     1       2.404   3.231   2.744  0.00  0.00    -0.086 HD
ENDROOT
BRANCH   1   9
ATOM      9  C   UNL     1      -0.013   1.086   0.008  0.00  0.00    +0.099 C 
BRANCH   9  16
ATOM     10  N   UNL     1       0.025  -0.150  -4.819  0.00  0.00    -0.324 N 
ATOM     11  C   UNL     1      -1.242   0.551  -4.568  0.00  0.00    +0.124 C 
ATOM     12  C   UNL     1      -0.985   1.749  -3.648  0.00  0.00    +0.126 C 
ATOM     13  N   UNL     1      -0.288   1.272  -2.443  0.00  0.00    -0.298 N 
ATOM     14  C   UNL     1       0.919   0.450  -2.616  0.00  0.00    +0.126 C 
ATOM     15  C   UNL     1       0.584  -0.702  -3.577  0.00  0.00    +0.124 C 
ATOM     16  C   UNL     1      -0.742   1.585  -1.213  0.00  0.00    +0.216 C 
ATOM     17  O   UNL     1      -1.736   2.268  -1.088  0.00  0.00    -0.276 OA
BRANCH  10  23
ATOM     18  C   UNL     1       0.595  -1.107  -6.967  0.00  0.00    +0.141 A 
ATOM     19  C   UNL     1       0.429  -2.100  -7.918  0.00  0.00    +0.047 A 
ATOM     20  C   UNL     1      -0.462  -3.133  -7.692  0.00  0.00    +0.004 A 
ATOM     21  C   UNL     1      -1.190  -3.178  -6.517  0.00  0.00    +0.002 A 
ATOM     22  C   UNL     1      -1.027  -2.193  -5.561  0.00  0.00    +0.027 A 
ATOM     23  C   UNL     1      -0.139  -1.151  -5.783  0.00  0.00    +0.072 A 
BRANCH  18  25
ATOM     24  C   UNL     1       2.188  -0.109  -8.424  0.00  0.00    +0.277 C 
ATOM     25  O   UNL     1       1.471  -0.090  -7.189  0.00  0.00    -0.493 OA
ENDBRANCH  18  25
ENDBRANCH  10  23
ENDBRANCH   9  16
ENDBRANCH   1   9
BRANCH   5  26
ATOM     26  C   UNL     1      -0.096  -0.553   2.409  0.00  0.00    +0.061 C 
BRANCH  26  27
ATOM     27  C   UNL     1       0.449  -1.148   3.682  0.00  0.00    +0.084 A 
ATOM     28  C   UNL     1      -0.197  -2.081   4.519  0.00  0.00    +0.076 A 
ATOM     29  C   UNL     1       0.705  -2.299   5.525  0.00  0.00    +0.167 A 
ATOM     30  O   UNL     1       1.772  -1.529   5.244  0.00  0.00    -0.354 OA
ATOM     31  N   UNL     1       1.610  -0.906   4.220  0.00  0.00    -0.083 NA
BRANCH  29  32
ATOM     32  C   UNL     1       0.541  -3.198   6.686  0.00  0.00    +0.020 A 
ATOM     33  C   UNL     1      -0.636  -3.932   6.842  0.00  0.00    +0.014 A 
ATOM     34  C   UNL     1      -0.782  -4.775   7.924  0.00  0.00    +0.039 A 
ATOM     35  C   UNL     1       0.232  -4.885   8.862  0.00  0.00    +0.123 A 
ATOM     36  C   UNL     1       1.401  -4.154   8.715  0.00  0.00    +0.039 A 
ATOM     37  C   UNL     1       1.560  -3.313   7.633  0.00  0.00    +0.014 A 
ATOM     38  F   UNL     1       0.082  -5.707   9.923  0.00  0.00    -0.205 F 
ENDBRANCH  29  32
ENDBRANCH  26  27
ENDBRANCH   5  26
TORSDOF 7
