REMARK  Name = ZINC16838188
REMARK  12 active torsions:
REMARK  status: ('A' for Active; 'I' for Inactive)
REMARK    1  A    between atoms: C_1  and  N_2
REMARK    2  A    between atoms: C_10  and  C_12
REMARK    3  A    between atoms: C_12  and  C_14
REMARK    4  A    between atoms: C_12  and  N_68
REMARK    5  A    between atoms: C_14  and  N_15
REMARK    6  A    between atoms: C_16  and  C_18
REMARK    7  A    between atoms: C_20  and  O_28
REMARK    8  A    between atoms: C_21  and  O_26
REMARK    9  A    between atoms: C_22  and  O_24
REMARK   10  A    between atoms: O_24  and  C_25
REMARK   11  A    between atoms: O_26  and  C_27
REMARK   12  A    between atoms: O_28  and  C_29
REMARK                            x       y       z     vdW  Elec       q    Type
REMARK                         _______ _______ _______ _____ _____    ______ ____
ROOT
ATOM      1  C   UNL     1      -0.478   1.333  -1.158  0.00  0.00    -0.020 C 
ENDROOT
BRANCH   1  11
ATOM      2  C   UNL     1       3.754   0.686  -5.804  0.00  0.00    +0.129 C 
ATOM      3  N   UNL     1       2.325   0.412  -6.006  0.00  0.00    -0.333 N 
ATOM      4  C   UNL     1       2.124  -0.910  -6.602  0.00  0.00    +0.105 C 
ATOM      5  C   UNL     1       0.618  -1.151  -6.764  0.00  0.00    +0.024 C 
ATOM      6  C   UNL     1       0.009  -1.288  -5.367  0.00  0.00    +0.038 C 
ATOM      7  C   UNL     1       0.510  -0.174  -4.483  0.00  0.00    -0.026 A 
ATOM      8  C   UNL     1       1.609   0.595  -4.824  0.00  0.00    +0.033 A 
ATOM      9  C   UNL     1       2.032   1.607  -3.961  0.00  0.00    +0.023 A 
ATOM     10  C   UNL     1       1.356   1.847  -2.783  0.00  0.00    +0.004 A 
ATOM     11  C   UNL     1       0.260   1.075  -2.447  0.00  0.00    -0.059 A 
ATOM     12  C   UNL     1      -0.161   0.070  -3.296  0.00  0.00    +0.007 A 
ENDBRANCH   1  11
BRANCH   1  17
ATOM     13  C   UNL     1      -1.316   3.445  -2.034  0.00  0.00    -0.078 C 
ATOM     14  C   UNL     1      -1.770   4.784  -1.400  0.00  0.00    -0.020 C 
ATOM     15  C   UNL     1      -2.115   4.380   0.052  0.00  0.00    -0.020 C 
ATOM     16  C   UNL     1      -1.338   3.074   0.302  0.00  0.00    -0.078 C 
ATOM     17  N   UNL     1      -0.589   2.805  -0.926  0.00  0.00    +0.385 N 
ATOM     18  H   UNL     1       0.354   3.206  -0.853  0.00  0.00    -0.081 HD
ENDBRANCH   1  17
BRANCH   1  19
ATOM     19  C   UNL     1       0.279   0.684   0.002  0.00  0.00    +0.094 C 
BRANCH  19  20
ATOM     20  N   UNL     1       0.275  -0.771  -0.165  0.00  0.00    -0.313 N 
ATOM     21  C   UNL     1       0.802  -1.561   0.791  0.00  0.00    +0.244 C 
ATOM     22  O   UNL     1       1.282  -1.066   1.793  0.00  0.00    -0.270 OA
ATOM     23  H   UNL     1      -0.108  -1.167  -0.964  0.00  0.00    +0.149 HD
BRANCH  21  24
ATOM     24  C   UNL     1       0.797  -3.028   0.623  0.00  0.00    +0.044 A 
ATOM     25  C   UNL     1       0.241  -3.599  -0.525  0.00  0.00    +0.062 A 
ATOM     26  C   UNL     1       0.243  -4.972  -0.682  0.00  0.00    +0.166 A 
ATOM     27  C   UNL     1       0.787  -5.787   0.307  0.00  0.00    +0.204 A 
ATOM     28  C   UNL     1       1.338  -5.220   1.454  0.00  0.00    +0.166 A 
ATOM     29  C   UNL     1       1.344  -3.847   1.613  0.00  0.00    +0.062 A 
BRANCH  28  30
ATOM     30  O   UNL     1       1.869  -6.019   2.418  0.00  0.00    -0.491 OA
ATOM     31  C   UNL     1       2.417  -5.371   3.568  0.00  0.00    +0.277 C 
ENDBRANCH  28  30
BRANCH  27  32
ATOM     32  O   UNL     1       0.782  -7.137   0.152  0.00  0.00    -0.488 OA
ATOM     33  C   UNL     1      -0.354  -7.843   0.653  0.00  0.00    +0.277 C 
ENDBRANCH  27  32
BRANCH  26  34
ATOM     34  O   UNL     1      -0.294  -5.528  -1.801  0.00  0.00    -0.491 OA
ATOM     35  C   UNL     1      -0.835  -4.633  -2.775  0.00  0.00    +0.277 C 
ENDBRANCH  26  34
ENDBRANCH  21  24
ENDBRANCH  19  20
ENDBRANCH   1  19
TORSDOF 8
