REMARK  Name = ZINC00672943
REMARK  7 active torsions:
REMARK  status: ('A' for Active; 'I' for Inactive)
REMARK    1  A    between atoms: C_1  and  C_2
REMARK    2  A    between atoms: C_4  and  O_10
REMARK    3  A    between atoms: C_6  and  C_9
REMARK    4  A    between atoms: O_10  and  C_11
REMARK    5  A    between atoms: C_11  and  C_12
REMARK    6  A    between atoms: N_14  and  C_15
REMARK    7  A    between atoms: C_16  and  C_23
REMARK                            x       y       z     vdW  Elec       q    Type
REMARK                         _______ _______ _______ _____ _____    ______ ____
ROOT
ATOM      1  C   UNL     1      -0.742   1.585  -1.213  0.00  0.00    +0.255 C 
ATOM      2  O   UNL     1      -1.736   2.268  -1.088  0.00  0.00    -0.272 OA
ATOM      3  N   UNL     1      -0.288   1.272  -2.443  0.00  0.00    -0.276 N 
ATOM      4  H   UNL     1       0.507   0.726  -2.543  0.00  0.00    +0.155 HD
ENDROOT
BRANCH   3   5
ATOM      5  C   UNL     1      -0.960   1.732  -3.568  0.00  0.00    +0.090 A 
ATOM      6  C   UNL     1      -0.649   1.524  -4.899  0.00  0.00    +0.084 A 
ATOM      7  C   UNL     1      -1.529   2.121  -5.902  0.00  0.00    -0.018 A 
ATOM      8  C   UNL     1      -2.561   2.830  -5.407  0.00  0.00    -0.004 A 
ATOM      9  S   UNL     1      -2.385   2.712  -3.644  0.00  0.00    -0.077 S 
ATOM     10  C   UNL     1      -3.418   3.414  -6.497  0.00  0.00    +0.043 C 
ATOM     11  C   UNL     1      -3.034   2.617  -7.764  0.00  0.00    +0.010 C 
ATOM     12  C   UNL     1      -1.598   2.168  -7.429  0.00  0.00    +0.037 C 
BRANCH   6  13
ATOM     13  C   UNL     1       0.492   0.748  -5.282  0.00  0.00    +0.102 C 
ATOM     14  N   UNL     1       1.397   0.132  -5.586  0.00  0.00    -0.191 NA
ENDBRANCH   6  13
ENDBRANCH   3   5
BRANCH   1  15
ATOM     15  C   UNL     1      -0.013   1.086   0.008  0.00  0.00    +0.324 C 
BRANCH  15  16
ATOM     16  O   UNL     1      -0.682   1.547   1.184  0.00  0.00    -0.483 OA
BRANCH  16  20
ATOM     17  C   UNL     1      -0.854   1.670   6.060  0.00  0.00    +0.045 C 
ATOM     18  C   UNL     1      -0.204   1.223   4.776  0.00  0.00    -0.028 A 
ATOM     19  C   UNL     1      -0.747   1.595   3.561  0.00  0.00    +0.050 A 
ATOM     20  C   UNL     1      -0.149   1.182   2.380  0.00  0.00    +0.122 A 
ATOM     21  C   UNL     1       0.991   0.392   2.421  0.00  0.00    +0.050 A 
ATOM     22  C   UNL     1       1.534   0.027   3.637  0.00  0.00    -0.028 A 
ATOM     23  C   UNL     1       0.935   0.439   4.815  0.00  0.00    +0.047 A 
ATOM     24 CL   UNL     1       1.616  -0.027   6.342  0.00  0.00    -0.083 Cl
ATOM     25  C   UNL     1       2.775  -0.827   3.682  0.00  0.00    +0.045 C 
ENDBRANCH  16  20
ENDBRANCH  15  16
ENDBRANCH   1  15
TORSDOF 5
