REMARK  Name = ZINC59812503
REMARK  14 active torsions:
REMARK  status: ('A' for Active; 'I' for Inactive)
REMARK    1  A    between atoms: C_1  and  C_2
REMARK    2  A    between atoms: C_5  and  S_8
REMARK    3  A    between atoms: S_8  and  N_11
REMARK    4  A    between atoms: N_11  and  C_12
REMARK    5  A    between atoms: C_12  and  C_14
REMARK    6  A    between atoms: C_12  and  C_18
REMARK    7  A    between atoms: C_14  and  C_15
REMARK    8  A    between atoms: C_15  and  C_16
REMARK    9  A    between atoms: C_15  and  C_17
REMARK   10  A    between atoms: N_20  and  C_21
REMARK   11  A    between atoms: C_24  and  O_28
REMARK   12  A    between atoms: C_26  and  C_27
REMARK   13  A    between atoms: O_28  and  C_29
REMARK   14  A    between atoms: C_29  and  C_30
REMARK                            x       y       z     vdW  Elec       q    Type
REMARK                         _______ _______ _______ _____ _____    ______ ____
ROOT
ATOM      1  C   UNL     1       3.900  -4.183   0.606  0.00  0.00    +0.236 C 
ATOM      2  O   UNL     1       4.148  -3.988  -0.565  0.00  0.00    -0.274 OA
ATOM      3  N   UNL     1       4.878  -4.081   1.528  0.00  0.00    -0.284 N 
ATOM      4  H   UNL     1       4.696  -4.304   2.455  0.00  0.00    +0.155 HD
ENDROOT
BRANCH   3   5
ATOM      5  C   UNL     1       6.157  -3.653   1.149  0.00  0.00    +0.037 A 
ATOM      6  C   UNL     1       6.598  -3.851  -0.153  0.00  0.00    +0.027 A 
ATOM      7  C   UNL     1       7.858  -3.428  -0.526  0.00  0.00    +0.047 A 
ATOM      8  C   UNL     1       8.684  -2.807   0.399  0.00  0.00    +0.122 A 
ATOM      9  C   UNL     1       8.245  -2.610   1.700  0.00  0.00    +0.050 A 
ATOM     10  C   UNL     1       6.982  -3.026   2.073  0.00  0.00    -0.026 A 
ATOM     11  C   UNL     1       6.502  -2.806   3.484  0.00  0.00    +0.046 C 
BRANCH   8  12
ATOM     12  O   UNL     1       9.925  -2.392   0.031  0.00  0.00    -0.483 OA
BRANCH  12  13
ATOM     13  C   UNL     1      10.313  -2.627  -1.324  0.00  0.00    +0.324 C 
BRANCH  13  14
ATOM     14  C   UNL     1      11.709  -2.104  -1.546  0.00  0.00    +0.248 C 
ATOM     15  O   UNL     1      12.312  -1.580  -0.634  0.00  0.00    -0.272 OA
ATOM     16  N   UNL     1      12.286  -2.217  -2.759  0.00  0.00    -0.327 N 
ATOM     17  H   UNL     1      11.803  -2.636  -3.488  0.00  0.00    +0.145 HD
ATOM     18  H   UNL     1      13.184  -1.880  -2.901  0.00  0.00    +0.145 HD
ENDBRANCH  13  14
ENDBRANCH  12  13
ENDBRANCH   8  12
ENDBRANCH   3   5
BRANCH   1  19
ATOM     19  C   UNL     1       2.499  -4.540   1.030  0.00  0.00    +0.163 C 
BRANCH  19  20
ATOM     20  N   UNL     1       1.629  -4.587  -0.148  0.00  0.00    -0.178 NA
ATOM     21  H   UNL     1       1.580  -5.396  -0.682  0.00  0.00    +0.149 HD
BRANCH  20  22
ATOM     22  S   UNL     1       0.731  -3.261  -0.568  0.00  0.00    +0.059 S 
ATOM     23  O   UNL     1       0.024  -2.863   0.599  0.00  0.00    -0.153 OA
ATOM     24  O   UNL     1       0.071  -3.586  -1.784  0.00  0.00    -0.153 OA
BRANCH  22  29
ATOM     25  C   UNL     1       4.600   1.189  -1.842  0.00  0.00    +0.044 C 
ATOM     26  C   UNL     1       3.634   0.078  -1.524  0.00  0.00    -0.050 A 
ATOM     27  C   UNL     1       3.214  -0.780  -2.523  0.00  0.00    +0.005 A 
ATOM     28  C   UNL     1       2.328  -1.800  -2.231  0.00  0.00    +0.029 A 
ATOM     29  C   UNL     1       1.861  -1.962  -0.940  0.00  0.00    +0.105 A 
ATOM     30  C   UNL     1       2.282  -1.105   0.060  0.00  0.00    +0.029 A 
ATOM     31  C   UNL     1       3.172  -0.088  -0.231  0.00  0.00    +0.005 A 
ENDBRANCH  22  29
ENDBRANCH  20  22
ENDBRANCH  19  20
BRANCH  19  32
ATOM     32  C   UNL     1       2.506  -5.908   1.715  0.00  0.00    +0.032 C 
BRANCH  32  33
ATOM     33  C   UNL     1       1.093  -6.244   2.198  0.00  0.00    -0.015 C 
ATOM     34  C   UNL     1       1.075  -7.660   2.776  0.00  0.00    +0.007 C 
ATOM     35  C   UNL     1       0.674  -5.246   3.280  0.00  0.00    +0.007 C 
ENDBRANCH  32  33
ENDBRANCH  19  32
ENDBRANCH   1  19
TORSDOF 10
