REMARK  Name = ZINC03470256
REMARK  5 active torsions:
REMARK  status: ('A' for Active; 'I' for Inactive)
REMARK    1  A    between atoms: C_6  and  S_7
REMARK    2  A    between atoms: S_7  and  C_8
REMARK    3  A    between atoms: C_8  and  C_9
REMARK    4  A    between atoms: N_17  and  C_20
REMARK    5  A    between atoms: C_23  and  C_25
REMARK                            x       y       z     vdW  Elec       q    Type
REMARK                         _______ _______ _______ _____ _____    ______ ____
ROOT
ATOM      1  C   UNL     1       0.724  -8.161  -1.801  0.00  0.00    +0.061 A 
ATOM      2  C   UNL     1       0.114  -8.634  -0.688  0.00  0.00    +0.072 A 
ATOM      3  S   UNL     1      -0.296  -7.105   0.141  0.00  0.00    -0.060 S 
ATOM      4  C   UNL     1       0.366  -6.021  -1.042  0.00  0.00    +0.161 A 
ATOM      5  N   UNL     1       0.830  -6.854  -1.953  0.00  0.00    -0.229 NA
ATOM      6  N   UNL     1       0.394  -4.635  -1.034  0.00  0.00    -0.307 N 
ATOM      7  C   UNL     1      -0.245  -4.102   0.177  0.00  0.00    +0.126 C 
ATOM      8  C   UNL     1      -0.265  -2.573   0.110  0.00  0.00    +0.125 C 
ATOM      9  N   UNL     1       1.111  -2.073  -0.020  0.00  0.00    -0.313 N 
ATOM     10  C   UNL     1       1.749  -2.606  -1.232  0.00  0.00    +0.125 C 
ATOM     11  C   UNL     1       1.769  -4.135  -1.164  0.00  0.00    +0.126 C 
ENDROOT
BRANCH   9  12
ATOM     12  C   UNL     1       1.138  -0.683  -0.013  0.00  0.00    +0.118 A 
ATOM     13  C   UNL     1       1.792  -0.011   1.017  0.00  0.00    +0.079 A 
ATOM     14  C   UNL     1       1.812   1.372   1.012  0.00  0.00    +0.037 A 
ATOM     15  C   UNL     1       1.176   2.040  -0.027  0.00  0.00    +0.072 A 
ATOM     16  C   UNL     1       0.547   1.310  -1.015  0.00  0.00    +0.096 A 
ATOM     17 CL   UNL     1       2.571  -0.898   2.291  0.00  0.00    -0.080 Cl
ATOM     18  N   UNL     1       0.507  -0.049  -1.042  0.00  0.00    -0.348 N 
ATOM     19  H   UNL     1       0.031  -0.566  -1.791  0.00  0.00    +0.167 HD
BRANCH  15  20
ATOM     20  C   UNL     1       1.172   3.546  -0.074  0.00  0.00    +0.419 C 
ATOM     21  F   UNL     1       0.473   3.975  -1.207  0.00  0.00    -0.166 F 
ATOM     22  F   UNL     1       0.551   4.047   1.075  0.00  0.00    -0.166 F 
ATOM     23  F   UNL     1       2.489   4.014  -0.134  0.00  0.00    -0.166 F 
ENDBRANCH  15  20
ENDBRANCH   9  12
BRANCH   1  24
ATOM     24  C   UNL     1       1.263  -9.105  -2.845  0.00  0.00    +0.130 C 
BRANCH  24  25
ATOM     25  S   UNL     1      -0.027  -9.449  -4.073  0.00  0.00    -0.119 S 
BRANCH  25  31
ATOM     26  C   UNL     1       2.069 -10.935  -5.014  0.00  0.00    +0.016 A 
ATOM     27  C   UNL     1       2.672 -11.803  -5.903  0.00  0.00    +0.021 A 
ATOM     28  C   UNL     1       1.965 -12.282  -6.992  0.00  0.00    +0.041 A 
ATOM     29  C   UNL     1       0.651 -11.897  -7.191  0.00  0.00    +0.021 A 
ATOM     30  C   UNL     1       0.041 -11.034  -6.303  0.00  0.00    +0.016 A 
ATOM     31  C   UNL     1       0.748 -10.551  -5.208  0.00  0.00    +0.008 A 
ATOM     32 CL   UNL     1       2.729 -13.367  -8.111  0.00  0.00    -0.084 Cl
ENDBRANCH  25  31
ENDBRANCH  24  25
ENDBRANCH   1  24
TORSDOF 5
