REMARK  Name = ZINC10212625
REMARK  7 active torsions:
REMARK  status: ('A' for Active; 'I' for Inactive)
REMARK    1  A    between atoms: C_1  and  C_2
REMARK    2  A    between atoms: C_2  and  C_4
REMARK    3  A    between atoms: C_2  and  S_16
REMARK    4  A    between atoms: N_6  and  C_7
REMARK    5  A    between atoms: S_16  and  C_17
REMARK    6  A    between atoms: C_20  and  C_29
REMARK    7  A    between atoms: N_21  and  C_22
REMARK                            x       y       z     vdW  Elec       q    Type
REMARK                         _______ _______ _______ _____ _____    ______ ____
ROOT
ATOM      1  C   UNL     1       8.284  -2.928   5.503  0.00  0.00    +0.197 A 
ATOM      2  N   UNL     1       9.229  -2.104   5.109  0.00  0.00    -0.122 NA
ATOM      3  N   UNL     1      10.267  -2.232   5.855  0.00  0.00    -0.128 NA
ATOM      4  C   UNL     1      10.054  -3.152   6.768  0.00  0.00    +0.169 A 
ATOM      5  N   UNL     1       8.776  -3.627   6.571  0.00  0.00    -0.270 N 
ENDROOT
BRANCH   5   6
ATOM      6  C   UNL     1       8.117  -4.620   7.311  0.00  0.00    +0.051 A 
ATOM      7  C   UNL     1       7.762  -4.382   8.631  0.00  0.00    +0.029 A 
ATOM      8  C   UNL     1       7.108  -5.359   9.357  0.00  0.00    +0.040 A 
ATOM      9  C   UNL     1       6.817  -6.580   8.771  0.00  0.00    +0.124 A 
ATOM     10  C   UNL     1       7.176  -6.821   7.455  0.00  0.00    +0.040 A 
ATOM     11  C   UNL     1       7.825  -5.844   6.725  0.00  0.00    +0.029 A 
ATOM     12  F   UNL     1       6.182  -7.536   9.483  0.00  0.00    -0.205 F 
ENDBRANCH   5   6
BRANCH   4  13
ATOM     13  C   UNL     1      11.005  -3.594   7.809  0.00  0.00    +0.020 A 
ATOM     14  C   UNL     1      12.112  -2.805   8.128  0.00  0.00    +0.011 A 
ATOM     15  C   UNL     1      12.993  -3.221   9.104  0.00  0.00    +0.001 A 
ATOM     16  C   UNL     1      12.788  -4.423   9.759  0.00  0.00    +0.000 A 
ATOM     17  C   UNL     1      11.696  -5.212   9.444  0.00  0.00    +0.001 A 
ATOM     18  C   UNL     1      10.804  -4.805   8.473  0.00  0.00    +0.011 A 
ENDBRANCH   4  13
BRANCH   1  19
ATOM     19  S   UNL     1       6.684  -3.105   4.785  0.00  0.00    -0.073 S 
BRANCH  19  21
ATOM     20  C   UNL     1       7.860  -2.304   2.453  0.00  0.00    +0.029 C 
ATOM     21  C   UNL     1       6.795  -1.873   3.463  0.00  0.00    +0.137 C 
BRANCH  21  22
ATOM     22  C   UNL     1       5.462  -1.759   2.770  0.00  0.00    +0.230 C 
ATOM     23  O   UNL     1       4.651  -2.656   2.864  0.00  0.00    -0.274 OA
ATOM     24  N   UNL     1       5.171  -0.660   2.046  0.00  0.00    -0.284 N 
ATOM     25  H   UNL     1       5.846   0.023   1.909  0.00  0.00    +0.155 HD
BRANCH  24  26
ATOM     26  C   UNL     1       3.894  -0.504   1.491  0.00  0.00    +0.037 A 
ATOM     27  C   UNL     1       3.740   0.147   0.275  0.00  0.00    +0.027 A 
ATOM     28  C   UNL     1       2.481   0.301  -0.273  0.00  0.00    +0.051 A 
ATOM     29  C   UNL     1       1.369  -0.194   0.389  0.00  0.00    +0.166 A 
ATOM     30  C   UNL     1       1.521  -0.848   1.609  0.00  0.00    +0.168 A 
ATOM     31  C   UNL     1       2.783  -1.002   2.158  0.00  0.00    +0.072 A 
ATOM     32  O   UNL     1       0.289  -1.237   2.052  0.00  0.00    -0.453 OA
ATOM     33  C   UNL     1      -0.571  -1.177   0.899  0.00  0.00    +0.466 C 
ATOM     34  O   UNL     1       0.042  -0.173   0.067  0.00  0.00    -0.453 OA
ENDBRANCH  24  26
ENDBRANCH  21  22
ENDBRANCH  19  21
ENDBRANCH   1  19
TORSDOF 6
