REMARK  Name = ZINC50307204
REMARK  4 active torsions:
REMARK  status: ('A' for Active; 'I' for Inactive)
REMARK    1  A    between atoms: C_1  and  C_2
REMARK    2  A    between atoms: C_2  and  C_3
REMARK    3  A    between atoms: C_4  and  N_23
REMARK    4  A    between atoms: C_5  and  C_9
REMARK                            x       y       z     vdW  Elec       q    Type
REMARK                         _______ _______ _______ _____ _____    ______ ____
ROOT
ATOM      1  C   UNL     1      -4.631  -1.581  -1.333  0.00  0.00    +0.269 C 
ATOM      2  O   UNL     1      -4.675  -1.344  -2.525  0.00  0.00    -0.268 OA
ATOM      3  N   UNL     1      -5.691  -2.141  -0.718  0.00  0.00    -0.293 N 
ATOM      4  C   UNL     1      -5.723  -2.292   0.745  0.00  0.00    +0.108 C 
ATOM      5  C   UNL     1      -7.010  -1.662   1.286  0.00  0.00    +0.019 C 
ATOM      6  C   UNL     1      -8.220  -2.256   0.560  0.00  0.00    +0.007 C 
ATOM      7  C   UNL     1      -8.110  -1.952  -0.933  0.00  0.00    +0.010 C 
ATOM      8  C   UNL     1      -6.848  -2.611  -1.488  0.00  0.00    +0.079 C 
ATOM      9  C   UNL     1      -6.699  -2.238  -2.962  0.00  0.00    +0.023 C 
ATOM     10  C   UNL     1      -7.920  -2.750  -3.733  0.00  0.00    +0.002 C 
ATOM     11  C   UNL     1      -9.193  -2.124  -3.164  0.00  0.00    +0.000 C 
ATOM     12  C   UNL     1      -9.323  -2.494  -1.687  0.00  0.00    +0.005 C 
ENDROOT
BRANCH   1  15
ATOM     13  C   UNL     1      -1.425  -0.496   0.020  0.00  0.00    +0.057 A 
ATOM     14  C   UNL     1      -2.278  -0.557  -1.036  0.00  0.00    +0.078 A 
ATOM     15  C   UNL     1      -3.417  -1.256  -0.561  0.00  0.00    +0.168 A 
ATOM     16  N   UNL     1      -3.186  -1.561   0.702  0.00  0.00    -0.167 NA
ATOM     17  N   UNL     1      -2.029  -1.132   1.058  0.00  0.00    -0.279 N 
ATOM     18  H   UNL     1      -1.644  -1.244   1.941  0.00  0.00    +0.189 HD
BRANCH  14  19
ATOM     19  N   UNL     1      -2.075  -0.037  -2.323  0.00  0.00    -0.355 N 
ATOM     20  H   UNL     1      -1.250   0.426  -2.534  0.00  0.00    +0.142 HD
ATOM     21  H   UNL     1      -2.761  -0.141  -3.002  0.00  0.00    +0.142 HD
ENDBRANCH  14  19
BRANCH  13  23
ATOM     22  C   UNL     1      -0.208   1.641   0.336  0.00  0.00    +0.010 C 
ATOM     23  C   UNL     1      -0.062   0.148   0.036  0.00  0.00    +0.053 C 
ENDBRANCH  13  23
ENDBRANCH   1  15
TORSDOF 3
