REMARK  Name = ZINC20907009
REMARK  8 active torsions:
REMARK  status: ('A' for Active; 'I' for Inactive)
REMARK    1  A    between atoms: C_1  and  O_2
REMARK    2  A    between atoms: O_2  and  C_3
REMARK    3  A    between atoms: C_8  and  C_9
REMARK    4  A    between atoms: C_9  and  S_10
REMARK    5  A    between atoms: S_10  and  C_11
REMARK    6  A    between atoms: N_17  and  N_18
REMARK    7  A    between atoms: C_19  and  C_20
REMARK    8  A    between atoms: C_29  and  O_30
REMARK                            x       y       z     vdW  Elec       q    Type
REMARK                         _______ _______ _______ _____ _____    ______ ____
ROOT
ATOM      1  C   UNL     1      -2.247  -4.152   0.921  0.00  0.00    +0.191 A 
ATOM      2  N   UNL     1      -3.502  -4.668   1.072  0.00  0.00    -0.303 N 
ATOM      3  H   UNL     1      -4.240  -4.564   0.451  0.00  0.00    +0.171 HD
ATOM      4  C   UNL     1      -3.536  -5.359   2.252  0.00  0.00    +0.235 A 
ATOM      5  N   UNL     1      -2.351  -5.273   2.806  0.00  0.00    -0.111 NA
ATOM      6  N   UNL     1      -1.532  -4.512   1.961  0.00  0.00    -0.121 NA
ATOM      7  N   UNL     1      -4.632  -6.032   2.771  0.00  0.00    -0.205 N 
ATOM      8  H   UNL     1      -5.472  -6.039   2.285  0.00  0.00    +0.177 HD
ENDROOT
BRANCH   7   9
ATOM      9  N   UNL     1      -4.527  -6.702   3.997  0.00  0.00    -0.187 NA
ATOM     10  C   UNL     1      -5.554  -7.333   4.484  0.00  0.00    +0.142 C 
BRANCH  10  11
ATOM     11  C   UNL     1      -5.444  -8.035   5.770  0.00  0.00    +0.044 A 
ATOM     12  C   UNL     1      -6.587  -8.754   6.329  0.00  0.00    -0.006 A 
ATOM     13  C   UNL     1      -7.818  -8.800   5.664  0.00  0.00    +0.009 A 
ATOM     14  C   UNL     1      -8.859  -9.482   6.219  0.00  0.00    +0.001 A 
ATOM     15  C   UNL     1      -8.716 -10.135   7.441  0.00  0.00    +0.001 A 
ATOM     16  C   UNL     1      -7.533 -10.112   8.114  0.00  0.00    +0.008 A 
ATOM     17  C   UNL     1      -6.438  -9.418   7.571  0.00  0.00    -0.017 A 
ATOM     18  C   UNL     1      -5.200  -9.371   8.238  0.00  0.00    +0.012 A 
ATOM     19  C   UNL     1      -4.148  -8.697   7.704  0.00  0.00    +0.046 A 
ATOM     20  C   UNL     1      -4.244  -8.035   6.481  0.00  0.00    +0.126 A 
BRANCH  20  21
ATOM     21  O   UNL     1      -3.164  -7.379   5.982  0.00  0.00    -0.506 OA
ATOM     22  H   UNL     1      -3.102  -6.455   6.260  0.00  0.00    +0.292 HD
ENDBRANCH  20  21
ENDBRANCH  10  11
ENDBRANCH   7   9
BRANCH   1  23
ATOM     23  S   UNL     1      -1.683  -3.180  -0.435  0.00  0.00    -0.081 S 
BRANCH  23  24
ATOM     24  C   UNL     1       0.051  -2.828  -0.033  0.00  0.00    +0.116 C 
BRANCH  24  30
ATOM     25  C   UNL     1       0.606  -0.607  -1.056  0.00  0.00    +0.124 A 
ATOM     26  C   UNL     1       1.173   0.161  -2.063  0.00  0.00    +0.046 A 
ATOM     27  C   UNL     1       1.786  -0.455  -3.136  0.00  0.00    +0.004 A 
ATOM     28  C   UNL     1       1.836  -1.835  -3.208  0.00  0.00    +0.001 A 
ATOM     29  C   UNL     1       1.271  -2.602  -2.207  0.00  0.00    +0.008 A 
ATOM     30  C   UNL     1       0.661  -1.991  -1.128  0.00  0.00    +0.004 A 
BRANCH  25  32
ATOM     31  C   UNL     1      -0.017   1.425   0.010  0.00  0.00    +0.277 C 
ATOM     32  O   UNL     1       0.002  -0.004   0.002  0.00  0.00    -0.495 OA
ENDBRANCH  25  32
ENDBRANCH  24  30
ENDBRANCH  23  24
ENDBRANCH   1  23
TORSDOF 7
