REMARK  Name = ZINC33642151
REMARK  11 active torsions:
REMARK  status: ('A' for Active; 'I' for Inactive)
REMARK    1  A    between atoms: C_1  and  C_2
REMARK    2  A    between atoms: C_5  and  C_8
REMARK    3  A    between atoms: C_8  and  O_10
REMARK    4  A    between atoms: O_10  and  C_11
REMARK    5  A    between atoms: C_11  and  C_12
REMARK    6  A    between atoms: C_14  and  O_30
REMARK    7  A    between atoms: C_17  and  N_20
REMARK    8  A    between atoms: C_22  and  C_29
REMARK    9  A    between atoms: O_30  and  C_31
REMARK   10  A    between atoms: C_31  and  C_33
REMARK   11  A    between atoms: C_36  and  C_39
REMARK                            x       y       z     vdW  Elec       q    Type
REMARK                         _______ _______ _______ _____ _____    ______ ____
ROOT
ATOM      1  C   UNL     1       1.243  -2.009   0.701  0.00  0.00    +0.199 C 
ATOM      2  C   UNL     1       1.305  -0.646  -0.014  0.00  0.00    +0.213 C 
ATOM      3  C   UNL     1       1.718  -0.996  -1.464  0.00  0.00    +0.102 C 
ATOM      4  C   UNL     1       2.363  -2.395  -1.289  0.00  0.00    +0.227 C 
ATOM      5  O   UNL     1       1.543  -3.019  -0.277  0.00  0.00    -0.346 OA
ENDROOT
BRANCH   4   6
ATOM      6  N   UNL     1       2.304  -3.154  -2.541  0.00  0.00    -0.274 N 
ATOM      7  C   UNL     1       3.465  -3.560  -3.142  0.00  0.00    +0.101 A 
ATOM      8  C   UNL     1       3.410  -4.263  -4.293  0.00  0.00    +0.030 A 
ATOM      9  C   UNL     1       2.148  -4.558  -4.861  0.00  0.00    +0.257 A 
ATOM     10  O   UNL     1       2.074  -5.188  -5.901  0.00  0.00    -0.267 OA
ATOM     11  N   UNL     1       1.028  -4.135  -4.240  0.00  0.00    -0.275 N 
ATOM     12  H   UNL     1       0.041  -4.359  -4.673  0.00  0.00    +0.173 HD
ATOM     13  C   UNL     1       1.111  -3.440  -3.091  0.00  0.00    +0.331 A 
ATOM     14  O   UNL     1       0.092  -3.065  -2.543  0.00  0.00    -0.246 OA
ATOM     15  C   UNL     1       4.677  -4.724  -4.966  0.00  0.00    +0.051 C 
ENDBRANCH   4   6
BRANCH   1  16
ATOM     16  C   UNL     1      -0.160  -2.236   1.269  0.00  0.00    +0.267 C 
BRANCH  16  17
ATOM     17  O   UNL     1      -0.176  -3.466   2.041  0.00  0.00    -0.458 OA
BRANCH  17  18
ATOM     18  C   UNL     1      -1.345  -3.813   2.613  0.00  0.00    +0.339 C 
ATOM     19  O   UNL     1      -2.324  -3.108   2.471  0.00  0.00    -0.245 OA
BRANCH  18  24
ATOM     20  C   UNL     1      -1.703  -8.637   5.728  0.00  0.00    +0.044 C 
ATOM     21  C   UNL     1      -1.610  -7.374   4.912  0.00  0.00    -0.050 A 
ATOM     22  C   UNL     1      -2.727  -6.573   4.752  0.00  0.00    +0.004 A 
ATOM     23  C   UNL     1      -2.648  -5.415   4.007  0.00  0.00    +0.015 A 
ATOM     24  C   UNL     1      -1.437  -5.052   3.413  0.00  0.00    +0.059 A 
ATOM     25  C   UNL     1      -0.316  -5.868   3.573  0.00  0.00    +0.015 A 
ATOM     26  C   UNL     1      -0.407  -7.020   4.326  0.00  0.00    +0.004 A 
ENDBRANCH  18  24
ENDBRANCH  17  18
ENDBRANCH  16  17
ENDBRANCH   1  16
BRANCH   2  27
ATOM     27  O   UNL     1       0.002  -0.004   0.002  0.00  0.00    -0.455 OA
BRANCH  27  28
ATOM     28  C   UNL     1      -0.016   1.343   0.009  0.00  0.00    +0.340 C 
ATOM     29  O   UNL     1       1.027   1.964   0.003  0.00  0.00    -0.245 OA
BRANCH  28  30
ATOM     30  C   UNL     1      -1.305   2.064   0.019  0.00  0.00    +0.059 A 
ATOM     31  C   UNL     1      -2.507   1.353   0.015  0.00  0.00    +0.015 A 
ATOM     32  C   UNL     1      -3.707   2.032   0.030  0.00  0.00    +0.004 A 
ATOM     33  C   UNL     1      -3.722   3.416   0.038  0.00  0.00    -0.050 A 
ATOM     34  C   UNL     1      -2.535   4.127   0.037  0.00  0.00    +0.004 A 
ATOM     35  C   UNL     1      -1.328   3.460   0.027  0.00  0.00    +0.015 A 
ATOM     36  C   UNL     1      -5.037   4.152   0.047  0.00  0.00    +0.044 C 
ENDBRANCH  28  30
ENDBRANCH  27  28
ENDBRANCH   2  27
TORSDOF 8
