REMARK  Name = ZINC39938007
REMARK  7 active torsions:
REMARK  status: ('A' for Active; 'I' for Inactive)
REMARK    1  A    between atoms: C_1  and  C_2
REMARK    2  A    between atoms: C_5  and  C_16
REMARK    3  A    between atoms: C_6  and  C_15
REMARK    4  A    between atoms: N_20  and  C_30
REMARK    5  A    between atoms: N_22  and  C_23
REMARK    6  A    between atoms: C_30  and  C_31
REMARK    7  A    between atoms: C_31  and  C_32
REMARK                            x       y       z     vdW  Elec       q    Type
REMARK                         _______ _______ _______ _____ _____    ______ ____
ROOT
ATOM      1  C   UNL     1      -2.801  -1.661   1.633  0.00  0.00    +0.025 C 
ATOM      2  C   UNL     1      -2.835  -2.441   2.747  0.00  0.00    +0.078 C 
ATOM      3  C   UNL     1      -3.962  -3.197   3.326  0.00  0.00    +0.259 C 
ATOM      4  O   UNL     1      -5.065  -3.191   2.811  0.00  0.00    -0.269 OA
ATOM      5  N   UNL     1      -3.719  -3.884   4.430  0.00  0.00    -0.246 N 
ATOM      6  C   UNL     1      -2.464  -3.879   4.998  0.00  0.00    +0.168 C 
ATOM      7  N   UNL     1      -2.055  -4.499   6.082  0.00  0.00    -0.225 NA
ATOM      8  S   UNL     1      -1.525  -2.831   3.898  0.00  0.00    -0.049 S 
ENDROOT
BRANCH   1  12
ATOM      9  C   UNL     1       1.064  -1.252  -0.952  0.00  0.00    +0.032 C 
ATOM     10  C   UNL     1       0.626  -0.892   0.469  0.00  0.00    +0.096 C 
ATOM     11  C   UNL     1      -0.474  -1.819   0.916  0.00  0.00    +0.000 C 
ATOM     12  C   UNL     1      -1.571  -1.115   1.187  0.00  0.00    -0.028 C 
ATOM     13  C   UNL     1      -1.307   0.348   0.948  0.00  0.00    +0.102 C 
ATOM     14  N   UNL     1       0.088   0.474   0.495  0.00  0.00    -0.302 N 
ATOM     15  C   UNL     1       0.760   1.644   0.162  0.00  0.00    +0.122 A 
ATOM     16  C   UNL     1       2.136   1.614  -0.046  0.00  0.00    +0.044 A 
ATOM     17  C   UNL     1       2.792   2.786  -0.377  0.00  0.00    +0.005 A 
ATOM     18  C   UNL     1       2.047   3.953  -0.492  0.00  0.00    +0.020 A 
ATOM     19  C   UNL     1       0.685   3.910  -0.272  0.00  0.00    +0.113 A 
ATOM     20  N   UNL     1       0.085   2.776   0.038  0.00  0.00    -0.240 NA
ATOM     21  C   UNL     1      -1.506   1.132   2.246  0.00  0.00    +0.033 C 
ENDBRANCH   1  12
BRANCH   7  22
ATOM     22  C   UNL     1      -0.756  -4.373   6.494  0.00  0.00    +0.067 A 
ATOM     23  C   UNL     1       0.286  -4.471   5.569  0.00  0.00    +0.028 A 
ATOM     24  C   UNL     1       1.593  -4.343   5.991  0.00  0.00    +0.002 A 
ATOM     25  C   UNL     1       1.872  -4.117   7.327  0.00  0.00    +0.000 A 
ATOM     26  C   UNL     1       0.845  -4.018   8.249  0.00  0.00    +0.002 A 
ATOM     27  C   UNL     1      -0.467  -4.140   7.840  0.00  0.00    +0.028 A 
ENDBRANCH   7  22
BRANCH   5  28
ATOM     28  C   UNL     1      -4.795  -4.656   5.056  0.00  0.00    +0.120 C 
BRANCH  28  29
ATOM     29  C   UNL     1      -4.807  -6.074   4.480  0.00  0.00    +0.056 C 
BRANCH  29  30
ATOM     30  C   UNL     1      -5.914  -6.868   5.124  0.00  0.00    -0.021 A 
ATOM     31  C   UNL     1      -7.319  -6.898   4.710  0.00  0.00    +0.003 A 
ATOM     32  C   UNL     1      -8.044  -6.275   3.694  0.00  0.00    +0.010 A 
ATOM     33  C   UNL     1      -9.383  -6.518   3.569  0.00  0.00    +0.001 A 
ATOM     34  C   UNL     1     -10.028  -7.380   4.446  0.00  0.00    +0.002 A 
ATOM     35  C   UNL     1      -9.331  -8.005   5.457  0.00  0.00    +0.026 A 
ATOM     36  C   UNL     1      -7.968  -7.772   5.602  0.00  0.00    +0.047 A 
ATOM     37  N   UNL     1      -7.016  -8.232   6.485  0.00  0.00    -0.360 N 
ATOM     38  C   UNL     1      -5.798  -7.687   6.181  0.00  0.00    +0.087 A 
ATOM     39  H   UNL     1      -7.184  -8.852   7.211  0.00  0.00    +0.165 HD
ENDBRANCH  29  30
ENDBRANCH  28  29
ENDBRANCH   5  28
TORSDOF 5
