REMARK  Name = ZINC02331063
REMARK  6 active torsions:
REMARK  status: ('A' for Active; 'I' for Inactive)
REMARK    1  A    between atoms: C_1  and  O_2
REMARK    2  A    between atoms: O_2  and  C_3
REMARK    3  A    between atoms: C_7  and  C_10
REMARK    4  A    between atoms: C_8  and  O_9
REMARK    5  A    between atoms: N_11  and  N_12
REMARK    6  A    between atoms: C_13  and  C_15
REMARK                            x       y       z     vdW  Elec       q    Type
REMARK                         _______ _______ _______ _____ _____    ______ ____
ROOT
ATOM      1  C   UNL     1      -3.108  -3.626   0.605  0.00  0.00    +0.143 C 
ATOM      2  N   UNL     1      -2.875  -2.349   0.647  0.00  0.00    -0.187 NA
ENDROOT
BRANCH   1   7
ATOM      3  C   UNL     1      -5.960  -5.996   1.240  0.00  0.00    +0.163 A 
ATOM      4  C   UNL     1      -6.961  -5.112   1.613  0.00  0.00    +0.065 A 
ATOM      5  C   UNL     1      -6.710  -3.751   1.658  0.00  0.00    +0.036 A 
ATOM      6  C   UNL     1      -5.459  -3.262   1.337  0.00  0.00    +0.044 A 
ATOM      7  C   UNL     1      -4.443  -4.143   0.954  0.00  0.00    +0.055 A 
ATOM      8  C   UNL     1      -4.698  -5.519   0.909  0.00  0.00    +0.168 A 
ATOM      9 BR   UNL     1      -5.122  -1.403   1.409  0.00  0.00    -0.048 Br
ATOM     10 BR   UNL     1      -8.084  -2.557   2.169  0.00  0.00    -0.049 Br
BRANCH   3  12
ATOM     11  C   UNL     1      -7.534  -7.752   1.552  0.00  0.00    +0.277 C 
ATOM     12  O   UNL     1      -6.214  -7.332   1.199  0.00  0.00    -0.491 OA
ENDBRANCH   3  12
BRANCH   8  13
ATOM     13  O   UNL     1      -3.716  -6.384   0.544  0.00  0.00    -0.503 OA
ATOM     14  H   UNL     1      -3.182  -6.708   1.282  0.00  0.00    +0.292 HD
ENDBRANCH   8  13
ENDBRANCH   1   7
BRANCH   2  15
ATOM     15  N   UNL     1      -1.605  -1.858   0.315  0.00  0.00    -0.204 N 
ATOM     16  C   UNL     1      -1.363  -0.533   0.359  0.00  0.00    +0.276 C 
ATOM     17  O   UNL     1      -2.244   0.234   0.687  0.00  0.00    -0.270 OA
ATOM     18  H   UNL     1      -0.901  -2.471   0.053  0.00  0.00    +0.177 HD
BRANCH  16  19
ATOM     19  C   UNL     1       0.002  -0.004   0.002  0.00  0.00    +0.297 C 
ATOM     20  C   UNL     1       1.028  -0.476   1.041  0.00  0.00    +0.283 C 
ATOM     21  O   UNL     1       2.308   0.053   0.679  0.00  0.00    -0.484 OA
ATOM     22  C   UNL     1       2.351   1.370   0.338  0.00  0.00    +0.162 A 
ATOM     23  C   UNL     1       3.570   2.031   0.328  0.00  0.00    +0.049 A 
ATOM     24  C   UNL     1       3.630   3.368  -0.019  0.00  0.00    +0.004 A 
ATOM     25  C   UNL     1       2.475   4.049  -0.357  0.00  0.00    +0.004 A 
ATOM     26  C   UNL     1       1.257   3.397  -0.347  0.00  0.00    +0.049 A 
ATOM     27  C   UNL     1       1.190   2.056   0.002  0.00  0.00    +0.163 A 
ATOM     28  O   UNL     1      -0.017   1.427   0.010  0.00  0.00    -0.472 OA
ENDBRANCH  16  19
ENDBRANCH   2  15
TORSDOF 5
