REMARK  Name = ZINC09891854
REMARK  11 active torsions:
REMARK  status: ('A' for Active; 'I' for Inactive)
REMARK    1  A    between atoms: C_1  and  C_2
REMARK    2  A    between atoms: C_2  and  O_3
REMARK    3  A    between atoms: O_3  and  C_4
REMARK    4  A    between atoms: C_6  and  C_16
REMARK    5  A    between atoms: C_9  and  O_10
REMARK    6  A    between atoms: O_10  and  C_11
REMARK    7  A    between atoms: C_11  and  C_12
REMARK    8  A    between atoms: C_16  and  N_54
REMARK    9  A    between atoms: C_17  and  C_18
REMARK   10  A    between atoms: C_17  and  C_24
REMARK   11  A    between atoms: C_17  and  N_54
REMARK                            x       y       z     vdW  Elec       q    Type
REMARK                         _______ _______ _______ _____ _____    ______ ____
ROOT
ATOM      1  C   UNL     1       0.002  -0.004   0.002  0.00  0.00    +0.163 A 
ATOM      2  C   UNL     1      -0.017   1.382   0.010  0.00  0.00    +0.051 A 
ATOM      3  C   UNL     1       1.171   2.089   0.002  0.00  0.00    -0.060 A 
ATOM      4  C   UNL     1       2.379   1.418  -0.013  0.00  0.00    +0.021 A 
ATOM      5  C   UNL     1       2.405   0.035  -0.021  0.00  0.00    +0.063 A 
ATOM      6  C   UNL     1       1.218  -0.680  -0.013  0.00  0.00    +0.176 A 
ATOM      7 BR   UNL     1       4.060  -0.879  -0.041  0.00  0.00    -0.046 Br
ENDROOT
BRANCH   1   8
ATOM      8  O   UNL     1      -1.165  -0.701   0.009  0.00  0.00    -0.489 OA
BRANCH   8  10
ATOM      9  C   UNL     1      -3.575  -0.891   0.030  0.00  0.00    +0.048 C 
ATOM     10  C   UNL     1      -2.375   0.059   0.024  0.00  0.00    +0.226 C 
ENDBRANCH   8  10
ENDBRANCH   1   8
BRANCH   6  11
ATOM     11  O   UNL     1       1.241  -2.040  -0.020  0.00  0.00    -0.478 OA
BRANCH  11  12
ATOM     12  C   UNL     1       1.240  -2.682  -1.297  0.00  0.00    +0.324 C 
BRANCH  12  13
ATOM     13  C   UNL     1       1.268  -4.177  -1.107  0.00  0.00    +0.248 C 
ATOM     14  O   UNL     1       1.287  -4.646   0.011  0.00  0.00    -0.272 OA
ATOM     15  N   UNL     1       1.272  -4.993  -2.180  0.00  0.00    -0.327 N 
ATOM     16  H   UNL     1       1.256  -4.617  -3.075  0.00  0.00    +0.145 HD
ATOM     17  H   UNL     1       1.289  -5.955  -2.058  0.00  0.00    +0.145 HD
ENDBRANCH  12  13
ENDBRANCH  11  12
ENDBRANCH   6  11
BRANCH   3  18
ATOM     18  C   UNL     1       1.148   3.596   0.010  0.00  0.00    -0.045 C 
BRANCH  18  19
ATOM     19  N   UNL     1       1.154   4.072   1.406  0.00  0.00    +0.389 N 
ATOM     20  H   UNL     1       2.002   3.734   1.876  0.00  0.00    -0.084 HD
ATOM     21  H   UNL     1       0.325   3.709   1.891  0.00  0.00    -0.084 HD
BRANCH  19  22
ATOM     22  C   UNL     1       1.131   5.547   1.444  0.00  0.00    -0.010 C 
BRANCH  22  23
ATOM     23  C   UNL     1      -0.292   6.031   1.349  0.00  0.00    -0.057 A 
ATOM     24  C   UNL     1      -1.298   5.357   2.017  0.00  0.00    +0.002 A 
ATOM     25  C   UNL     1      -2.603   5.804   1.934  0.00  0.00    +0.000 A 
ATOM     26  C   UNL     1      -2.905   6.920   1.175  0.00  0.00    +0.000 A 
ATOM     27  C   UNL     1      -1.900   7.591   0.503  0.00  0.00    +0.000 A 
ATOM     28  C   UNL     1      -0.594   7.147   0.591  0.00  0.00    +0.002 A 
ENDBRANCH  22  23
BRANCH  22  29
ATOM     29  C   UNL     1       1.737   6.017   2.741  0.00  0.00    -0.057 A 
ATOM     30  C   UNL     1       1.461   5.345   3.917  0.00  0.00    +0.002 A 
ATOM     31  C   UNL     1       2.020   5.773   5.106  0.00  0.00    +0.000 A 
ATOM     32  C   UNL     1       2.847   6.880   5.122  0.00  0.00    +0.000 A 
ATOM     33  C   UNL     1       3.119   7.556   3.947  0.00  0.00    +0.000 A 
ATOM     34  C   UNL     1       2.564   7.125   2.757  0.00  0.00    +0.002 A 
ENDBRANCH  22  29
ENDBRANCH  19  22
ENDBRANCH  18  19
ENDBRANCH   3  18
TORSDOF 10
