REMARK  Name = ZINC40008644
REMARK  12 active torsions:
REMARK  status: ('A' for Active; 'I' for Inactive)
REMARK    1  A    between atoms: C_1  and  C_2
REMARK    2  A    between atoms: C_2  and  N_3
REMARK    3  A    between atoms: N_3  and  C_4
REMARK    4  A    between atoms: N_3  and  C_6
REMARK    5  A    between atoms: C_4  and  C_5
REMARK    6  A    between atoms: C_6  and  C_7
REMARK    7  A    between atoms: C_7  and  C_8
REMARK    8  A    between atoms: C_8  and  N_9
REMARK    9  A    between atoms: C_10  and  C_26
REMARK   10  A    between atoms: C_29  and  C_32
REMARK   11  A    between atoms: C_32  and  C_33
REMARK   12  A    between atoms: C_32  and  C_34
REMARK                            x       y       z     vdW  Elec       q    Type
REMARK                         _______ _______ _______ _____ _____    ______ ____
ROOT
ATOM      1  N   UNL     1       2.123  -4.549  -3.838  0.00  0.00    -0.284 N 
ATOM      2  C   UNL     1       1.655  -4.681  -5.228  0.00  0.00    +0.144 C 
ATOM      3  C   UNL     1       2.820  -5.201  -6.003  0.00  0.00    +0.072 A 
ATOM      4  C   UNL     1       2.963  -5.540  -7.423  0.00  0.00    +0.199 A 
ATOM      5  O   UNL     1       2.123  -5.268  -8.261  0.00  0.00    -0.287 OA
ATOM      6  C   UNL     1       4.230  -6.247  -7.740  0.00  0.00    +0.065 A 
ATOM      7  C   UNL     1       4.426  -6.811  -9.001  0.00  0.00    +0.030 A 
ATOM      8  C   UNL     1       5.605  -7.468  -9.277  0.00  0.00    +0.019 A 
ATOM      9  C   UNL     1       6.591  -7.566  -8.303  0.00  0.00    +0.019 A 
ATOM     10  C   UNL     1       6.409  -7.011  -7.057  0.00  0.00    +0.048 A 
ATOM     11  C   UNL     1       5.225  -6.339  -6.753  0.00  0.00    +0.140 A 
ATOM     12  O   UNL     1       5.075  -5.795  -5.524  0.00  0.00    -0.450 OA
ATOM     13  C   UNL     1       3.865  -5.348  -5.135  0.00  0.00    +0.199 A 
ATOM     14  C   UNL     1       3.414  -4.935  -3.795  0.00  0.00    +0.283 C 
ATOM     15  O   UNL     1       4.105  -4.943  -2.795  0.00  0.00    -0.267 OA
ATOM     16 BR   UNL     1       5.882  -8.236 -10.982  0.00  0.00    -0.050 Br
ENDROOT
BRANCH   2  17
ATOM     17  C   UNL     1       1.229  -3.338  -5.763  0.00  0.00    -0.022 A 
ATOM     18  C   UNL     1       1.969  -2.209  -5.464  0.00  0.00    +0.006 A 
ATOM     19  C   UNL     1       1.579  -0.978  -5.955  0.00  0.00    +0.004 A 
ATOM     20  C   UNL     1       0.450  -0.875  -6.745  0.00  0.00    -0.045 A 
ATOM     21  C   UNL     1      -0.290  -2.003  -7.045  0.00  0.00    +0.004 A 
ATOM     22  C   UNL     1       0.103  -3.236  -6.558  0.00  0.00    +0.006 A 
BRANCH  20  23
ATOM     23  C   UNL     1       0.024   0.469  -7.280  0.00  0.00    +0.013 C 
ATOM     24  C   UNL     1       0.014   0.429  -8.809  0.00  0.00    +0.012 C 
ATOM     25  C   UNL     1      -1.380   0.799  -6.769  0.00  0.00    +0.012 C 
ENDBRANCH  20  23
ENDBRANCH   2  17
BRANCH   1  26
ATOM     26  C   UNL     1       1.327  -4.075  -2.703  0.00  0.00    +0.107 C 
BRANCH  26  27
ATOM     27  C   UNL     1       1.465  -2.556  -2.583  0.00  0.00    +0.000 C 
BRANCH  27  28
ATOM     28  C   UNL     1       0.634  -2.062  -1.397  0.00  0.00    -0.077 C 
BRANCH  28  29
ATOM     29  N   UNL     1       0.862  -0.623  -1.205  0.00  0.00    +0.379 N 
ATOM     30  H   UNL     1       1.851  -0.450  -1.106  0.00  0.00    -0.082 HD
BRANCH  29  32
ATOM     31  C   UNL     1       0.699   1.596  -2.227  0.00  0.00    -0.017 C 
ATOM     32  C   UNL     1       0.350   0.113  -2.369  0.00  0.00    -0.082 C 
ENDBRANCH  29  32
BRANCH  29  33
ATOM     33  C   UNL     1       0.162  -0.173   0.005  0.00  0.00    -0.082 C 
ATOM     34  C   UNL     1       0.801  -0.822   1.235  0.00  0.00    -0.017 C 
ENDBRANCH  29  33
ENDBRANCH  28  29
ENDBRANCH  27  28
ENDBRANCH  26  27
ENDBRANCH   1  26
TORSDOF 8
