REMARK  Name = ZINC20704230
REMARK  5 active torsions:
REMARK  status: ('A' for Active; 'I' for Inactive)
REMARK    1  A    between atoms: C_1  and  C_2
REMARK    2  A    between atoms: N_5  and  S_8
REMARK    3  A    between atoms: S_8  and  C_11
REMARK    4  A    between atoms: C_24  and  C_27
REMARK    5  A    between atoms: C_31  and  N_33
REMARK                            x       y       z     vdW  Elec       q    Type
REMARK                         _______ _______ _______ _____ _____    ______ ____
ROOT
ATOM      1  C   UNL     1      -1.996   2.809  -0.146  0.00  0.00    +0.106 A 
ATOM      2  C   UNL     1      -1.005   1.845  -0.178  0.00  0.00    +0.030 A 
ATOM      3  C   UNL     1       0.322   2.226  -0.150  0.00  0.00    +0.025 A 
ATOM      4  C   UNL     1       0.657   3.573  -0.086  0.00  0.00    +0.031 A 
ATOM      5  C   UNL     1      -0.333   4.543  -0.050  0.00  0.00    -0.018 A 
ATOM      6  C   UNL     1      -1.663   4.147  -0.077  0.00  0.00    +0.034 A 
ATOM      7  C   UNL     1      -0.020   6.004   0.015  0.00  0.00    +0.049 C 
ATOM      8  C   UNL     1      -0.268   6.561   1.397  0.00  0.00    -0.023 C 
ATOM      9  C   UNL     1       0.630   7.470   1.688  0.00  0.00    -0.030 C 
ATOM     10  C   UNL     1       1.599   7.647   0.534  0.00  0.00    +0.033 C 
ATOM     11  C   UNL     1       1.465   6.313  -0.257  0.00  0.00    +0.029 C 
ATOM     12  C   UNL     1       2.351   5.278   0.442  0.00  0.00    +0.105 C 
ATOM     13  N   UNL     1       2.006   3.943  -0.057  0.00  0.00    -0.336 N 
ATOM     14  H   UNL     1       2.799   3.260  -0.396  0.00  0.00    +0.147 HD
ENDROOT
BRANCH  12  15
ATOM     15  C   UNL     1       2.118   5.337   1.930  0.00  0.00    -0.025 A 
ATOM     16  C   UNL     1       1.134   4.556   2.506  0.00  0.00    +0.007 A 
ATOM     17  C   UNL     1       0.919   4.609   3.870  0.00  0.00    +0.022 A 
ATOM     18  C   UNL     1       1.691   5.445   4.660  0.00  0.00    +0.071 A 
ATOM     19  C   UNL     1       2.675   6.226   4.082  0.00  0.00    +0.145 A 
ATOM     20  C   UNL     1       2.893   6.167   2.718  0.00  0.00    +0.039 A 
ATOM     21 CL   UNL     1       1.423   5.512   6.373  0.00  0.00    -0.081 Cl
BRANCH  19  22
ATOM     22  N   UNL     1       3.501   7.119   4.925  0.00  0.00    +0.058 N 
ATOM     23  O   UNL     1       4.368   7.807   4.417  0.00  0.00    -0.126 OA
ATOM     24  O   UNL     1       3.313   7.167   6.128  0.00  0.00    -0.126 OA
ENDBRANCH  19  22
ENDBRANCH  12  15
BRANCH   1  25
ATOM     25  S   UNL     1      -3.690   2.328  -0.188  0.00  0.00    +0.061 S 
ATOM     26  O   UNL     1      -4.415   3.438  -0.698  0.00  0.00    -0.153 OA
ATOM     27  O   UNL     1      -3.733   1.045  -0.797  0.00  0.00    -0.153 OA
BRANCH  25  32
ATOM     28  C   UNL     1      -3.226   2.222   5.527  0.00  0.00    +0.007 C 
ATOM     29  C   UNL     1      -3.974   2.064   4.201  0.00  0.00    -0.012 C 
ATOM     30  C   UNL     1      -3.968   3.398   3.451  0.00  0.00    +0.020 C 
ATOM     31  C   UNL     1      -4.747   3.245   2.140  0.00  0.00    +0.110 C 
ATOM     32  N   UNL     1      -4.180   2.123   1.381  0.00  0.00    -0.177 NA
ATOM     33  C   UNL     1      -4.060   0.814   2.038  0.00  0.00    +0.110 C 
ATOM     34  C   UNL     1      -3.284   0.996   3.351  0.00  0.00    +0.020 C 
ENDBRANCH  25  32
ENDBRANCH   1  25
TORSDOF 4
