REMARK  Name = ZINC40315233
REMARK  17 active torsions:
REMARK  status: ('A' for Active; 'I' for Inactive)
REMARK    1  A    between atoms: C_1  and  C_2
REMARK    2  A    between atoms: C_6  and  O_9
REMARK    3  A    between atoms: C_7  and  C_8
REMARK    4  A    between atoms: O_9  and  C_10
REMARK    5  A    between atoms: C_10  and  C_11
REMARK    6  A    between atoms: C_11  and  C_13
REMARK    7  A    between atoms: C_11  and  O_36
REMARK    8  A    between atoms: C_13  and  N_14
REMARK    9  A    between atoms: N_14  and  C_15
REMARK   10  A    between atoms: N_14  and  C_28
REMARK   11  A    between atoms: C_15  and  C_16
REMARK   12  A    between atoms: C_18  and  O_26
REMARK   13  A    between atoms: C_19  and  O_24
REMARK   14  A    between atoms: C_20  and  O_22
REMARK   15  A    between atoms: O_22  and  C_23
REMARK   16  A    between atoms: O_24  and  C_25
REMARK   17  A    between atoms: O_26  and  C_27
REMARK                            x       y       z     vdW  Elec       q    Type
REMARK                         _______ _______ _______ _____ _____    ______ ____
ROOT
ATOM      1  N   UNL     1      -1.317  -7.637   4.738  0.00  0.00    +0.387 N 
ATOM      2  H   UNL     1      -1.713  -8.385   5.287  0.00  0.00    -0.081 HD
ENDROOT
BRANCH   1   3
ATOM      3  C   UNL     1      -1.427  -6.374   5.480  0.00  0.00    -0.045 C 
ATOM      4  C   UNL     1      -1.230  -6.635   6.983  0.00  0.00    +0.009 C 
ATOM      5  C   UNL     1      -1.656  -5.389   7.795  0.00  0.00    +0.164 C 
ATOM      6  S   UNL     1      -2.929  -4.618   6.715  0.00  0.00    -0.033 S 
ATOM      7  O   UNL     1      -2.475  -3.334   6.309  0.00  0.00    -0.174 OA
ATOM      8  O   UNL     1      -4.201  -4.746   7.335  0.00  0.00    -0.174 OA
ATOM      9  C   UNL     1      -2.845  -5.767   5.277  0.00  0.00    +0.151 C 
ENDBRANCH   1   3
BRANCH   1  10
ATOM     10  C   UNL     1      -2.046  -7.524   3.468  0.00  0.00    -0.043 C 
BRANCH  10  11
ATOM     11  C   UNL     1      -2.876  -8.788   3.242  0.00  0.00    +0.135 C 
BRANCH  11  12
ATOM     12  O   UNL     1      -3.694  -9.032   4.388  0.00  0.00    -0.390 OA
ATOM     13  H   UNL     1      -4.370  -8.358   4.539  0.00  0.00    +0.210 HD
ENDBRANCH  11  12
BRANCH  11  14
ATOM     14  C   UNL     1      -3.766  -8.601   2.011  0.00  0.00    +0.258 C 
BRANCH  14  15
ATOM     15  O   UNL     1      -4.455  -9.822   1.731  0.00  0.00    -0.489 OA
BRANCH  15  21
ATOM     16  C   UNL     1      -7.605 -12.229  -1.115  0.00  0.00    +0.044 C 
ATOM     17  C   UNL     1      -6.844 -10.979  -0.757  0.00  0.00    -0.044 A 
ATOM     18  C   UNL     1      -6.997  -9.835  -1.518  0.00  0.00    +0.004 A 
ATOM     19  C   UNL     1      -6.301  -8.686  -1.191  0.00  0.00    +0.004 A 
ATOM     20  C   UNL     1      -5.448  -8.679  -0.104  0.00  0.00    +0.046 A 
ATOM     21  C   UNL     1      -5.292  -9.826   0.661  0.00  0.00    +0.124 A 
ATOM     22  C   UNL     1      -5.997 -10.976   0.335  0.00  0.00    -0.006 A 
ATOM     23  C   UNL     1      -5.835 -12.221   1.168  0.00  0.00    +0.048 C 
ENDBRANCH  15  21
ENDBRANCH  14  15
ENDBRANCH  11  14
ENDBRANCH  10  11
ENDBRANCH   1  10
BRANCH   1  24
ATOM     24  C   UNL     1       0.098  -7.924   4.467  0.00  0.00    -0.042 C 
BRANCH  24  25
ATOM     25  C   UNL     1       0.784  -8.324   5.748  0.00  0.00    -0.057 A 
ATOM     26  C   UNL     1       2.132  -8.069   5.917  0.00  0.00    +0.051 A 
ATOM     27  C   UNL     1       2.767  -8.436   7.094  0.00  0.00    +0.165 A 
ATOM     28  C   UNL     1       2.046  -9.060   8.105  0.00  0.00    +0.204 A 
ATOM     29  C   UNL     1       0.690  -9.314   7.931  0.00  0.00    +0.165 A 
ATOM     30  C   UNL     1       0.062  -8.940   6.753  0.00  0.00    +0.051 A 
BRANCH  29  31
ATOM     31  O   UNL     1      -0.020  -9.925   8.917  0.00  0.00    -0.491 OA
ATOM     32  C   UNL     1      -1.408 -10.155   8.670  0.00  0.00    +0.277 C 
ENDBRANCH  29  31
BRANCH  28  33
ATOM     33  O   UNL     1       2.665  -9.422   9.261  0.00  0.00    -0.488 OA
ATOM     34  C   UNL     1       2.683  -8.459  10.316  0.00  0.00    +0.277 C 
ENDBRANCH  28  33
BRANCH  27  35
ATOM     35  O   UNL     1       4.093  -8.185   7.259  0.00  0.00    -0.491 OA
ATOM     36  C   UNL     1       4.771  -7.541   6.178  0.00  0.00    +0.277 C 
ENDBRANCH  27  35
ENDBRANCH  24  25
ENDBRANCH   1  24
TORSDOF 12
