REMARK  Name = ZINC38766727
REMARK  11 active torsions:
REMARK  status: ('A' for Active; 'I' for Inactive)
REMARK    1  A    between atoms: C_1  and  C_2
REMARK    2  A    between atoms: C_5  and  C_32
REMARK    3  A    between atoms: C_6  and  C_8
REMARK    4  A    between atoms: C_8  and  O_9
REMARK    5  A    between atoms: O_9  and  C_10
REMARK    6  A    between atoms: C_13  and  C_17
REMARK    7  A    between atoms: C_14  and  O_16
REMARK    8  A    between atoms: C_19  and  O_23
REMARK    9  A    between atoms: O_23  and  C_24
REMARK   10  A    between atoms: C_27  and  O_30
REMARK   11  A    between atoms: O_30  and  C_31
REMARK                            x       y       z     vdW  Elec       q    Type
REMARK                         _______ _______ _______ _____ _____    ______ ____
ROOT
ATOM      1  C   UNL     1      -0.465  -1.862   4.752  0.00  0.00    +0.124 A 
ATOM      2  C   UNL     1      -0.255  -3.232   4.824  0.00  0.00    +0.046 A 
ATOM      3  C   UNL     1      -0.070  -3.841   6.050  0.00  0.00    +0.013 A 
ATOM      4  C   UNL     1      -0.093  -3.088   7.208  0.00  0.00    +0.025 A 
ATOM      5  C   UNL     1      -0.302  -1.718   7.142  0.00  0.00    +0.126 A 
ATOM      6  C   UNL     1      -0.482  -1.103   5.912  0.00  0.00    +0.091 A 
ENDROOT
BRANCH   4   7
ATOM      7  C   UNL     1       0.109  -3.755   8.544  0.00  0.00    +0.199 C 
ATOM      8  C   UNL     1      -1.225  -4.147   9.157  0.00  0.00    +0.153 C 
ATOM      9  C   UNL     1      -1.147  -5.489   9.258  0.00  0.00    +0.176 C 
ATOM     10  N   UNL     1       0.029  -5.931   8.797  0.00  0.00    -0.182 NA
ATOM     11  N   UNL     1       0.792  -5.050   8.383  0.00  0.00    -0.294 N 
ATOM     12  H   UNL     1       1.680  -5.186   8.017  0.00  0.00    +0.184 HD
BRANCH   8  13
ATOM     13  O   UNL     1      -2.247  -3.341   9.516  0.00  0.00    -0.456 OA
BRANCH  13  14
ATOM     14  C   UNL     1      -2.049  -2.481  10.550  0.00  0.00    +0.128 A 
ATOM     15  C   UNL     1      -3.031  -1.559  10.883  0.00  0.00    +0.050 A 
ATOM     16  C   UNL     1      -2.829  -0.685  11.934  0.00  0.00    +0.049 A 
ATOM     17  C   UNL     1      -1.645  -0.729  12.655  0.00  0.00    +0.120 A 
ATOM     18  C   UNL     1      -0.663  -1.651  12.322  0.00  0.00    +0.049 A 
ATOM     19  C   UNL     1      -0.867  -2.529  11.275  0.00  0.00    +0.050 A 
BRANCH  17  20
ATOM     20  O   UNL     1      -1.447   0.131  13.689  0.00  0.00    -0.495 OA
ATOM     21  C   UNL     1      -0.204   0.030  14.388  0.00  0.00    +0.277 C 
ENDBRANCH  17  20
ENDBRANCH  13  14
ENDBRANCH   8  13
ENDBRANCH   4   7
BRANCH   5  22
ATOM     22  O   UNL     1      -0.325  -0.978   8.282  0.00  0.00    -0.506 OA
ATOM     23  H   UNL     1       0.540  -0.633   8.545  0.00  0.00    +0.292 HD
ENDBRANCH   5  22
BRANCH   1  24
ATOM     24  O   UNL     1      -0.647  -1.264   3.546  0.00  0.00    -0.487 OA
BRANCH  24  25
ATOM     25  C   UNL     1      -0.617  -2.107   2.392  0.00  0.00    +0.264 C 
BRANCH  25  31
ATOM     26  C   UNL     1      -1.434   2.342   0.252  0.00  0.00    +0.044 C 
ATOM     27  C   UNL     1      -1.227   0.854   0.132  0.00  0.00    -0.050 A 
ATOM     28  C   UNL     1      -1.238   0.253  -1.113  0.00  0.00    +0.003 A 
ATOM     29  C   UNL     1      -1.048  -1.111  -1.224  0.00  0.00    +0.004 A 
ATOM     30  C   UNL     1      -0.847  -1.875  -0.089  0.00  0.00    -0.044 A 
ATOM     31  C   UNL     1      -0.835  -1.274   1.156  0.00  0.00    -0.007 A 
ATOM     32  C   UNL     1      -1.021   0.091   1.266  0.00  0.00    +0.010 A 
ATOM     33  C   UNL     1      -0.641  -3.363  -0.209  0.00  0.00    +0.044 C 
ENDBRANCH  25  31
ENDBRANCH  24  25
ENDBRANCH   1  24
TORSDOF 8
