REMARK  Name = ZINC36498040
REMARK  18 active torsions:
REMARK  status: ('A' for Active; 'I' for Inactive)
REMARK    1  A    between atoms: C_1  and  C_2
REMARK    2  A    between atoms: C_2  and  C_3
REMARK    3  A    between atoms: C_2  and  C_4
REMARK    4  A    between atoms: C_2  and  C_5
REMARK    5  A    between atoms: C_5  and  C_6
REMARK    6  A    between atoms: C_6  and  C_7
REMARK    7  A    between atoms: C_6  and  C_8
REMARK    8  A    between atoms: C_6  and  N_9
REMARK    9  A    between atoms: C_10  and  C_12
REMARK   10  A    between atoms: C_12  and  C_14
REMARK   11  A    between atoms: C_12  and  N_23
REMARK   12  A    between atoms: C_17  and  O_22
REMARK   13  A    between atoms: C_18  and  O_20
REMARK   14  A    between atoms: O_20  and  C_21
REMARK   15  A    between atoms: N_23  and  C_24
REMARK   16  A    between atoms: C_24  and  C_25
REMARK   17  A    between atoms: C_30  and  C_32
REMARK   18  A    between atoms: C_37  and  O_38
REMARK                            x       y       z     vdW  Elec       q    Type
REMARK                         _______ _______ _______ _____ _____    ______ ____
ROOT
ATOM      1  C   UNL     1       5.463   0.084  -4.280  0.00  0.00    +0.193 C 
ENDROOT
BRANCH   1   2
ATOM      2  C   UNL     1       5.418  -1.333  -4.792  0.00  0.00    -0.015 A 
ATOM      3  C   UNL     1       6.215  -2.302  -4.212  0.00  0.00    +0.010 A 
ATOM      4  C   UNL     1       6.176  -3.603  -4.678  0.00  0.00    +0.049 A 
ATOM      5  C   UNL     1       5.337  -3.938  -5.729  0.00  0.00    +0.158 A 
ATOM      6  C   UNL     1       4.535  -2.962  -6.312  0.00  0.00    +0.162 A 
ATOM      7  C   UNL     1       4.574  -1.661  -5.837  0.00  0.00    +0.055 A 
BRANCH   6   8
ATOM      8  O   UNL     1       3.710  -3.286  -7.343  0.00  0.00    -0.491 OA
ATOM      9  C   UNL     1       2.790  -2.283  -7.778  0.00  0.00    +0.277 C 
ENDBRANCH   6   8
BRANCH   5  10
ATOM     10  O   UNL     1       5.299  -5.217  -6.189  0.00  0.00    -0.503 OA
ATOM     11  H   UNL     1       4.643  -5.774  -5.747  0.00  0.00    +0.292 HD
ENDBRANCH   5  10
ENDBRANCH   1   2
BRANCH   1  13
ATOM     12  N   UNL     1       3.094  -0.006  -3.575  0.00  0.00    -0.308 N 
ATOM     13  C   UNL     1       4.372   0.285  -3.260  0.00  0.00    +0.239 C 
ATOM     14  O   UNL     1       4.644   0.709  -2.157  0.00  0.00    -0.273 OA
ATOM     15  H   UNL     1       2.886  -0.413  -4.430  0.00  0.00    +0.149 HD
BRANCH  12  16
ATOM     16  C   UNL     1       2.020   0.292  -2.624  0.00  0.00    +0.030 C 
ATOM     17  C   UNL     1       2.190   1.716  -2.092  0.00  0.00    +0.031 C 
ATOM     18  C   UNL     1       2.080  -0.699  -1.460  0.00  0.00    +0.031 C 
BRANCH  16  19
ATOM     19  C   UNL     1       0.667   0.169  -3.329  0.00  0.00    +0.031 C 
BRANCH  19  21
ATOM     20  C   UNL     1       1.441  -0.010  -5.697  0.00  0.00    +0.010 C 
ATOM     21  C   UNL     1       0.729   0.884  -4.680  0.00  0.00    -0.036 C 
ATOM     22  C   UNL     1       1.500   2.197  -4.527  0.00  0.00    +0.010 C 
ATOM     23  C   UNL     1      -0.691   1.179  -5.166  0.00  0.00    +0.010 C 
ENDBRANCH  19  21
ENDBRANCH  16  19
ENDBRANCH  12  16
ENDBRANCH   1  13
BRANCH   1  24
ATOM     24  N   UNL     1       6.766   0.337  -3.658  0.00  0.00    -0.275 N 
ATOM     25  C   UNL     1       7.867   0.460  -4.425  0.00  0.00    +0.251 C 
ATOM     26  O   UNL     1       8.912   0.838  -3.932  0.00  0.00    -0.270 OA
BRANCH  25  27
ATOM     27  C   UNL     1       7.804   0.136  -5.863  0.00  0.00    +0.078 A 
ATOM     28  C   UNL     1       6.581  -0.184  -6.458  0.00  0.00    +0.017 A 
ATOM     29  C   UNL     1       6.529  -0.485  -7.802  0.00  0.00    +0.001 A 
ATOM     30  C   UNL     1       7.684  -0.473  -8.566  0.00  0.00    +0.004 A 
ATOM     31  C   UNL     1       8.899  -0.158  -7.991  0.00  0.00    +0.046 A 
ATOM     32  C   UNL     1       8.969   0.153  -6.641  0.00  0.00    +0.129 A 
BRANCH  32  33
ATOM     33  O   UNL     1      10.161   0.467  -6.075  0.00  0.00    -0.506 OA
ATOM     34  H   UNL     1      10.644  -0.294  -5.725  0.00  0.00    +0.292 HD
ENDBRANCH  32  33
ENDBRANCH  25  27
BRANCH  24  35
ATOM     35  C   UNL     1       6.871   0.455  -2.201  0.00  0.00    +0.183 C 
BRANCH  35  36
ATOM     36  C   UNL     1       6.933   1.911  -1.819  0.00  0.00    +0.122 A 
ATOM     37  C   UNL     1       5.876   2.720  -1.628  0.00  0.00    +0.046 A 
ATOM     38  C   UNL     1       6.390   3.992  -1.285  0.00  0.00    +0.041 A 
ATOM     39  C   UNL     1       7.731   3.884  -1.286  0.00  0.00    +0.195 A 
ATOM     40  O   UNL     1       8.054   2.620  -1.604  0.00  0.00    -0.466 OA
ENDBRANCH  35  36
ENDBRANCH  24  35
ENDBRANCH   1  24
TORSDOF 12
