REMARK  Name = ZINC45520907
REMARK  8 active torsions:
REMARK  status: ('A' for Active; 'I' for Inactive)
REMARK    1  A    between atoms: C_3  and  N_14
REMARK    2  A    between atoms: C_6  and  C_7
REMARK    3  A    between atoms: C_15  and  C_17
REMARK    4  A    between atoms: C_18  and  C_19
REMARK    5  A    between atoms: C_22  and  O_29
REMARK    6  A    between atoms: C_24  and  O_25
REMARK    7  A    between atoms: O_25  and  C_26
REMARK    8  A    between atoms: O_29  and  C_30
REMARK                            x       y       z     vdW  Elec       q    Type
REMARK                         _______ _______ _______ _____ _____    ______ ____
ROOT
ATOM      1  N   UNL     1       3.530   2.584  -0.427  0.00  0.00    -0.282 N 
ATOM      2  C   UNL     1       4.784   2.155  -0.184  0.00  0.00    +0.241 C 
ATOM      3  O   UNL     1       4.972   1.025   0.228  0.00  0.00    -0.270 OA
ATOM      4  H   UNL     1       3.375   3.503  -0.696  0.00  0.00    +0.155 HD
ENDROOT
BRANCH   1   7
ATOM      5  C   UNL     1       1.393  -0.102   0.869  0.00  0.00    +0.015 A 
ATOM      6  C   UNL     1       2.453   0.765   0.732  0.00  0.00    +0.024 A 
ATOM      7  C   UNL     1       2.455   1.708  -0.292  0.00  0.00    +0.034 A 
ATOM      8  C   UNL     1       1.386   1.777  -1.180  0.00  0.00    +0.024 A 
ATOM      9  C   UNL     1       0.323   0.913  -1.048  0.00  0.00    +0.015 A 
ATOM     10  C   UNL     1       0.318  -0.035  -0.021  0.00  0.00    +0.037 A 
BRANCH  10  11
ATOM     11  C   UNL     1      -0.821  -0.963   0.123  0.00  0.00    +0.247 C 
ATOM     12  O   UNL     1      -0.760  -1.881   0.917  0.00  0.00    -0.270 OA
ATOM     13  N   UNL     1      -1.928  -0.792  -0.626  0.00  0.00    -0.298 N 
ATOM     14  C   UNL     1      -2.092   0.199  -1.700  0.00  0.00    +0.108 C 
ATOM     15  C   UNL     1      -3.525   0.043  -2.253  0.00  0.00    +0.020 C 
ATOM     16  C   UNL     1      -4.276  -0.643  -1.082  0.00  0.00    +0.020 C 
ATOM     17  C   UNL     1      -3.174  -1.572  -0.509  0.00  0.00    +0.108 C 
ENDBRANCH  10  11
ENDBRANCH   1   7
BRANCH   2  18
ATOM     18  C   UNL     1       5.885   3.020  -0.408  0.00  0.00    +0.068 C 
ATOM     19  C   UNL     1       7.143   2.590  -0.164  0.00  0.00    +0.016 C 
BRANCH  19  20
ATOM     20  C   UNL     1       8.282   3.485  -0.395  0.00  0.00    +0.017 A 
ATOM     21  C   UNL     1       8.069   4.788  -0.863  0.00  0.00    +0.015 A 
ATOM     22  C   UNL     1       9.131   5.619  -1.078  0.00  0.00    +0.046 A 
ATOM     23  C   UNL     1      10.429   5.180  -0.835  0.00  0.00    +0.130 A 
ATOM     24  C   UNL     1      10.659   3.893  -0.371  0.00  0.00    +0.092 A 
ATOM     25  C   UNL     1       9.592   3.041  -0.143  0.00  0.00    +0.137 A 
BRANCH  25  26
ATOM     26  O   UNL     1       9.809   1.783   0.317  0.00  0.00    -0.434 OA
BRANCH  26  27
ATOM     27  C   UNL     1      11.167   1.403   0.550  0.00  0.00    +0.541 C 
ATOM     28  F   UNL     1      11.889   1.497  -0.644  0.00  0.00    -0.166 F 
ATOM     29  F   UNL     1      11.732   2.255   1.505  0.00  0.00    -0.166 F 
ENDBRANCH  26  27
ENDBRANCH  25  26
BRANCH  23  30
ATOM     30  O   UNL     1      11.477   6.016  -1.052  0.00  0.00    -0.434 OA
BRANCH  30  31
ATOM     31  C   UNL     1      11.171   7.328  -1.530  0.00  0.00    +0.541 C 
ATOM     32  F   UNL     1      10.504   7.234  -2.756  0.00  0.00    -0.166 F 
ATOM     33  F   UNL     1      10.354   7.983  -0.603  0.00  0.00    -0.166 F 
ENDBRANCH  30  31
ENDBRANCH  23  30
ENDBRANCH  19  20
ENDBRANCH   2  18
TORSDOF 8
