REMARK  Name = ZINC53915105
REMARK  6 active torsions:
REMARK  status: ('A' for Active; 'I' for Inactive)
REMARK    1  A    between atoms: C_1  and  N_2
REMARK    2  A    between atoms: N_2  and  C_3
REMARK    3  A    between atoms: C_3  and  C_4
REMARK    4  A    between atoms: C_9  and  O_10
REMARK    5  A    between atoms: C_11  and  C_13
REMARK    6  A    between atoms: C_13  and  C_14
REMARK                            x       y       z     vdW  Elec       q    Type
REMARK                         _______ _______ _______ _____ _____    ______ ____
ROOT
ATOM      1  C   UNL     1      -0.018   1.461   0.010  0.00  0.00    +0.132 C 
ATOM      2  N   UNL     1       0.002  -0.004   0.002  0.00  0.00    -0.300 N 
ATOM      3  C   UNL     1       0.000  -0.672  -1.169  0.00  0.00    +0.220 C 
ATOM      4  O   UNL     1       0.017  -1.884  -1.175  0.00  0.00    -0.275 OA
ENDROOT
BRANCH   2   5
ATOM      5  C   UNL     1       0.024  -0.743   1.267  0.00  0.00    +0.146 C 
BRANCH   5   6
ATOM      6  C   UNL     1      -1.389  -1.016   1.714  0.00  0.00    +0.011 A 
ATOM      7  C   UNL     1      -1.975  -0.219   2.678  0.00  0.00    +0.009 A 
ATOM      8  C   UNL     1      -3.271  -0.469   3.089  0.00  0.00    +0.001 A 
ATOM      9  C   UNL     1      -3.984  -1.517   2.536  0.00  0.00    +0.004 A 
ATOM     10  C   UNL     1      -3.403  -2.317   1.572  0.00  0.00    +0.046 A 
ATOM     11  C   UNL     1      -2.104  -2.064   1.154  0.00  0.00    +0.122 A 
BRANCH  11  12
ATOM     12  O   UNL     1      -1.532  -2.846   0.201  0.00  0.00    -0.506 OA
ATOM     13  H   UNL     1      -1.062  -3.615   0.553  0.00  0.00    +0.292 HD
ENDBRANCH  11  12
ENDBRANCH   5   6
ENDBRANCH   2   5
BRANCH   3  14
ATOM     14  C   UNL     1      -0.023   0.089  -2.470  0.00  0.00    +0.131 C 
BRANCH  14  15
ATOM     15  C   UNL     1      -0.020  -0.884  -3.620  0.00  0.00    -0.034 A 
ATOM     16  C   UNL     1       1.180  -1.317  -4.155  0.00  0.00    +0.053 A 
ATOM     17  C   UNL     1       1.179  -2.212  -5.211  0.00  0.00    +0.164 A 
ATOM     18  C   UNL     1      -0.022  -2.671  -5.732  0.00  0.00    +0.180 A 
ATOM     19  C   UNL     1      -1.223  -2.236  -5.195  0.00  0.00    +0.086 A 
ATOM     20  C   UNL     1      -1.217  -1.345  -4.135  0.00  0.00    +0.028 A 
ATOM     21 CL   UNL     1      -2.727  -2.809  -5.845  0.00  0.00    -0.080 Cl
ATOM     22  O   UNL     1      -0.013  -3.553  -6.774  0.00  0.00    -0.487 OA
ATOM     23  C   UNL     1       0.453  -3.040  -8.023  0.00  0.00    +0.232 C 
ATOM     24  C   UNL     1       1.971  -3.104  -8.100  0.00  0.00    +0.082 C 
ATOM     25  C   UNL     1       2.641  -2.203  -7.075  0.00  0.00    +0.232 C 
ATOM     26  O   UNL     1       2.356  -2.648  -5.747  0.00  0.00    -0.488 OA
ENDBRANCH  14  15
ENDBRANCH   3  14
TORSDOF 5
