REMARK  Name = ZINC01787361
REMARK  8 active torsions:
REMARK  status: ('A' for Active; 'I' for Inactive)
REMARK    1  A    between atoms: C_4  and  C_7
REMARK    2  A    between atoms: C_7  and  C_8
REMARK    3  A    between atoms: C_8  and  N_9
REMARK    4  A    between atoms: C_21  and  C_22
REMARK    5  A    between atoms: C_22  and  S_23
REMARK    6  A    between atoms: S_23  and  C_24
REMARK    7  A    between atoms: N_26  and  C_27
REMARK    8  A    between atoms: N_26  and  C_33
REMARK                            x       y       z     vdW  Elec       q    Type
REMARK                         _______ _______ _______ _____ _____    ______ ____
ROOT
ATOM      1  N   UNL     1       5.745  -2.000   2.067  0.00  0.00    -0.276 N 
ATOM      2  C   UNL     1       5.804  -3.343   2.057  0.00  0.00    +0.264 A 
ATOM      3  O   UNL     1       4.784  -4.000   2.152  0.00  0.00    -0.267 OA
ATOM      4  C   UNL     1       7.115  -4.020   1.927  0.00  0.00    +0.074 A 
ATOM      5  C   UNL     1       7.390  -5.456   1.899  0.00  0.00    -0.023 A 
ATOM      6  C   UNL     1       8.692  -5.782   1.771  0.00  0.00    -0.004 A 
ATOM      7  S   UNL     1       9.536  -4.229   1.689  0.00  0.00    -0.075 S 
ATOM      8  C   UNL     1       8.229  -3.194   1.821  0.00  0.00    +0.102 A 
ATOM      9  N   UNL     1       8.111  -1.824   1.837  0.00  0.00    -0.257 N 
ATOM     10  C   UNL     1       6.886  -1.231   1.954  0.00  0.00    +0.240 A 
ATOM     11  N   UNL     1       7.085   0.067   1.935  0.00  0.00    -0.110 NA
ATOM     12  N   UNL     1       8.340   0.314   1.810  0.00  0.00    -0.131 NA
ATOM     13  C   UNL     1       9.014  -0.801   1.753  0.00  0.00    +0.150 A 
ATOM     14  C   UNL     1       9.275  -7.160   1.714  0.00  0.00    +0.043 C 
ATOM     15  C   UNL     1       8.210  -8.153   2.203  0.00  0.00    +0.005 C 
ATOM     16  C   UNL     1       6.887  -7.850   1.492  0.00  0.00    +0.005 C 
ATOM     17  C   UNL     1       6.313  -6.526   2.002  0.00  0.00    +0.037 C 
ENDROOT
BRANCH   1  18
ATOM     18  C   UNL     1       4.444  -1.340   2.196  0.00  0.00    +0.133 C 
BRANCH  18  19
ATOM     19  C   UNL     1       3.849  -1.111   0.805  0.00  0.00    +0.057 C 
BRANCH  19  23
ATOM     20  C   UNL     1       0.054   0.815   1.177  0.00  0.00    +0.000 A 
ATOM     21  C   UNL     1       1.205   1.572   1.064  0.00  0.00    +0.000 A 
ATOM     22  C   UNL     1       2.433   0.949   0.944  0.00  0.00    +0.004 A 
ATOM     23  C   UNL     1       2.510  -0.431   0.937  0.00  0.00    -0.046 A 
ATOM     24  C   UNL     1       1.359  -1.188   1.050  0.00  0.00    +0.004 A 
ATOM     25  C   UNL     1       0.131  -0.565   1.169  0.00  0.00    +0.000 A 
ENDBRANCH  19  23
ENDBRANCH  18  19
ENDBRANCH   1  18
BRANCH  13  26
ATOM     26  C   UNL     1      10.508  -0.937   1.606  0.00  0.00    +0.155 C 
BRANCH  26  27
ATOM     27  S   UNL     1      10.940  -0.984  -0.155  0.00  0.00    -0.059 S 
BRANCH  27  28
ATOM     28  C   UNL     1      12.695  -1.143  -0.159  0.00  0.00    +0.283 C 
ATOM     29  O   UNL     1      13.303  -1.193   0.893  0.00  0.00    -0.262 OA
ATOM     30  N   UNL     1      13.363  -1.208  -1.327  0.00  0.00    -0.231 N 
BRANCH  30  31
ATOM     31  C   UNL     1      14.763  -1.245  -1.333  0.00  0.00    +0.042 A 
ATOM     32  C   UNL     1      15.432  -2.344  -0.810  0.00  0.00    +0.024 A 
ATOM     33  C   UNL     1      16.813  -2.377  -0.816  0.00  0.00    +0.002 A 
ATOM     34  C   UNL     1      17.529  -1.317  -1.342  0.00  0.00    +0.000 A 
ATOM     35  C   UNL     1      16.865  -0.221  -1.863  0.00  0.00    +0.002 A 
ATOM     36  C   UNL     1      15.485  -0.185  -1.865  0.00  0.00    +0.024 A 
ENDBRANCH  30  31
BRANCH  30  37
ATOM     37  C   UNL     1      12.658  -1.240  -2.537  0.00  0.00    +0.042 A 
ATOM     38  C   UNL     1      11.937  -0.128  -2.951  0.00  0.00    +0.024 A 
ATOM     39  C   UNL     1      11.242  -0.162  -4.144  0.00  0.00    +0.002 A 
ATOM     40  C   UNL     1      11.263  -1.303  -4.925  0.00  0.00    +0.000 A 
ATOM     41  C   UNL     1      11.979  -2.412  -4.515  0.00  0.00    +0.002 A 
ATOM     42  C   UNL     1      12.682  -2.382  -3.326  0.00  0.00    +0.024 A 
ENDBRANCH  30  37
ENDBRANCH  27  28
ENDBRANCH  26  27
ENDBRANCH  13  26
TORSDOF 8
