REMARK  Name = ZINC09252813
REMARK  5 active torsions:
REMARK  status: ('A' for Active; 'I' for Inactive)
REMARK    1  A    between atoms: C_4  and  C_7
REMARK    2  A    between atoms: C_7  and  C_9
REMARK    3  A    between atoms: C_7  and  N_16
REMARK    4  A    between atoms: C_17  and  C_19
REMARK    5  A    between atoms: C_19  and  N_20
REMARK                            x       y       z     vdW  Elec       q    Type
REMARK                         _______ _______ _______ _____ _____    ______ ____
ROOT
ATOM      1  N   UNL     1       0.393   1.768   6.907  0.00  0.00    -0.303 N 
ATOM      2  C   UNL     1       0.001   1.887   5.623  0.00  0.00    +0.232 C 
ATOM      3  O   UNL     1      -1.173   2.043   5.359  0.00  0.00    -0.274 OA
ATOM      4  H   UNL     1       1.331   1.642   7.118  0.00  0.00    +0.150 HD
ENDROOT
BRANCH   1   5
ATOM      5  C   UNL     1      -0.599   1.828   7.984  0.00  0.00    +0.134 C 
BRANCH   5   6
ATOM      6  C   UNL     1      -0.075   1.091   9.190  0.00  0.00    -0.023 A 
ATOM      7  C   UNL     1       1.257   1.202   9.542  0.00  0.00    +0.007 A 
ATOM      8  C   UNL     1       1.736   0.531  10.652  0.00  0.00    +0.020 A 
ATOM      9  C   UNL     1       0.885  -0.260  11.403  0.00  0.00    +0.041 A 
ATOM     10  C   UNL     1      -0.447  -0.374  11.047  0.00  0.00    +0.020 A 
ATOM     11  C   UNL     1      -0.926   0.302   9.940  0.00  0.00    +0.007 A 
ATOM     12 CL   UNL     1       1.488  -1.107  12.793  0.00  0.00    -0.084 Cl
ENDBRANCH   5   6
BRANCH   5  16
ATOM     13  C   UNL     1      -1.336   5.907   9.015  0.00  0.00    +0.000 A 
ATOM     14  C   UNL     1      -2.384   5.007   8.964  0.00  0.00    +0.000 A 
ATOM     15  C   UNL     1      -2.145   3.687   8.630  0.00  0.00    +0.006 A 
ATOM     16  C   UNL     1      -0.859   3.267   8.348  0.00  0.00    -0.023 A 
ATOM     17  C   UNL     1       0.190   4.166   8.405  0.00  0.00    +0.006 A 
ATOM     18  C   UNL     1      -0.049   5.487   8.734  0.00  0.00    +0.000 A 
ENDBRANCH   5  16
ENDBRANCH   1   5
BRANCH   2  19
ATOM     19  C   UNL     1       1.020   1.825   4.515  0.00  0.00    +0.213 C 
BRANCH  19  20
ATOM     20  N   UNL     1       0.347   1.978   3.223  0.00  0.00    -0.215 N 
ATOM     21  C   UNL     1      -0.135   0.952   2.493  0.00  0.00    +0.251 C 
ATOM     22  O   UNL     1      -0.096  -0.228   2.770  0.00  0.00    -0.272 OA
ATOM     23  C   UNL     1      -0.734   1.581   1.255  0.00  0.00    +0.138 C 
ATOM     24  C   UNL     1      -0.013   1.086   0.008  0.00  0.00    +0.040 C 
ATOM     25  C   UNL     1      -0.763   1.598  -1.228  0.00  0.00    +0.008 C 
ATOM     26  C   UNL     1      -2.107   0.877  -1.311  0.00  0.00    +0.035 C 
ATOM     27  C   UNL     1      -2.844   0.972  -0.001  0.00  0.00    -0.042 A 
ATOM     28  C   UNL     1      -2.212   1.294   1.181  0.00  0.00    -0.012 A 
ATOM     29  C   UNL     1      -2.948   1.361   2.357  0.00  0.00    +0.006 A 
ATOM     30  C   UNL     1      -4.305   1.111   2.350  0.00  0.00    +0.000 A 
ATOM     31  C   UNL     1      -4.939   0.791   1.164  0.00  0.00    +0.000 A 
ATOM     32  C   UNL     1      -4.209   0.722  -0.005  0.00  0.00    +0.004 A 
ATOM     33  N   UNL     1      -0.504   3.021   1.442  0.00  0.00    -0.281 N 
ATOM     34  C   UNL     1       0.135   3.155   2.620  0.00  0.00    +0.310 C 
ATOM     35  O   UNL     1       0.480   4.224   3.084  0.00  0.00    -0.252 OA
ATOM     36  H   UNL     1      -0.761   3.733   0.837  0.00  0.00    +0.152 HD
ENDBRANCH  19  20
ENDBRANCH   2  19
TORSDOF 5
