REMARK  Name = ZINC14748325
REMARK  8 active torsions:
REMARK  status: ('A' for Active; 'I' for Inactive)
REMARK    1  A    between atoms: C_1  and  N_2
REMARK    2  A    between atoms: C_5  and  C_7
REMARK    3  A    between atoms: N_9  and  C_10
REMARK    4  A    between atoms: C_10  and  C_11
REMARK    5  A    between atoms: C_18  and  N_68
REMARK    6  A    between atoms: C_22  and  C_23
REMARK    7  A    between atoms: C_22  and  N_68
REMARK    8  A    between atoms: C_23  and  C_29
REMARK                            x       y       z     vdW  Elec       q    Type
REMARK                         _______ _______ _______ _____ _____    ______ ____
ROOT
ATOM      1  C   UNL     1       4.804   2.355  -0.075  0.00  0.00    +0.172 C 
ATOM      2  N   UNL     1       3.352   2.548  -0.051  0.00  0.00    -0.270 N 
ATOM      3  C   UNL     1       2.734   3.740  -0.033  0.00  0.00    +0.043 A 
ATOM      4  C   UNL     1       1.399   3.500  -0.018  0.00  0.00    +0.004 A 
ATOM      5  C   UNL     1       1.259   2.102  -0.021  0.00  0.00    +0.150 A 
ATOM      6  N   UNL     1       2.481   1.599  -0.045  0.00  0.00    -0.166 NA
ATOM      7  C   UNL     1       0.340   4.567   0.004  0.00  0.00    +0.023 C 
ATOM      8  C   UNL     1       0.999   5.892   0.409  0.00  0.00    -0.067 C 
ATOM      9  C   UNL     1       2.249   6.123  -0.445  0.00  0.00    -0.009 C 
ATOM     10  C   UNL     1       3.339   5.120  -0.036  0.00  0.00    +0.054 C 
ENDROOT
BRANCH   5  11
ATOM     11  C   UNL     1      -0.008   1.343  -0.008  0.00  0.00    +0.265 C 
ATOM     12  O   UNL     1      -1.071   1.934   0.009  0.00  0.00    -0.268 OA
ATOM     13  N   UNL     1       0.013  -0.005  -0.019  0.00  0.00    -0.306 N 
ATOM     14  H   UNL     1       0.861  -0.476  -0.036  0.00  0.00    +0.149 HD
BRANCH  13  15
ATOM     15  C   UNL     1      -1.243  -0.758  -0.005  0.00  0.00    +0.140 C 
BRANCH  15  16
ATOM     16  C   UNL     1      -0.944  -2.235  -0.022  0.00  0.00    -0.027 A 
ATOM     17  C   UNL     1      -0.828  -2.922  -1.220  0.00  0.00    +0.025 A 
ATOM     18  C   UNL     1      -0.547  -4.275  -1.197  0.00  0.00    +0.111 A 
ATOM     19  N   UNL     1      -0.402  -4.913  -0.052  0.00  0.00    -0.263 NA
ATOM     20  C   UNL     1      -0.511  -4.293   1.107  0.00  0.00    +0.111 A 
ATOM     21  C   UNL     1      -0.784  -2.940   1.161  0.00  0.00    +0.025 A 
ENDBRANCH  15  16
ENDBRANCH  13  15
ENDBRANCH   5  11
BRANCH   8  22
ATOM     22  N   UNL     1       0.044   6.995   0.190  0.00  0.00    +0.382 N 
ATOM     23  H   UNL     1      -0.907   6.664   0.395  0.00  0.00    -0.085 HD
ATOM     24  H   UNL     1       0.097   7.300  -0.789  0.00  0.00    -0.085 HD
BRANCH  22  25
ATOM     25  C   UNL     1       0.364   8.132   1.073  0.00  0.00    -0.071 C 
BRANCH  25  26
ATOM     26  C   UNL     1      -0.554   9.307   0.730  0.00  0.00    -0.019 C 
ATOM     27  C   UNL     1      -0.147  10.530   1.553  0.00  0.00    +0.010 C 
ATOM     28  C   UNL     1      -0.269  10.206   3.043  0.00  0.00    +0.001 C 
ATOM     29  C   UNL     1      -1.717   9.833   3.367  0.00  0.00    +0.000 C 
ATOM     30  C   UNL     1      -2.124   8.610   2.544  0.00  0.00    +0.001 C 
ATOM     31  C   UNL     1      -2.002   8.934   1.054  0.00  0.00    +0.010 C 
BRANCH  26  32
ATOM     32  C   UNL     1      -0.434   9.626  -0.738  0.00  0.00    -0.043 A 
ATOM     33  C   UNL     1      -1.563   9.645  -1.536  0.00  0.00    +0.004 A 
ATOM     34  C   UNL     1      -1.453   9.943  -2.881  0.00  0.00    +0.000 A 
ATOM     35  C   UNL     1      -0.214  10.212  -3.431  0.00  0.00    +0.000 A 
ATOM     36  C   UNL     1       0.916  10.188  -2.634  0.00  0.00    +0.000 A 
ATOM     37  C   UNL     1       0.805   9.895  -1.288  0.00  0.00    +0.004 A 
ENDBRANCH  26  32
ENDBRANCH  25  26
ENDBRANCH  22  25
ENDBRANCH   8  22
TORSDOF 7
