REMARK  Name = ZINC38740313
REMARK  3 active torsions:
REMARK  status: ('A' for Active; 'I' for Inactive)
REMARK    1  A    between atoms: C_8  and  N_10
REMARK    2  A    between atoms: C_11  and  C_13
REMARK    3  A    between atoms: C_19  and  C_21
REMARK                            x       y       z     vdW  Elec       q    Type
REMARK                         _______ _______ _______ _____ _____    ______ ____
ROOT
ATOM      1  C   UNL     1       5.348  -5.147   0.322  0.00  0.00    +0.091 C 
ATOM      2  C   UNL     1       5.872  -4.648   1.670  0.00  0.00    +0.040 C 
ATOM      3  C   UNL     1       6.796  -5.664   2.274  0.00  0.00    -0.030 C 
ATOM      4  C   UNL     1       7.345  -6.630   1.610  0.00  0.00    -0.030 C 
ATOM      5  C   UNL     1       7.127  -6.874   0.145  0.00  0.00    +0.040 C 
ATOM      6  C   UNL     1       6.537  -5.628  -0.518  0.00  0.00    +0.091 C 
ENDROOT
BRANCH   6   7
ATOM      7  C   UNL     1       6.071  -5.964  -1.911  0.00  0.00    +0.220 C 
ATOM      8  O   UNL     1       4.970  -6.443  -2.083  0.00  0.00    -0.275 OA
ATOM      9  N   UNL     1       6.877  -5.732  -2.966  0.00  0.00    -0.298 N 
ATOM     10  C   UNL     1       8.258  -5.272  -2.765  0.00  0.00    +0.126 C 
ATOM     11  C   UNL     1       9.206  -6.240  -3.484  0.00  0.00    +0.125 C 
ATOM     12  N   UNL     1       8.719  -6.443  -4.856  0.00  0.00    -0.314 N 
ATOM     13  C   UNL     1       7.338  -6.902  -5.056  0.00  0.00    +0.125 C 
ATOM     14  C   UNL     1       6.392  -5.939  -4.338  0.00  0.00    +0.126 C 
ATOM     15  C   UNL     1       9.550  -6.203  -5.944  0.00  0.00    +0.099 A 
ATOM     16  C   UNL     1      10.889  -5.887  -5.732  0.00  0.00    +0.042 A 
ATOM     17  C   UNL     1      11.704  -5.651  -6.824  0.00  0.00    +0.005 A 
ATOM     18  C   UNL     1      11.153  -5.740  -8.095  0.00  0.00    +0.018 A 
ATOM     19  C   UNL     1       9.817  -6.059  -8.232  0.00  0.00    +0.084 A 
ATOM     20  N   UNL     1       9.063  -6.284  -7.172  0.00  0.00    -0.350 N 
ATOM     21  H   UNL     1       8.128  -6.510  -7.296  0.00  0.00    +0.166 HD
ENDBRANCH   6   7
BRANCH   1  23
ATOM     22  N   UNL     1       3.566  -3.438   0.167  0.00  0.00    -0.312 N 
ATOM     23  C   UNL     1       4.642  -4.024  -0.394  0.00  0.00    +0.217 C 
ATOM     24  O   UNL     1       5.043  -3.648  -1.475  0.00  0.00    -0.275 OA
ATOM     25  H   UNL     1       3.245  -3.739   1.031  0.00  0.00    +0.149 HD
BRANCH  22  33
ATOM     26  C   UNL     1      -0.177   1.268  -0.085  0.00  0.00    +0.000 A 
ATOM     27  C   UNL     1       0.997   1.998  -0.097  0.00  0.00    +0.000 A 
ATOM     28  C   UNL     1       2.214   1.345  -0.103  0.00  0.00    +0.004 A 
ATOM     29  C   UNL     1       2.263  -0.039  -0.096  0.00  0.00    -0.042 A 
ATOM     30  C   UNL     1       1.089  -0.769  -0.084  0.00  0.00    -0.042 A 
ATOM     31  C   UNL     1      -0.130  -0.113  -0.079  0.00  0.00    +0.004 A 
ATOM     32  C   UNL     1       1.407  -2.249  -0.080  0.00  0.00    +0.058 C 
ATOM     33  C   UNL     1       2.880  -2.347  -0.530  0.00  0.00    +0.082 C 
ATOM     34  C   UNL     1       3.450  -0.979  -0.100  0.00  0.00    +0.058 C 
ENDBRANCH  22  33
ENDBRANCH   1  23
TORSDOF 3
