REMARK  Name = ZINC12534165
REMARK  10 active torsions:
REMARK  status: ('A' for Active; 'I' for Inactive)
REMARK    1  A    between atoms: C_1  and  C_2
REMARK    2  A    between atoms: C_3  and  C_34
REMARK    3  A    between atoms: N_4  and  C_28
REMARK    4  A    between atoms: C_5  and  N_9
REMARK    5  A    between atoms: C_6  and  C_7
REMARK    6  A    between atoms: C_10  and  C_12
REMARK    7  A    between atoms: C_12  and  N_13
REMARK    8  A    between atoms: C_15  and  C_24
REMARK    9  A    between atoms: N_26  and  C_27
REMARK   10  A    between atoms: C_28  and  C_29
REMARK                            x       y       z     vdW  Elec       q    Type
REMARK                         _______ _______ _______ _____ _____    ______ ____
ROOT
ATOM      1  N   UNL     1       3.624   1.117   1.563  0.00  0.00    -0.269 N 
ATOM      2  C   UNL     1       4.601   0.201   1.710  0.00  0.00    +0.236 C 
ATOM      3  O   UNL     1       4.641  -0.765   0.977  0.00  0.00    -0.274 OA
ATOM      4  H   UNL     1       3.552   1.854   2.190  0.00  0.00    +0.156 HD
ENDROOT
BRANCH   1   9
ATOM      5  C   UNL     1       0.582   2.153  -2.337  0.00  0.00    +0.047 C 
ATOM      6  C   UNL     1       1.337   1.441  -1.245  0.00  0.00    -0.011 A 
ATOM      7  C   UNL     1       1.291   0.129  -0.961  0.00  0.00    +0.022 A 
ATOM      8  N   UNL     1       2.120  -0.136   0.095  0.00  0.00    -0.324 N 
ATOM      9  C   UNL     1       2.721   1.007   0.516  0.00  0.00    +0.124 A 
ATOM     10  C   UNL     1       2.272   2.046  -0.287  0.00  0.00    +0.095 A 
ATOM     11  C   UNL     1       0.457  -0.891  -1.692  0.00  0.00    +0.064 C 
BRANCH  10  12
ATOM     12  C   UNL     1       2.644   3.426  -0.201  0.00  0.00    +0.103 C 
ATOM     13  N   UNL     1       2.940   4.521  -0.133  0.00  0.00    -0.191 NA
ENDBRANCH  10  12
BRANCH   8  14
ATOM     14  C   UNL     1       2.330  -1.460   0.686  0.00  0.00    +0.197 C 
BRANCH  14  15
ATOM     15  C   UNL     1       2.670  -2.447  -0.401  0.00  0.00    +0.124 A 
ATOM     16  C   UNL     1       3.891  -2.646  -0.928  0.00  0.00    +0.046 A 
ATOM     17  C   UNL     1       3.754  -3.654  -1.910  0.00  0.00    +0.041 A 
ATOM     18  C   UNL     1       2.457  -4.011  -1.923  0.00  0.00    +0.195 A 
ATOM     19  O   UNL     1       1.806  -3.280  -1.003  0.00  0.00    -0.466 OA
ENDBRANCH  14  15
ENDBRANCH   8  14
ENDBRANCH   1   9
BRANCH   2  20
ATOM     20  C   UNL     1       5.643   0.375   2.784  0.00  0.00    +0.201 C 
BRANCH  20  21
ATOM     21  N   UNL     1       6.517  -0.805   2.815  0.00  0.00    -0.314 N 
ATOM     22  C   UNL     1       5.757  -2.014   3.152  0.00  0.00    +0.160 C 
ATOM     23  C   UNL     1       6.738  -3.186   3.290  0.00  0.00    +0.276 C 
ATOM     24  O   UNL     1       7.616  -2.898   4.384  0.00  0.00    -0.476 OA
ATOM     25  C   UNL     1       8.131  -1.639   4.440  0.00  0.00    +0.143 A 
ATOM     26  C   UNL     1       7.599  -0.605   3.678  0.00  0.00    +0.073 A 
ATOM     27  C   UNL     1       8.152   0.668   3.770  0.00  0.00    +0.027 A 
ATOM     28  C   UNL     1       9.223   0.903   4.609  0.00  0.00    +0.002 A 
ATOM     29  C   UNL     1       9.752  -0.127   5.363  0.00  0.00    +0.004 A 
ATOM     30  C   UNL     1       9.209  -1.395   5.279  0.00  0.00    +0.047 A 
BRANCH  23  31
ATOM     31  C   UNL     1       5.978  -4.457   3.567  0.00  0.00    +0.255 C 
ATOM     32  O   UNL     1       6.119  -5.029   4.627  0.00  0.00    -0.272 OA
ATOM     33  N   UNL     1       5.141  -4.958   2.637  0.00  0.00    -0.315 N 
ATOM     34  C   UNL     1       4.402  -6.194   2.906  0.00  0.00    +0.128 C 
ATOM     35  H   UNL     1       5.028  -4.500   1.790  0.00  0.00    +0.148 HD
ENDBRANCH  23  31
ENDBRANCH  20  21
ENDBRANCH   2  20
TORSDOF 7
