REMARK  Name = ZINC20532157
REMARK  11 active torsions:
REMARK  status: ('A' for Active; 'I' for Inactive)
REMARK    1  A    between atoms: C_1  and  C_2
REMARK    2  A    between atoms: C_5  and  N_8
REMARK    3  A    between atoms: N_11  and  C_12
REMARK    4  A    between atoms: C_12  and  C_14
REMARK    5  A    between atoms: C_12  and  C_19
REMARK    6  A    between atoms: C_14  and  C_15
REMARK    7  A    between atoms: C_15  and  C_16
REMARK    8  A    between atoms: C_16  and  C_17
REMARK    9  A    between atoms: C_16  and  C_18
REMARK   10  A    between atoms: C_23  and  N_24
REMARK   11  A    between atoms: N_30  and  C_33
REMARK                            x       y       z     vdW  Elec       q    Type
REMARK                         _______ _______ _______ _____ _____    ______ ____
ROOT
ATOM      1  C   UNL     1       0.944   0.756   5.067  0.00  0.00    +0.108 C 
ENDROOT
BRANCH   1   2
ATOM      2  C   UNL     1       1.051   1.236   3.642  0.00  0.00    +0.007 A 
ATOM      3  C   UNL     1       0.160   2.189   3.158  0.00  0.00    -0.034 A 
ATOM      4  C   UNL     1       0.317   2.571   1.859  0.00  0.00    -0.021 A 
ATOM      5  S   UNL     1       1.701   1.616   1.302  0.00  0.00    -0.077 S 
ATOM      6  C   UNL     1       2.018   0.738   2.825  0.00  0.00    +0.090 A 
ATOM      7  C   UNL     1      -0.507   3.567   1.112  0.00  0.00    -0.036 C 
ATOM      8  N   UNL     1      -1.737   3.821   1.886  0.00  0.00    +0.381 N 
ATOM      9  C   UNL     1      -1.416   4.095   3.293  0.00  0.00    -0.074 C 
ATOM     10  C   UNL     1      -0.957   2.812   3.991  0.00  0.00    +0.018 C 
ATOM     11  C   UNL     1      -2.511   4.923   1.298  0.00  0.00    -0.096 C 
ATOM     12  H   UNL     1      -2.363   2.917   1.849  0.00  0.00    -0.082 HD
BRANCH   6  13
ATOM     13  N   UNL     1       3.004  -0.215   3.105  0.00  0.00    -0.317 N 
ATOM     14  C   UNL     1       4.347  -0.047   2.926  0.00  0.00    +0.092 A 
ATOM     15  C   UNL     1       4.969  -1.181   3.310  0.00  0.00    +0.019 A 
ATOM     16  C   UNL     1       3.975  -2.085   3.733  0.00  0.00    +0.019 A 
ATOM     17  C   UNL     1       2.783  -1.469   3.597  0.00  0.00    +0.092 A 
ENDBRANCH   6  13
ENDBRANCH   1   2
BRANCH   1  21
ATOM     18  N   UNL     1      -1.969  -1.203   6.160  0.00  0.00    -0.269 N 
ATOM     19  C   UNL     1      -0.697  -0.839   5.902  0.00  0.00    +0.304 C 
ATOM     20  O   UNL     1       0.217  -1.595   6.171  0.00  0.00    -0.252 OA
ATOM     21  N   UNL     1      -0.438   0.361   5.347  0.00  0.00    -0.292 N 
ATOM     22  H   UNL     1      -2.800  -0.553   5.848  0.00  0.00    +0.156 HD
ATOM     23  H   UNL     1      -1.266   1.044   5.104  0.00  0.00    +0.151 HD
BRANCH  18  28
ATOM     24  C   UNL     1      -3.035  -6.080   8.854  0.00  0.00    +0.044 C 
ATOM     25  C   UNL     1      -2.752  -4.785   8.139  0.00  0.00    -0.050 A 
ATOM     26  C   UNL     1      -3.565  -3.687   8.352  0.00  0.00    +0.005 A 
ATOM     27  C   UNL     1      -3.308  -2.498   7.697  0.00  0.00    +0.023 A 
ATOM     28  C   UNL     1      -2.232  -2.406   6.824  0.00  0.00    +0.035 A 
ATOM     29  C   UNL     1      -1.421  -3.512   6.608  0.00  0.00    +0.023 A 
ATOM     30  C   UNL     1      -1.679  -4.696   7.270  0.00  0.00    +0.005 A 
ENDBRANCH  18  28
ENDBRANCH   1  21
BRANCH   1  31
ATOM     31  C   UNL     1       1.355   1.883   6.016  0.00  0.00    +0.027 C 
BRANCH  31  32
ATOM     32  C   UNL     1       1.367   1.360   7.454  0.00  0.00    +0.005 C 
BRANCH  32  33
ATOM     33  C   UNL     1       1.778   2.487   8.404  0.00  0.00    -0.017 C 
ATOM     34  C   UNL     1       0.713   3.586   8.382  0.00  0.00    +0.007 C 
ATOM     35  C   UNL     1       1.911   1.935   9.824  0.00  0.00    +0.007 C 
ENDBRANCH  32  33
ENDBRANCH  31  32
ENDBRANCH   1  31
TORSDOF 7
