REMARK  Name = ZINC00057306
REMARK  5 active torsions:
REMARK  status: ('A' for Active; 'I' for Inactive)
REMARK    1  A    between atoms: C_1  and  C_2
REMARK    2  A    between atoms: C_2  and  N_3
REMARK    3  A    between atoms: C_6  and  N_25
REMARK    4  A    between atoms: C_13  and  N_24
REMARK    5  A    between atoms: C_16  and  C_18
REMARK                            x       y       z     vdW  Elec       q    Type
REMARK                         _______ _______ _______ _____ _____    ______ ____
ROOT
ATOM      1  N   UNL     1       2.210   3.623  -0.295  0.00  0.00    -0.319 N 
ATOM      2  C   UNL     1       1.155   2.717  -0.316  0.00  0.00    +0.040 A 
ATOM      3  C   UNL     1      -0.156   3.164  -0.267  0.00  0.00    +0.046 A 
ATOM      4  C   UNL     1      -1.202   2.253  -0.302  0.00  0.00    +0.026 A 
ATOM      5  C   UNL     1      -0.945   0.888  -0.391  0.00  0.00    +0.023 A 
ATOM      6  C   UNL     1       0.357   0.432  -0.430  0.00  0.00    +0.012 A 
ATOM      7  C   UNL     1       1.408   1.339  -0.392  0.00  0.00    +0.004 A 
ATOM      8  C   UNL     1       2.819   0.886  -0.418  0.00  0.00    -0.011 A 
ATOM      9  C   UNL     1       3.178  -0.384  -0.847  0.00  0.00    +0.011 A 
ATOM     10  C   UNL     1       4.509  -0.750  -0.854  0.00  0.00    +0.023 A 
ATOM     11  C   UNL     1       5.481   0.150  -0.433  0.00  0.00    +0.025 A 
ATOM     12  C   UNL     1       5.121   1.423  -0.001  0.00  0.00    +0.029 A 
ATOM     13  C   UNL     1       3.795   1.792   0.009  0.00  0.00    -0.013 A 
ATOM     14  C   UNL     1       3.366   3.157   0.473  0.00  0.00    +0.135 C 
ENDROOT
BRANCH  14  15
ATOM     15  C   UNL     1       2.999   3.093   1.933  0.00  0.00    -0.023 A 
ATOM     16  C   UNL     1       3.814   3.690   2.877  0.00  0.00    +0.006 A 
ATOM     17  C   UNL     1       3.475   3.635   4.216  0.00  0.00    +0.000 A 
ATOM     18  C   UNL     1       2.326   2.975   4.612  0.00  0.00    +0.000 A 
ATOM     19  C   UNL     1       1.514   2.375   3.668  0.00  0.00    +0.000 A 
ATOM     20  C   UNL     1       1.850   2.434   2.329  0.00  0.00    +0.006 A 
ENDBRANCH  14  15
BRANCH  11  21
ATOM     21  N   UNL     1       6.827  -0.225  -0.444  0.00  0.00    -0.358 N 
ATOM     22  H   UNL     1       7.081  -1.111  -0.745  0.00  0.00    +0.142 HD
ATOM     23  H   UNL     1       7.507   0.402  -0.150  0.00  0.00    +0.142 HD
ENDBRANCH  11  21
BRANCH   4  24
ATOM     24  N   UNL     1      -2.521   2.708  -0.254  0.00  0.00    -0.358 N 
ATOM     25  H   UNL     1      -2.704   3.659  -0.197  0.00  0.00    +0.142 HD
ATOM     26  H   UNL     1      -3.254   2.073  -0.279  0.00  0.00    +0.142 HD
ENDBRANCH   4  24
BRANCH   1  28
ATOM     27  C   UNL     1       2.964   5.882   0.278  0.00  0.00    +0.024 C 
ATOM     28  C   UNL     1       1.762   4.941   0.175  0.00  0.00    +0.103 C 
ENDBRANCH   1  28
TORSDOF 4
