REMARK  Name = ZINC65301076
REMARK  9 active torsions:
REMARK  status: ('A' for Active; 'I' for Inactive)
REMARK    1  A    between atoms: C_1  and  C_2
REMARK    2  A    between atoms: C_4  and  N_18
REMARK    3  A    between atoms: C_5  and  C_11
REMARK    4  A    between atoms: C_21  and  C_24
REMARK    5  A    between atoms: N_26  and  C_27
REMARK    6  A    between atoms: C_27  and  C_28
REMARK    7  A    between atoms: C_31  and  N_34
REMARK    8  A    between atoms: N_34  and  C_35
REMARK    9  A    between atoms: N_34  and  C_36
REMARK                            x       y       z     vdW  Elec       q    Type
REMARK                         _______ _______ _______ _____ _____    ______ ____
ROOT
ATOM      1  N   UNL     1       0.309   1.156  -2.843  0.00  0.00    -0.329 N 
ATOM      2  C   UNL     1      -0.894   2.000  -2.814  0.00  0.00    +0.106 C 
ATOM      3  C   UNL     1      -0.623   3.214  -1.919  0.00  0.00    +0.031 C 
ATOM      4  C   UNL     1       0.637   3.932  -2.409  0.00  0.00    +0.078 C 
ATOM      5  C   UNL     1       1.835   2.985  -2.314  0.00  0.00    +0.031 C 
ATOM      6  C   UNL     1       1.593   1.770  -3.207  0.00  0.00    +0.106 C 
ENDROOT
BRANCH   1  10
ATOM      7  C   UNL     1      -0.130   0.368  -5.539  0.00  0.00    +0.067 C 
ATOM      8  C   UNL     1      -0.166  -1.008  -4.927  0.00  0.00    +0.058 A 
ATOM      9  C   UNL     1       0.011  -1.157  -3.541  0.00  0.00    +0.050 A 
ATOM     10  C   UNL     1       0.234  -0.185  -2.530  0.00  0.00    +0.055 A 
ATOM     11  C   UNL     1       0.378  -0.622  -1.205  0.00  0.00    +0.074 A 
ATOM     12  C   UNL     1       0.299  -1.988  -0.907  0.00  0.00    +0.098 A 
ATOM     13  N   UNL     1       0.092  -2.869  -1.862  0.00  0.00    -0.353 N 
ATOM     14  C   UNL     1      -0.049  -2.506  -3.120  0.00  0.00    +0.107 A 
ATOM     15  S   UNL     1      -0.334  -3.361  -4.649  0.00  0.00    +0.030 S 
ATOM     16  N   UNL     1      -0.366  -2.043  -5.684  0.00  0.00    -0.213 NA
ATOM     17  H   UNL     1       0.041  -3.811  -1.634  0.00  0.00    +0.166 HD
BRANCH  11  18
ATOM     18  C   UNL     1       0.611   0.355  -0.129  0.00  0.00    +0.250 C 
ATOM     19  O   UNL     1       1.537   1.139  -0.209  0.00  0.00    -0.270 OA
ATOM     20  N   UNL     1      -0.203   0.380   0.946  0.00  0.00    -0.297 N 
ATOM     21  C   UNL     1      -1.409  -0.441   1.127  0.00  0.00    +0.108 C 
ATOM     22  C   UNL     1      -2.026  -0.054   2.487  0.00  0.00    +0.020 C 
ATOM     23  C   UNL     1      -1.449   1.365   2.740  0.00  0.00    +0.020 C 
ATOM     24  C   UNL     1      -0.026   1.231   2.137  0.00  0.00    +0.108 C 
ENDBRANCH  11  18
ENDBRANCH   1  10
BRANCH   4  25
ATOM     25  C   UNL     1       0.887   5.146  -1.552  0.00  0.00    +0.216 C 
ATOM     26  O   UNL     1       0.133   5.411  -0.640  0.00  0.00    -0.276 OA
ATOM     27  N   UNL     1       1.950   5.938  -1.800  0.00  0.00    -0.311 N 
ATOM     28  H   UNL     1       2.553   5.726  -2.529  0.00  0.00    +0.149 HD
BRANCH  27  29
ATOM     29  C   UNL     1       2.193   7.118  -0.967  0.00  0.00    +0.139 C 
BRANCH  29  30
ATOM     30  C   UNL     1       3.434   7.825  -1.449  0.00  0.00    -0.030 A 
ATOM     31  C   UNL     1       4.669   7.483  -0.929  0.00  0.00    +0.007 A 
ATOM     32  C   UNL     1       5.808   8.129  -1.369  0.00  0.00    +0.023 A 
ATOM     33  C   UNL     1       5.711   9.124  -2.333  0.00  0.00    +0.029 A 
ATOM     34  C   UNL     1       4.469   9.466  -2.853  0.00  0.00    +0.023 A 
ATOM     35  C   UNL     1       3.335   8.812  -2.413  0.00  0.00    +0.007 A 
BRANCH  33  36
ATOM     36  N   UNL     1       6.861   9.780  -2.780  0.00  0.00    -0.336 N 
ATOM     37  C   UNL     1       8.170   9.419  -2.230  0.00  0.00    +0.129 C 
ATOM     38  C   UNL     1       6.757  10.829  -3.797  0.00  0.00    +0.129 C 
ENDBRANCH  33  36
ENDBRANCH  29  30
ENDBRANCH  27  29
ENDBRANCH   4  25
TORSDOF 6
