REMARK  Name = ZINC62933175
REMARK  3 active torsions:
REMARK  status: ('A' for Active; 'I' for Inactive)
REMARK    1  A    between atoms: C_1  and  C_2
REMARK    2  A    between atoms: C_2  and  C_18
REMARK    3  A    between atoms: N_9  and  C_10
REMARK                            x       y       z     vdW  Elec       q    Type
REMARK                         _______ _______ _______ _____ _____    ______ ____
ROOT
ATOM      1  C   UNL     1      -0.013   1.557   0.035  0.00  0.00    +0.024 C 
ATOM      2  C   UNL     1       0.006   0.027   0.015  0.00  0.00    +0.086 C 
ATOM      3  C   UNL     1      -1.431  -0.542   0.147  0.00  0.00    +0.038 C 
ATOM      4  C   UNL     1      -1.643  -0.498   1.681  0.00  0.00    +0.110 C 
ATOM      5  N   UNL     1      -0.330  -0.848   2.254  0.00  0.00    -0.284 N 
ATOM      6  C   UNL     1       0.714  -0.526   1.270  0.00  0.00    +0.127 C 
ATOM      7  C   UNL     1      -0.121  -1.375   3.477  0.00  0.00    +0.307 C 
ATOM      8  O   UNL     1       1.010  -1.624   3.846  0.00  0.00    -0.252 OA
ATOM      9  N   UNL     1      -1.166  -1.625   4.290  0.00  0.00    -0.268 N 
ATOM     10  H   UNL     1      -2.062  -1.366   4.022  0.00  0.00    +0.156 HD
ENDROOT
BRANCH   9  11
ATOM     11  C   UNL     1      -0.959  -2.258   5.521  0.00  0.00    +0.049 A 
ATOM     12  C   UNL     1       0.199  -2.010   6.245  0.00  0.00    +0.025 A 
ATOM     13  C   UNL     1       0.401  -2.636   7.460  0.00  0.00    +0.017 A 
ATOM     14  C   UNL     1      -0.550  -3.510   7.956  0.00  0.00    +0.019 A 
ATOM     15  C   UNL     1      -1.705  -3.760   7.237  0.00  0.00    +0.032 A 
ATOM     16  C   UNL     1      -1.915  -3.132   6.024  0.00  0.00    +0.040 A 
ATOM     17 BR   UNL     1      -3.498  -3.468   5.045  0.00  0.00    -0.048 Br
ATOM     18 BR   UNL     1      -0.270  -4.365   9.619  0.00  0.00    -0.050 Br
ENDBRANCH   9  11
BRANCH   2  19
ATOM     19  C   UNL     1       0.671  -0.480  -1.239  0.00  0.00    +0.363 C 
ATOM     20  O   UNL     1       1.825  -0.172  -1.484  0.00  0.00    -0.246 OA
ATOM     21  O   UNL     1       0.055  -1.197  -2.008  0.00  0.00    -0.246 OA
ENDBRANCH   2  19
TORSDOF 2
