REMARK  Name = ZINC20083549
REMARK  6 active torsions:
REMARK  status: ('A' for Active; 'I' for Inactive)
REMARK    1  A    between atoms: C_1  and  C_2
REMARK    2  A    between atoms: C_4  and  C_37
REMARK    3  A    between atoms: C_7  and  C_14
REMARK    4  A    between atoms: C_14  and  C_16
REMARK    5  A    between atoms: C_14  and  N_27
REMARK    6  A    between atoms: N_20  and  C_21
REMARK                            x       y       z     vdW  Elec       q    Type
REMARK                         _______ _______ _______ _____ _____    ______ ____
ROOT
ATOM      1  C   UNL     1      -0.036   1.099  -2.411  0.00  0.00    +0.162 C 
ENDROOT
BRANCH   1   8
ATOM      2  C   UNL     1      -0.273  -6.647  -4.301  0.00  0.00    +0.044 C 
ATOM      3  C   UNL     1      -0.320  -5.147  -4.155  0.00  0.00    -0.048 A 
ATOM      4  C   UNL     1      -0.810  -4.372  -5.197  0.00  0.00    +0.007 A 
ATOM      5  C   UNL     1      -0.862  -3.011  -5.086  0.00  0.00    -0.041 A 
ATOM      6  C   UNL     1      -0.415  -2.394  -3.913  0.00  0.00    +0.002 A 
ATOM      7  C   UNL     1      -0.455  -0.938  -3.760  0.00  0.00    +0.021 A 
ATOM      8  C   UNL     1      -0.009  -0.396  -2.600  0.00  0.00    +0.042 A 
ATOM      9  C   UNL     1       0.487  -1.226  -1.572  0.00  0.00    +0.254 A 
ATOM     10  O   UNL     1       0.888  -0.718  -0.539  0.00  0.00    -0.268 OA
ATOM     11  N   UNL     1       0.522  -2.564  -1.700  0.00  0.00    -0.322 N 
ATOM     12  H   UNL     1       0.905  -3.186  -0.878  0.00  0.00    +0.169 HD
ATOM     13  C   UNL     1       0.084  -3.177  -2.855  0.00  0.00    +0.050 A 
ATOM     14  C   UNL     1       0.126  -4.561  -2.991  0.00  0.00    +0.029 A 
ATOM     15  C   UNL     1      -1.397  -2.179  -6.222  0.00  0.00    +0.044 C 
ENDBRANCH   1   8
BRANCH   1  16
ATOM     16  N   UNL     1      -0.747   1.422  -1.166  0.00  0.00    -0.292 NA
ATOM     17  C   UNL     1      -2.143   0.980  -1.229  0.00  0.00    +0.067 C 
ATOM     18  C   UNL     1      -2.885   1.319   0.074  0.00  0.00    -0.063 C 
ATOM     19  N   UNL     1      -2.752   2.749   0.296  0.00  0.00    +0.383 N 
ATOM     20  C   UNL     1      -3.447   3.331   1.443  0.00  0.00    -0.078 C 
ATOM     21  C   UNL     1      -2.623   4.577   1.849  0.00  0.00    -0.020 C 
ATOM     22  C   UNL     1      -1.386   4.564   0.909  0.00  0.00    -0.016 C 
ATOM     23  C   UNL     1      -1.316   3.085   0.493  0.00  0.00    -0.054 C 
ATOM     24  C   UNL     1      -0.617   2.855  -0.840  0.00  0.00    +0.070 C 
ATOM     25  H   UNL     1      -3.239   3.160  -0.600  0.00  0.00    -0.081 HD
ENDBRANCH   1  16
BRANCH   1  26
ATOM     26  C   UNL     1       1.376   1.621  -2.333  0.00  0.00    +0.173 A 
ATOM     27  N   UNL     1       2.187   1.533  -1.308  0.00  0.00    -0.111 NA
ATOM     28  N   UNL     1       3.300   2.095  -1.632  0.00  0.00    -0.023 NA
ATOM     29  N   UNL     1       3.217   2.546  -2.835  0.00  0.00    -0.044 NA
ATOM     30  N   UNL     1       2.046   2.273  -3.301  0.00  0.00    -0.224 N 
BRANCH  30  31
ATOM     31  C   UNL     1       1.540   2.610  -4.634  0.00  0.00    +0.111 C 
ATOM     32  C   UNL     1       2.422   1.950  -5.696  0.00  0.00    +0.027 C 
ATOM     33  C   UNL     1       1.893   2.302  -7.088  0.00  0.00    +0.002 C 
ATOM     34  C   UNL     1       1.919   3.821  -7.275  0.00  0.00    +0.000 C 
ATOM     35  C   UNL     1       1.037   4.480  -6.213  0.00  0.00    +0.002 C 
ATOM     36  C   UNL     1       1.565   4.128  -4.821  0.00  0.00    +0.027 C 
ENDBRANCH  30  31
ENDBRANCH   1  26
TORSDOF 4
