REMARK  Name = ZINC36205361
REMARK  15 active torsions:
REMARK  status: ('A' for Active; 'I' for Inactive)
REMARK    1  A    between atoms: C_1  and  C_2
REMARK    2  A    between atoms: C_5  and  C_9
REMARK    3  A    between atoms: C_7  and  C_8
REMARK    4  A    between atoms: C_18  and  C_20
REMARK    5  A    between atoms: C_20  and  N_21
REMARK    6  A    between atoms: N_21  and  C_22
REMARK    7  A    between atoms: N_21  and  C_32
REMARK    8  A    between atoms: C_22  and  C_23
REMARK    9  A    between atoms: C_23  and  C_25
REMARK   10  A    between atoms: C_23  and  O_31
REMARK   11  A    between atoms: C_25  and  O_26
REMARK   12  A    between atoms: O_26  and  C_27
REMARK   13  A    between atoms: C_27  and  C_28
REMARK   14  A    between atoms: C_27  and  C_29
REMARK   15  A    between atoms: C_27  and  C_30
REMARK                            x       y       z     vdW  Elec       q    Type
REMARK                         _______ _______ _______ _____ _____    ______ ____
ROOT
ATOM      1  C   UNL     1       1.061  -4.811  -0.476  0.00  0.00    +0.004 A 
ATOM      2  C   UNL     1       2.011  -5.637   0.025  0.00  0.00    +0.056 A 
ATOM      3  S   UNL     1       1.392  -7.262  -0.367  0.00  0.00    -0.076 S 
ATOM      4  C   UNL     1      -0.112  -6.799  -1.186  0.00  0.00    +0.116 A 
ATOM      5  C   UNL     1      -0.103  -5.396  -1.131  0.00  0.00    +0.080 A 
ATOM      6  C   UNL     1      -1.229  -4.745  -1.728  0.00  0.00    +0.260 A 
ATOM      7  O   UNL     1      -1.309  -3.529  -1.735  0.00  0.00    -0.267 OA
ATOM      8  N   UNL     1      -2.199  -5.496  -2.282  0.00  0.00    -0.312 N 
ATOM      9  H   UNL     1      -2.964  -5.060  -2.688  0.00  0.00    +0.170 HD
ATOM     10  C   UNL     1      -2.126  -6.852  -2.285  0.00  0.00    +0.094 A 
ATOM     11  N   UNL     1      -1.106  -7.474  -1.757  0.00  0.00    -0.229 NA
ENDROOT
BRANCH   1  16
ATOM     12  C   UNL     1       1.597   0.903  -0.005  0.00  0.00    +0.044 C 
ATOM     13  C   UNL     1       1.457  -0.593  -0.129  0.00  0.00    -0.048 A 
ATOM     14  C   UNL     1       1.161  -1.158  -1.356  0.00  0.00    +0.004 A 
ATOM     15  C   UNL     1       1.032  -2.527  -1.475  0.00  0.00    +0.009 A 
ATOM     16  C   UNL     1       1.199  -3.340  -0.355  0.00  0.00    -0.016 A 
ATOM     17  C   UNL     1       1.497  -2.764   0.879  0.00  0.00    +0.012 A 
ATOM     18  C   UNL     1       1.629  -1.395   0.985  0.00  0.00    -0.047 A 
ATOM     19  C   UNL     1       1.958  -0.771   2.317  0.00  0.00    +0.044 C 
ENDBRANCH   1  16
BRANCH  10  20
ATOM     20  C   UNL     1      -3.235  -7.652  -2.918  0.00  0.00    -0.003 C 
BRANCH  20  21
ATOM     21  N   UNL     1      -3.018  -9.081  -2.657  0.00  0.00    +0.388 N 
ATOM     22  H   UNL     1      -2.030  -9.282  -2.688  0.00  0.00    -0.081 HD
BRANCH  21  23
ATOM     23  C   UNL     1      -3.547  -9.423  -1.330  0.00  0.00    -0.068 C 
ATOM     24  C   UNL     1      -2.839  -8.581  -0.267  0.00  0.00    -0.015 C 
ATOM     25  C   UNL     1      -3.390  -8.937   1.116  0.00  0.00    -0.002 C 
ATOM     26  C   UNL     1      -4.892  -8.650   1.155  0.00  0.00    -0.000 C 
ATOM     27  C   UNL     1      -5.600  -9.493   0.092  0.00  0.00    -0.002 C 
ATOM     28  C   UNL     1      -5.049  -9.137  -1.290  0.00  0.00    -0.015 C 
ENDBRANCH  21  23
BRANCH  21  29
ATOM     29  C   UNL     1      -3.711  -9.876  -3.680  0.00  0.00    -0.044 C 
BRANCH  29  30
ATOM     30  C   UNL     1      -3.367 -11.355  -3.496  0.00  0.00    +0.124 C 
BRANCH  30  31
ATOM     31  O   UNL     1      -1.956 -11.536  -3.629  0.00  0.00    -0.391 OA
ATOM     32  H   UNL     1      -1.604 -11.266  -4.488  0.00  0.00    +0.210 HD
ENDBRANCH  30  31
BRANCH  30  33
ATOM     33  C   UNL     1      -4.090 -12.183  -4.561  0.00  0.00    +0.189 C 
BRANCH  33  34
ATOM     34  O   UNL     1      -3.862 -13.573  -4.319  0.00  0.00    -0.372 OA
BRANCH  34  35
ATOM     35  C   UNL     1      -4.498 -14.439  -5.261  0.00  0.00    +0.061 C 
ATOM     36  C   UNL     1      -3.975 -14.134  -6.667  0.00  0.00    +0.041 C 
ATOM     37  C   UNL     1      -4.188 -15.895  -4.907  0.00  0.00    +0.041 C 
ATOM     38  C   UNL     1      -6.011 -14.215  -5.221  0.00  0.00    +0.041 C 
ENDBRANCH  34  35
ENDBRANCH  33  34
ENDBRANCH  30  33
ENDBRANCH  29  30
ENDBRANCH  21  29
ENDBRANCH  20  21
ENDBRANCH  10  20
TORSDOF 10
