REMARK  Name = ZINC14023290
REMARK  9 active torsions:
REMARK  status: ('A' for Active; 'I' for Inactive)
REMARK    1  A    between atoms: C_1  and  C_2
REMARK    2  A    between atoms: C_2  and  N_62
REMARK    3  A    between atoms: C_8  and  N_14
REMARK    4  A    between atoms: C_9  and  C_10
REMARK    5  A    between atoms: C_10  and  O_12
REMARK    6  A    between atoms: O_12  and  C_13
REMARK    7  A    between atoms: C_15  and  C_17
REMARK    8  A    between atoms: N_22  and  S_24
REMARK    9  A    between atoms: S_24  and  C_27
REMARK                            x       y       z     vdW  Elec       q    Type
REMARK                         _______ _______ _______ _____ _____    ______ ____
ROOT
ATOM      1  N   UNL     1       0.508   3.751   3.839  0.00  0.00    -0.279 N 
ATOM      2  C   UNL     1       0.723   4.862   4.570  0.00  0.00    +0.222 C 
ATOM      3  O   UNL     1       0.090   5.050   5.588  0.00  0.00    -0.275 OA
ATOM      4  H   UNL     1       1.014   3.600   3.025  0.00  0.00    +0.155 HD
ENDROOT
BRANCH   1  10
ATOM      5  C   UNL     1      -3.061  -1.222   4.897  0.00  0.00    -0.074 C 
ATOM      6  C   UNL     1      -2.339  -0.504   3.753  0.00  0.00    +0.018 C 
ATOM      7  C   UNL     1      -1.827   0.833   4.276  0.00  0.00    -0.025 A 
ATOM      8  C   UNL     1      -2.325   1.347   5.424  0.00  0.00    -0.021 A 
ATOM      9  S   UNL     1      -1.452   2.869   5.652  0.00  0.00    -0.079 S 
ATOM     10  C   UNL     1      -0.436   2.822   4.249  0.00  0.00    +0.086 A 
ATOM     11  C   UNL     1      -0.796   1.628   3.636  0.00  0.00    +0.091 A 
ATOM     12  C   UNL     1      -3.388   0.738   6.283  0.00  0.00    -0.035 C 
ATOM     13  N   UNL     1      -4.066  -0.315   5.488  0.00  0.00    +0.383 N 
ATOM     14  H   UNL     1      -4.601   0.129   4.732  0.00  0.00    -0.081 HD
BRANCH  13  16
ATOM     15  C   UNL     1      -4.219  -1.842   7.425  0.00  0.00    -0.017 C 
ATOM     16  C   UNL     1      -4.994  -1.080   6.348  0.00  0.00    -0.082 C 
ENDBRANCH  13  16
BRANCH  11  17
ATOM     17  C   UNL     1      -0.164   1.192   2.390  0.00  0.00    +0.342 C 
ATOM     18  O   UNL     1       0.839   0.504   2.424  0.00  0.00    -0.245 OA
BRANCH  17  19
ATOM     19  O   UNL     1      -0.692   1.554   1.203  0.00  0.00    -0.464 OA
ATOM     20  C   UNL     1      -0.013   1.086   0.008  0.00  0.00    +0.280 C 
ENDBRANCH  17  19
ENDBRANCH  11  17
ENDBRANCH   1  10
BRANCH   2  21
ATOM     21  C   UNL     1       1.749   5.871   4.124  0.00  0.00    +0.091 C 
ATOM     22  C   UNL     1       3.125   5.205   4.057  0.00  0.00    +0.015 C 
ATOM     23  C   UNL     1       4.163   6.220   3.572  0.00  0.00    +0.018 C 
ATOM     24  C   UNL     1       4.236   7.383   4.567  0.00  0.00    +0.109 C 
ATOM     25  N   UNL     1       2.888   7.938   4.747  0.00  0.00    -0.176 NA
ATOM     26  C   UNL     1       1.796   7.030   5.125  0.00  0.00    +0.122 C 
BRANCH  25  27
ATOM     27  S   UNL     1       2.604   9.554   4.529  0.00  0.00    +0.061 S 
ATOM     28  O   UNL     1       3.628  10.034   3.668  0.00  0.00    -0.153 OA
ATOM     29  O   UNL     1       1.224   9.686   4.218  0.00  0.00    -0.153 OA
BRANCH  27  30
ATOM     30  C   UNL     1       2.846  10.341   6.087  0.00  0.00    +0.105 A 
ATOM     31  C   UNL     1       1.785  10.487   6.960  0.00  0.00    +0.028 A 
ATOM     32  C   UNL     1       1.976  11.100   8.185  0.00  0.00    +0.002 A 
ATOM     33  C   UNL     1       3.227  11.575   8.532  0.00  0.00    +0.000 A 
ATOM     34  C   UNL     1       4.288  11.433   7.657  0.00  0.00    +0.002 A 
ATOM     35  C   UNL     1       4.097  10.816   6.434  0.00  0.00    +0.028 A 
ENDBRANCH  27  30
ENDBRANCH  25  27
ENDBRANCH   2  21
TORSDOF 7
