REMARK  Name = ZINC63140560
REMARK  5 active torsions:
REMARK  status: ('A' for Active; 'I' for Inactive)
REMARK    1  A    between atoms: C_1  and  O_2
REMARK    2  A    between atoms: O_2  and  C_3
REMARK    3  A    between atoms: C_6  and  C_9
REMARK    4  A    between atoms: N_28  and  C_31
REMARK    5  A    between atoms: C_31  and  C_32
REMARK                            x       y       z     vdW  Elec       q    Type
REMARK                         _______ _______ _______ _____ _____    ______ ____
ROOT
ATOM      1  C   UNL     1      -4.981  -2.629   0.035  0.00  0.00    +0.133 C 
ATOM      2  C   UNL     1      -5.307  -3.058   1.465  0.00  0.00    +0.131 C 
ATOM      3  C   UNL     1      -6.458  -4.056   1.349  0.00  0.00    -0.034 C 
ATOM      4  C   UNL     1      -7.481  -3.538   2.015  0.00  0.00    -0.001 A 
ATOM      5  C   UNL     1      -8.838  -4.047   2.276  0.00  0.00    +0.010 A 
ATOM      6  C   UNL     1      -9.650  -3.239   3.007  0.00  0.00    +0.001 A 
ATOM      7  C   UNL     1      -9.255  -1.991   3.498  0.00  0.00    +0.002 A 
ATOM      8  C   UNL     1      -8.027  -1.446   3.307  0.00  0.00    +0.026 A 
ATOM      9  C   UNL     1      -7.082  -2.203   2.554  0.00  0.00    +0.043 A 
ATOM     10  N   UNL     1      -5.834  -1.924   2.235  0.00  0.00    -0.375 N 
ATOM     11  C   UNL     1      -6.309  -5.330   0.564  0.00  0.00    +0.065 C 
ATOM     12  C   UNL     1      -5.551  -5.059  -0.710  0.00  0.00    +0.167 C 
ATOM     13  N   UNL     1      -4.924  -3.765  -0.873  0.00  0.00    -0.279 N 
ATOM     14  C   UNL     1      -4.239  -3.588  -2.051  0.00  0.00    +0.234 C 
ATOM     15  O   UNL     1      -3.616  -2.572  -2.277  0.00  0.00    -0.274 OA
ATOM     16  C   UNL     1      -4.298  -4.721  -3.053  0.00  0.00    +0.204 C 
ATOM     17  N   UNL     1      -5.689  -5.203  -3.133  0.00  0.00    -0.287 N 
ATOM     18  C   UNL     1      -6.339  -5.401  -1.950  0.00  0.00    +0.237 C 
ATOM     19  O   UNL     1      -7.473  -5.826  -1.897  0.00  0.00    -0.274 OA
ATOM     20  H   UNL     1      -5.344  -1.117   2.460  0.00  0.00    +0.160 HD
ENDROOT
BRANCH   1  24
ATOM     21  C   UNL     1      -1.200  -0.637   0.010  0.00  0.00    +0.120 A 
ATOM     22  C   UNL     1      -2.375   0.101   0.019  0.00  0.00    +0.046 A 
ATOM     23  C   UNL     1      -3.596  -0.545   0.027  0.00  0.00    +0.009 A 
ATOM     24  C   UNL     1      -3.648  -1.927   0.026  0.00  0.00    -0.025 A 
ATOM     25  C   UNL     1      -2.479  -2.665   0.017  0.00  0.00    +0.009 A 
ATOM     26  C   UNL     1      -1.255  -2.024   0.003  0.00  0.00    +0.046 A 
BRANCH  21  28
ATOM     27  C   UNL     1      -0.017   1.425   0.010  0.00  0.00    +0.277 C 
ATOM     28  O   UNL     1       0.002  -0.004   0.002  0.00  0.00    -0.495 OA
ENDBRANCH  21  28
ENDBRANCH   1  24
BRANCH  17  29
ATOM     29  C   UNL     1      -6.344  -5.455  -4.419  0.00  0.00    +0.143 C 
BRANCH  29  30
ATOM     30  C   UNL     1      -6.104  -6.885  -4.833  0.00  0.00    -0.029 A 
ATOM     31  C   UNL     1      -4.994  -7.208  -5.590  0.00  0.00    +0.007 A 
ATOM     32  C   UNL     1      -4.774  -8.518  -5.971  0.00  0.00    +0.022 A 
ATOM     33  C   UNL     1      -5.664  -9.507  -5.593  0.00  0.00    +0.059 A 
ATOM     34  C   UNL     1      -6.776  -9.184  -4.834  0.00  0.00    +0.060 A 
ATOM     35  C   UNL     1      -6.992  -7.872  -4.450  0.00  0.00    +0.026 A 
ATOM     36 CL   UNL     1      -7.895 -10.423  -4.360  0.00  0.00    -0.082 Cl
ATOM     37 CL   UNL     1      -5.388 -11.153  -6.071  0.00  0.00    -0.082 Cl
ENDBRANCH  29  30
ENDBRANCH  17  29
TORSDOF 4
