REMARK  Name = ZINC12158951
REMARK  5 active torsions:
REMARK  status: ('A' for Active; 'I' for Inactive)
REMARK    1  A    between atoms: C_13  and  N_61
REMARK    2  A    between atoms: C_14  and  N_61
REMARK    3  A    between atoms: N_25  and  C_28
REMARK    4  A    between atoms: C_28  and  C_29
REMARK    5  A    between atoms: C_29  and  C_30
REMARK                            x       y       z     vdW  Elec       q    Type
REMARK                         _______ _______ _______ _____ _____    ______ ____
ROOT
ATOM      1  C   UNL     1      -9.378  -0.616  -1.558  0.00  0.00    -0.065 C 
ATOM      2  C   UNL     1      -8.647   0.621  -1.027  0.00  0.00    -0.011 C 
ATOM      3  C   UNL     1      -7.152   0.326  -0.898  0.00  0.00    +0.035 C 
ATOM      4  C   UNL     1      -6.971  -0.948  -0.078  0.00  0.00    -0.023 A 
ATOM      5  C   UNL     1      -7.994  -1.813   0.086  0.00  0.00    -0.006 A 
ATOM      6  S   UNL     1      -7.335  -3.118   1.090  0.00  0.00    -0.073 S 
ATOM      7  C   UNL     1      -5.685  -2.496   1.285  0.00  0.00    +0.116 A 
ATOM      8  C   UNL     1      -5.702  -1.292   0.563  0.00  0.00    +0.076 A 
ATOM      9  C   UNL     1      -4.472  -0.557   0.553  0.00  0.00    +0.262 A 
ATOM     10  O   UNL     1      -4.388   0.503  -0.043  0.00  0.00    -0.267 OA
ATOM     11  N   UNL     1      -3.409  -1.059   1.209  0.00  0.00    -0.298 N 
ATOM     12  C   UNL     1      -3.486  -2.235   1.883  0.00  0.00    +0.203 A 
ATOM     13  N   UNL     1      -4.594  -2.925   1.914  0.00  0.00    -0.230 NA
ATOM     14  C   UNL     1      -9.383  -1.692  -0.463  0.00  0.00    +0.027 C 
ENDROOT
BRANCH   1  15
ATOM     15  N   UNL     1     -10.765  -0.254  -1.904  0.00  0.00    +0.388 N 
ATOM     16  H   UNL     1     -11.347  -0.296  -1.059  0.00  0.00    -0.084 HD
ATOM     17  H   UNL     1     -10.782   0.699  -2.284  0.00  0.00    -0.084 HD
BRANCH  15  30
ATOM     18  C   UNL     1     -10.923   0.198  -6.915  0.00  0.00    +0.001 A 
ATOM     19  C   UNL     1      -9.736  -0.037  -6.243  0.00  0.00    +0.000 A 
ATOM     20  C   UNL     1      -9.758  -0.489  -4.936  0.00  0.00    +0.003 A 
ATOM     21  C   UNL     1     -10.960  -0.709  -4.300  0.00  0.00    -0.049 A 
ATOM     22  C   UNL     1     -12.161  -0.475  -4.968  0.00  0.00    -0.016 A 
ATOM     23  C   UNL     1     -12.132  -0.018  -6.287  0.00  0.00    +0.009 A 
ATOM     24  C   UNL     1     -13.298  -0.786  -4.066  0.00  0.00    -0.016 A 
ATOM     25  C   UNL     1     -14.677  -0.714  -4.268  0.00  0.00    +0.009 A 
ATOM     26  C   UNL     1     -15.541  -1.065  -3.251  0.00  0.00    +0.001 A 
ATOM     27  C   UNL     1     -15.046  -1.490  -2.031  0.00  0.00    +0.000 A 
ATOM     28  C   UNL     1     -13.680  -1.563  -1.825  0.00  0.00    +0.003 A 
ATOM     29  C   UNL     1     -12.809  -1.213  -2.835  0.00  0.00    -0.049 A 
ATOM     30  C   UNL     1     -11.302  -1.189  -2.911  0.00  0.00    -0.008 C 
ENDBRANCH  15  30
ENDBRANCH   1  15
BRANCH  11  31
ATOM     31  C   UNL     1      -2.145  -0.317   1.202  0.00  0.00    +0.132 C 
BRANCH  31  32
ATOM     32  C   UNL     1      -1.298  -0.767   0.010  0.00  0.00    +0.077 C 
BRANCH  32  33
ATOM     33  C   UNL     1       0.002  -0.004   0.002  0.00  0.00    +0.043 A 
ATOM     34  C   UNL     1       1.199  -0.695  -0.013  0.00  0.00    +0.023 A 
ATOM     35  C   UNL     1       2.389   0.016  -0.021  0.00  0.00    +0.003 A 
ATOM     36  C   UNL     1       2.330   1.402  -0.013  0.00  0.00    +0.020 A 
ATOM     37  C   UNL     1       1.096   2.023   0.003  0.00  0.00    +0.111 A 
ATOM     38  N   UNL     1      -0.016   1.314   0.009  0.00  0.00    -0.260 NA
ENDBRANCH  32  33
ENDBRANCH  31  32
ENDBRANCH  11  31
TORSDOF 5
