REMARK  Name = ZINC39432376
REMARK  10 active torsions:
REMARK  status: ('A' for Active; 'I' for Inactive)
REMARK    1  A    between atoms: C_1  and  C_2
REMARK    2  A    between atoms: C_2  and  O_3
REMARK    3  A    between atoms: O_3  and  C_4
REMARK    4  A    between atoms: C_4  and  C_6
REMARK    5  A    between atoms: C_8  and  N_18
REMARK    6  A    between atoms: C_19  and  C_21
REMARK    7  A    between atoms: C_21  and  S_22
REMARK    8  A    between atoms: S_22  and  C_23
REMARK    9  A    between atoms: C_27  and  N_31
REMARK   10  A    between atoms: C_32  and  C_34
REMARK                            x       y       z     vdW  Elec       q    Type
REMARK                         _______ _______ _______ _____ _____    ______ ____
ROOT
ATOM      1  N   UNL     1      -0.612  -1.613   3.600  0.00  0.00    -0.301 N 
ATOM      2  C   UNL     1      -1.548  -2.064   4.458  0.00  0.00    +0.224 C 
ATOM      3  O   UNL     1      -1.218  -2.701   5.436  0.00  0.00    -0.275 OA
ATOM      4  H   UNL     1      -0.876  -1.104   2.818  0.00  0.00    +0.150 HD
ENDROOT
BRANCH   1   6
ATOM      5  C   UNL     1       1.527  -2.358   2.561  0.00  0.00    +0.155 C 
ATOM      6  C   UNL     1       0.805  -1.893   3.849  0.00  0.00    +0.153 C 
ATOM      7  S   UNL     1       1.028  -3.416   4.862  0.00  0.00    -0.106 S 
ATOM      8  C   UNL     1       1.302  -4.560   3.531  0.00  0.00    -0.013 C 
ATOM      9  C   UNL     1       1.541  -3.866   2.446  0.00  0.00    -0.044 C 
ATOM     10  C   UNL     1       1.873  -4.543   1.111  0.00  0.00    +0.032 C 
ATOM     11  C   UNL     1       3.184  -5.306   1.288  0.00  0.00    +0.004 C 
ATOM     12  C   UNL     1       2.971  -6.650   1.941  0.00  0.00    +0.001 C 
ATOM     13  C   UNL     1       2.640  -6.619   3.416  0.00  0.00    +0.005 C 
ATOM     14  C   UNL     1       1.229  -6.071   3.632  0.00  0.00    +0.042 C 
BRANCH   5  15
ATOM     15  C   UNL     1       0.818  -1.781   1.363  0.00  0.00    +0.317 C 
ATOM     16  O   UNL     1       0.347  -2.516   0.527  0.00  0.00    -0.250 OA
BRANCH  15  17
ATOM     17  O   UNL     1       0.709  -0.450   1.224  0.00  0.00    -0.464 OA
BRANCH  17  19
ATOM     18  C   UNL     1       0.002   1.557   0.080  0.00  0.00    +0.048 C 
ATOM     19  C   UNL     1       0.025   0.028   0.064  0.00  0.00    +0.229 C 
ENDBRANCH  17  19
ENDBRANCH  15  17
ENDBRANCH   5  15
ENDBRANCH   1   6
BRANCH   2  20
ATOM     20  C   UNL     1      -3.005  -1.777   4.202  0.00  0.00    +0.173 C 
BRANCH  20  21
ATOM     21  S   UNL     1      -4.007  -2.510   5.525  0.00  0.00    -0.078 S 
BRANCH  21  22
ATOM     22  C   UNL     1      -5.662  -2.093   5.087  0.00  0.00    +0.173 A 
ATOM     23  N   UNL     1      -6.686  -2.500   5.888  0.00  0.00    -0.300 N 
ATOM     24  C   UNL     1      -7.960  -2.189   5.568  0.00  0.00    +0.277 A 
ATOM     25  O   UNL     1      -8.885  -2.550   6.279  0.00  0.00    -0.266 OA
ATOM     26  C   UNL     1      -8.202  -1.444   4.403  0.00  0.00    +0.166 A 
ATOM     27  C   UNL     1      -7.121  -1.055   3.624  0.00  0.00    +0.299 A 
ATOM     28  N   UNL     1      -5.882  -1.389   3.996  0.00  0.00    -0.183 NA
ATOM     29  O   UNL     1      -7.321  -0.336   2.494  0.00  0.00    -0.264 OA
ATOM     30  H   UNL     1      -6.499  -3.014   6.689  0.00  0.00    +0.171 HD
BRANCH  26  31
ATOM     31  N   UNL     1      -9.516  -1.099   4.031  0.00  0.00    -0.277 N 
ATOM     32  C   UNL     1     -10.428  -2.065   3.804  0.00  0.00    +0.214 C 
ATOM     33  O   UNL     1     -10.142  -3.228   4.001  0.00  0.00    -0.276 OA
ATOM     34  C   UNL     1     -11.803  -1.701   3.304  0.00  0.00    +0.109 C 
ATOM     35  H   UNL     1      -9.765  -0.166   3.939  0.00  0.00    +0.155 HD
ENDBRANCH  26  31
ENDBRANCH  21  22
ENDBRANCH  20  21
ENDBRANCH   2  20
TORSDOF 8
