REMARK  Name = ZINC09287082
REMARK  4 active torsions:
REMARK  status: ('A' for Active; 'I' for Inactive)
REMARK    1  A    between atoms: C_1  and  C_2
REMARK    2  A    between atoms: C_4  and  C_35
REMARK    3  A    between atoms: N_20  and  C_23
REMARK    4  A    between atoms: C_26  and  N_29
REMARK                            x       y       z     vdW  Elec       q    Type
REMARK                         _______ _______ _______ _____ _____    ______ ____
ROOT
ATOM      1  C   UNL     1      -4.371  -3.500  -0.637  0.00  0.00    +0.044 C 
ATOM      2  C   UNL     1      -3.612  -2.425  -1.372  0.00  0.00    -0.050 A 
ATOM      3  C   UNL     1      -4.218  -1.730  -2.403  0.00  0.00    +0.008 A 
ATOM      4  C   UNL     1      -3.530  -0.745  -3.079  0.00  0.00    -0.029 A 
ATOM      5  C   UNL     1      -2.216  -0.441  -2.727  0.00  0.00    +0.039 A 
ATOM      6  C   UNL     1      -1.617  -1.146  -1.687  0.00  0.00    -0.027 A 
ATOM      7  C   UNL     1      -2.309  -2.129  -1.016  0.00  0.00    +0.008 A 
ATOM      8  C   UNL     1      -0.227  -0.588  -1.560  0.00  0.00    +0.053 C 
ATOM      9  C   UNL     1       0.017  -0.007  -0.163  0.00  0.00    +0.089 C 
ATOM     10  C   UNL     1       1.503  -0.339   0.148  0.00  0.00    +0.074 C 
ATOM     11  C   UNL     1       2.016  -1.084  -1.098  0.00  0.00    -0.054 C 
ATOM     12  C   UNL     1       0.425  -2.846  -0.999  0.00  0.00    -0.076 C 
ATOM     13  C   UNL     1       1.683  -3.338  -0.264  0.00  0.00    -0.020 C 
ATOM     14  C   UNL     1       2.796  -2.340  -0.653  0.00  0.00    -0.016 C 
ATOM     15  C   UNL     1       2.156   1.022   0.224  0.00  0.00    +0.228 C 
ATOM     16  O   UNL     1       3.330   1.225   0.451  0.00  0.00    -0.275 OA
ATOM     17  N   UNL     1       1.238   1.969   0.001  0.00  0.00    -0.210 N 
ATOM     18  C   UNL     1       0.004   1.504  -0.228  0.00  0.00    +0.229 C 
ATOM     19  O   UNL     1      -0.971   2.187  -0.458  0.00  0.00    -0.275 OA
ATOM     20  C   UNL     1      -0.134   0.475  -2.621  0.00  0.00    +0.212 C 
ATOM     21  O   UNL     1       0.826   1.175  -2.862  0.00  0.00    -0.277 OA
ATOM     22  N   UNL     1      -1.325   0.498  -3.251  0.00  0.00    -0.286 N 
ATOM     23  C   UNL     1      -4.199   0.006  -4.201  0.00  0.00    +0.045 C 
ATOM     24  H   UNL     1      -1.538   1.097  -3.983  0.00  0.00    +0.155 HD
ATOM     25  N   UNL     1       0.809  -1.606  -1.713  0.00  0.00    +0.395 N 
ATOM     26  H   UNL     1       0.965  -1.807  -2.707  0.00  0.00    -0.079 HD
ENDROOT
BRANCH  17  27
ATOM     27  C   UNL     1       1.542   3.338   0.007  0.00  0.00    +0.044 A 
ATOM     28  C   UNL     1       2.361   3.872  -0.979  0.00  0.00    +0.026 A 
ATOM     29  C   UNL     1       2.656   5.221  -0.974  0.00  0.00    +0.034 A 
ATOM     30  C   UNL     1       2.144   6.038   0.018  0.00  0.00    +0.126 A 
ATOM     31  C   UNL     1       1.333   5.508   1.004  0.00  0.00    +0.034 A 
ATOM     32  C   UNL     1       1.031   4.160   1.001  0.00  0.00    +0.026 A 
BRANCH  30  33
ATOM     33  N   UNL     1       2.466   7.483   0.024  0.00  0.00    +0.056 N 
ATOM     34  O   UNL     1       2.017   8.203   0.898  0.00  0.00    -0.126 OA
ATOM     35  O   UNL     1       3.181   7.951  -0.844  0.00  0.00    -0.126 OA
ENDBRANCH  30  33
ENDBRANCH  17  27
TORSDOF 2
