REMARK  Name = ZINC36539414
REMARK  12 active torsions:
REMARK  status: ('A' for Active; 'I' for Inactive)
REMARK    1  A    between atoms: C_1  and  C_2
REMARK    2  A    between atoms: C_5  and  S_8
REMARK    3  A    between atoms: S_8  and  C_11
REMARK    4  A    between atoms: C_11  and  N_12
REMARK    5  A    between atoms: C_13  and  C_15
REMARK    6  A    between atoms: C_15  and  C_17
REMARK    7  A    between atoms: C_15  and  N_26
REMARK    8  A    between atoms: C_17  and  C_19
REMARK    9  A    between atoms: C_17  and  C_20
REMARK   10  A    between atoms: N_26  and  C_27
REMARK   11  A    between atoms: C_28  and  C_30
REMARK   12  A    between atoms: C_33  and  N_36
REMARK                            x       y       z     vdW  Elec       q    Type
REMARK                         _______ _______ _______ _____ _____    ______ ____
ROOT
ATOM      1  C   UNL     1       3.362  -4.950   3.583  0.00  0.00    +0.169 C 
ENDROOT
BRANCH   1   3
ATOM      2  N   UNL     1       1.907  -4.040   1.802  0.00  0.00    -0.295 N 
ATOM      3  C   UNL     1       2.300  -5.107   2.525  0.00  0.00    +0.235 C 
ATOM      4  O   UNL     1       1.800  -6.193   2.325  0.00  0.00    -0.274 OA
ATOM      5  H   UNL     1       2.268  -3.161   1.998  0.00  0.00    +0.150 HD
BRANCH   2   6
ATOM      6  C   UNL     1       0.935  -4.208   0.719  0.00  0.00    +0.278 C 
BRANCH   6   7
ATOM      7  S   UNL     1      -0.732  -3.854   1.342  0.00  0.00    +0.013 S 
ATOM      8  O   UNL     1      -0.947  -4.530   2.574  0.00  0.00    -0.168 OA
ATOM      9  O   UNL     1      -1.679  -3.951   0.288  0.00  0.00    -0.168 OA
BRANCH   7  14
ATOM     10  C   UNL     1      -0.638   2.001   2.793  0.00  0.00    +0.044 C 
ATOM     11  C   UNL     1      -0.661   0.539   2.431  0.00  0.00    -0.050 A 
ATOM     12  C   UNL     1      -1.026   0.148   1.156  0.00  0.00    +0.005 A 
ATOM     13  C   UNL     1      -1.048  -1.193   0.823  0.00  0.00    +0.027 A 
ATOM     14  C   UNL     1      -0.704  -2.144   1.766  0.00  0.00    +0.090 A 
ATOM     15  C   UNL     1      -0.338  -1.754   3.040  0.00  0.00    +0.027 A 
ATOM     16  C   UNL     1      -0.312  -0.412   3.372  0.00  0.00    +0.005 A 
ENDBRANCH   7  14
ENDBRANCH   6   7
ENDBRANCH   2   6
ENDBRANCH   1   3
BRANCH   1  17
ATOM     17  N   UNL     1       3.512  -6.209   4.316  0.00  0.00    -0.288 N 
ATOM     18  C   UNL     1       4.032  -7.397   3.634  0.00  0.00    +0.133 C 
ATOM     19  C   UNL     1       3.170  -6.276   5.618  0.00  0.00    +0.247 C 
ATOM     20  O   UNL     1       2.636  -5.325   6.155  0.00  0.00    -0.270 OA
BRANCH  19  21
ATOM     21  C   UNL     1       3.445  -7.504   6.393  0.00  0.00    +0.037 A 
ATOM     22  C   UNL     1       4.587  -8.261   6.125  0.00  0.00    +0.015 A 
ATOM     23  C   UNL     1       4.838  -9.406   6.852  0.00  0.00    +0.033 A 
ATOM     24  C   UNL     1       3.961  -9.806   7.845  0.00  0.00    +0.126 A 
ATOM     25  C   UNL     1       2.828  -9.060   8.115  0.00  0.00    +0.033 A 
ATOM     26  C   UNL     1       2.568  -7.910   7.400  0.00  0.00    +0.015 A 
BRANCH  24  27
ATOM     27  N   UNL     1       4.237 -11.036   8.620  0.00  0.00    +0.056 N 
ATOM     28  O   UNL     1       5.227 -11.689   8.386  0.00  0.00    -0.126 OA
ATOM     29  O   UNL     1       3.473 -11.387   9.489  0.00  0.00    -0.126 OA
ENDBRANCH  24  27
ENDBRANCH  19  21
ENDBRANCH   1  17
BRANCH   1  30
ATOM     30  C   UNL     1       4.692  -4.585   2.920  0.00  0.00    +0.045 C 
ATOM     31  C   UNL     1       4.537  -3.268   2.158  0.00  0.00    +0.015 C 
BRANCH  30  32
ATOM     32  C   UNL     1       5.755  -4.431   3.978  0.00  0.00    -0.042 A 
ATOM     33  C   UNL     1       5.569  -3.543   5.021  0.00  0.00    +0.004 A 
ATOM     34  C   UNL     1       6.544  -3.403   5.991  0.00  0.00    +0.000 A 
ATOM     35  C   UNL     1       7.705  -4.150   5.918  0.00  0.00    +0.000 A 
ATOM     36  C   UNL     1       7.890  -5.038   4.875  0.00  0.00    +0.000 A 
ATOM     37  C   UNL     1       6.913  -5.182   3.908  0.00  0.00    +0.004 A 
ENDBRANCH  30  32
ENDBRANCH   1  30
TORSDOF 9
