REMARK  Name = ZINC63708030
REMARK  10 active torsions:
REMARK  status: ('A' for Active; 'I' for Inactive)
REMARK    1  A    between atoms: C_1  and  C_2
REMARK    2  A    between atoms: C_4  and  N_8
REMARK    3  A    between atoms: C_9  and  C_11
REMARK    4  A    between atoms: C_11  and  S_12
REMARK    5  A    between atoms: S_12  and  C_13
REMARK    6  A    between atoms: C_23  and  C_28
REMARK    7  A    between atoms: C_28  and  C_29
REMARK    8  A    between atoms: N_31  and  C_32
REMARK    9  A    between atoms: C_32  and  C_33
REMARK   10  A    between atoms: C_33  and  C_34
REMARK                            x       y       z     vdW  Elec       q    Type
REMARK                         _______ _______ _______ _____ _____    ______ ____
ROOT
ATOM      1  C   UNL     1      -2.847  -7.332   3.398  0.00  0.00    +0.169 C 
ATOM      2  N   UNL     1      -2.722  -6.626   4.490  0.00  0.00    -0.225 NA
ATOM      3  C   UNL     1      -3.052  -7.119   5.710  0.00  0.00    +0.077 A 
ATOM      4  C   UNL     1      -2.912  -6.347   6.867  0.00  0.00    +0.028 A 
ATOM      5  C   UNL     1      -3.257  -6.881   8.089  0.00  0.00    +0.002 A 
ATOM      6  C   UNL     1      -3.743  -8.177   8.187  0.00  0.00    +0.001 A 
ATOM      7  C   UNL     1      -3.890  -8.956   7.059  0.00  0.00    +0.013 A 
ATOM      8  C   UNL     1      -3.547  -8.435   5.816  0.00  0.00    +0.041 A 
ATOM      9  C   UNL     1      -3.687  -9.233   4.578  0.00  0.00    +0.139 C 
ATOM     10  N   UNL     1      -4.112 -10.453   4.404  0.00  0.00    -0.255 NA
ATOM     11  C   UNL     1      -4.045 -10.751   2.966  0.00  0.00    +0.202 C 
ATOM     12  C   UNL     1      -3.504  -9.478   2.353  0.00  0.00    +0.252 C 
ATOM     13  O   UNL     1      -3.282  -9.265   1.180  0.00  0.00    -0.272 OA
ATOM     14  N   UNL     1      -3.325  -8.625   3.388  0.00  0.00    -0.200 N 
ENDROOT
BRANCH   1  15
ATOM     15  S   UNL     1      -2.389  -6.593   1.865  0.00  0.00    -0.080 S 
BRANCH  15  16
ATOM     16  C   UNL     1      -1.828  -4.931   2.329  0.00  0.00    +0.172 C 
BRANCH  16  18
ATOM     17  N   UNL     1      -0.946  -2.918   1.194  0.00  0.00    -0.288 N 
ATOM     18  C   UNL     1      -1.402  -4.182   1.093  0.00  0.00    +0.225 C 
ATOM     19  O   UNL     1      -1.470  -4.717   0.006  0.00  0.00    -0.275 OA
ATOM     20  H   UNL     1      -0.891  -2.491   2.063  0.00  0.00    +0.151 HD
BRANCH  17  24
ATOM     21  C   UNL     1      -0.018   1.503   0.010  0.00  0.00    +0.067 C 
ATOM     22  C   UNL     1       0.002  -0.004   0.002  0.00  0.00    +0.060 C 
ATOM     23  C   UNL     1      -1.086  -0.777   0.003  0.00  0.00    +0.045 C 
ATOM     24  C   UNL     1      -0.531  -2.190  -0.007  0.00  0.00    +0.239 C 
ATOM     25  N   UNL     1       0.926  -1.973  -0.013  0.00  0.00    -0.160 NA
ATOM     26  N   UNL     1       1.125  -0.756  -0.013  0.00  0.00    -0.157 NA
ENDBRANCH  17  24
ENDBRANCH  16  18
ENDBRANCH  15  16
ENDBRANCH   1  15
BRANCH  11  27
ATOM     27  C   UNL     1      -3.096 -11.922   2.705  0.00  0.00    +0.132 C 
BRANCH  27  28
ATOM     28  C   UNL     1      -3.673 -13.179   3.303  0.00  0.00    +0.216 C 
ATOM     29  O   UNL     1      -4.739 -13.143   3.881  0.00  0.00    -0.276 OA
ATOM     30  N   UNL     1      -3.005 -14.345   3.195  0.00  0.00    -0.315 N 
ATOM     31  H   UNL     1      -2.153 -14.374   2.733  0.00  0.00    +0.149 HD
BRANCH  30  32
ATOM     32  C   UNL     1      -3.566 -15.567   3.776  0.00  0.00    +0.109 C 
BRANCH  32  33
ATOM     33  C   UNL     1      -2.616 -16.738   3.515  0.00  0.00    +0.054 C 
BRANCH  33  34
ATOM     34  C   UNL     1      -3.193 -17.996   4.113  0.00  0.00    -0.046 A 
ATOM     35  C   UNL     1      -2.896 -18.340   5.418  0.00  0.00    +0.004 A 
ATOM     36  C   UNL     1      -3.426 -19.493   5.967  0.00  0.00    +0.000 A 
ATOM     37  C   UNL     1      -4.252 -20.302   5.210  0.00  0.00    +0.000 A 
ATOM     38  C   UNL     1      -4.550 -19.957   3.905  0.00  0.00    +0.000 A 
ATOM     39  C   UNL     1      -4.024 -18.802   3.358  0.00  0.00    +0.004 A 
ENDBRANCH  33  34
ENDBRANCH  32  33
ENDBRANCH  30  32
ENDBRANCH  27  28
ENDBRANCH  11  27
TORSDOF 9
