REMARK  Name = ZINC26600063
REMARK  3 active torsions:
REMARK  status: ('A' for Active; 'I' for Inactive)
REMARK    1  A    between atoms: N_15  and  C_18
REMARK    2  A    between atoms: C_26  and  C_29
REMARK    3  A    between atoms: C_33  and  O_35
REMARK                            x       y       z     vdW  Elec       q    Type
REMARK                         _______ _______ _______ _____ _____    ______ ____
ROOT
ATOM      1  C   UNL     1       1.553   0.497   3.550  0.00  0.00    +0.002 A 
ATOM      2  C   UNL     1       2.864   0.936   3.592  0.00  0.00    +0.001 A 
ATOM      3  C   UNL     1       3.836   0.223   2.933  0.00  0.00    +0.016 A 
ATOM      4  C   UNL     1       3.534  -0.944   2.215  0.00  0.00    +0.030 A 
ATOM      5  C   UNL     1       2.221  -1.387   2.170  0.00  0.00    +0.045 A 
ATOM      6  C   UNL     1       1.241  -0.644   2.851  0.00  0.00    +0.024 A 
ATOM      7  N   UNL     1       1.747  -2.492   1.519  0.00  0.00    -0.316 N 
ATOM      8  C   UNL     1       2.148  -3.571   0.944  0.00  0.00    +0.027 C 
ATOM      9  C   UNL     1       1.163  -4.512   0.703  0.00  0.00    +0.117 C 
ATOM     10  C   UNL     1       1.356  -5.591  -0.282  0.00  0.00    +0.258 C 
ATOM     11  O   UNL     1       2.392  -5.685  -0.912  0.00  0.00    -0.270 OA
ATOM     12  N   UNL     1       0.352  -6.474  -0.465  0.00  0.00    -0.235 N 
ATOM     13  C   UNL     1      -0.795  -6.383   0.223  0.00  0.00    +0.320 C 
ATOM     14  O   UNL     1      -1.660  -7.209   0.011  0.00  0.00    -0.251 OA
ATOM     15  N   UNL     1      -1.038  -5.428   1.132  0.00  0.00    -0.190 N 
ATOM     16  C   UNL     1      -0.122  -4.482   1.423  0.00  0.00    +0.265 C 
ATOM     17  O   UNL     1      -0.352  -3.624   2.255  0.00  0.00    -0.269 OA
ATOM     18  C   UNL     1       3.515  -3.956   0.500  0.00  0.00    +0.071 C 
ATOM     19  C   UNL     1       4.577  -3.504   1.461  0.00  0.00    +0.087 C 
ATOM     20  S   UNL     1       4.876  -1.743   1.431  0.00  0.00    -0.115 S 
ATOM     21  H   UNL     1       0.779  -2.448   1.476  0.00  0.00    +0.152 HD
ATOM     22  H   UNL     1       0.462  -7.190  -1.110  0.00  0.00    +0.159 HD
ENDROOT
BRANCH  15  23
ATOM     23  C   UNL     1      -2.270  -5.417   1.800  0.00  0.00    +0.047 A 
ATOM     24  C   UNL     1      -3.341  -4.709   1.271  0.00  0.00    +0.024 A 
ATOM     25  C   UNL     1      -4.555  -4.699   1.931  0.00  0.00    +0.003 A 
ATOM     26  C   UNL     1      -4.704  -5.394   3.118  0.00  0.00    +0.020 A 
ATOM     27  C   UNL     1      -3.638  -6.101   3.647  0.00  0.00    +0.043 A 
ATOM     28  C   UNL     1      -2.423  -6.118   2.988  0.00  0.00    +0.044 A 
ATOM     29 CL   UNL     1      -3.829  -6.971   5.137  0.00  0.00    -0.083 Cl
ENDBRANCH  15  23
BRANCH  19  30
ATOM     30  C   UNL     1       5.863  -4.213   1.125  0.00  0.00    -0.030 A 
ATOM     31  C   UNL     1       6.438  -4.048  -0.122  0.00  0.00    +0.005 A 
ATOM     32  C   UNL     1       7.618  -4.698  -0.433  0.00  0.00    +0.004 A 
ATOM     33  C   UNL     1       8.226  -5.513   0.501  0.00  0.00    +0.045 A 
ATOM     34  C   UNL     1       7.652  -5.680   1.753  0.00  0.00    +0.117 A 
ATOM     35  C   UNL     1       6.471  -5.022   2.065  0.00  0.00    +0.050 A 
BRANCH  34  36
ATOM     36  O   UNL     1       8.249  -6.481   2.674  0.00  0.00    -0.507 OA
ATOM     37  H   UNL     1       8.882  -6.023   3.244  0.00  0.00    +0.292 HD
ENDBRANCH  34  36
ENDBRANCH  19  30
TORSDOF 3
