REMARK  Name = ZINC13500071
REMARK  12 active torsions:
REMARK  status: ('A' for Active; 'I' for Inactive)
REMARK    1  A    between atoms: C_1  and  C_2
REMARK    2  A    between atoms: C_2  and  C_3
REMARK    3  A    between atoms: C_3  and  C_4
REMARK    4  A    between atoms: C_4  and  C_6
REMARK    5  A    between atoms: C_4  and  N_69
REMARK    6  A    between atoms: N_10  and  C_11
REMARK    7  A    between atoms: C_11  and  C_12
REMARK    8  A    between atoms: C_17  and  C_18
REMARK    9  A    between atoms: C_17  and  N_69
REMARK   10  A    between atoms: C_22  and  C_31
REMARK   11  A    between atoms: C_24  and  C_30
REMARK   12  A    between atoms: C_32  and  N_69
REMARK                            x       y       z     vdW  Elec       q    Type
REMARK                         _______ _______ _______ _____ _____    ______ ____
ROOT
ATOM      1  N   UNL     1      -1.156   7.920  -1.020  0.00  0.00    +0.391 N 
ATOM      2  H   UNL     1      -0.233   7.656  -1.383  0.00  0.00    -0.080 HD
ENDROOT
BRANCH   1   3
ATOM      3  C   UNL     1      -2.199   7.335  -1.890  0.00  0.00    -0.067 C 
ATOM      4  C   UNL     1      -1.837   5.868  -2.202  0.00  0.00    -0.015 C 
ATOM      5  C   UNL     1      -2.263   5.679  -3.680  0.00  0.00    -0.002 C 
ATOM      6  C   UNL     1      -1.883   7.037  -4.322  0.00  0.00    -0.002 C 
ATOM      7  C   UNL     1      -2.228   8.078  -3.237  0.00  0.00    -0.015 C 
ENDBRANCH   1   3
BRANCH   1   8
ATOM      8  C   UNL     1      -1.268   9.394  -1.019  0.00  0.00    +0.003 C 
BRANCH   8   9
ATOM      9  C   UNL     1      -2.620   9.821  -0.508  0.00  0.00    +0.139 A 
ATOM     10  N   UNL     1      -3.362   9.186   0.366  0.00  0.00    -0.115 NA
ATOM     11  N   UNL     1      -4.440   9.870   0.543  0.00  0.00    -0.023 NA
ATOM     12  N   UNL     1      -4.408  10.919  -0.202  0.00  0.00    -0.044 NA
ATOM     13  N   UNL     1      -3.301  10.925  -0.865  0.00  0.00    -0.223 N 
BRANCH  13  14
ATOM     14  C   UNL     1      -2.869  11.943  -1.826  0.00  0.00    +0.221 C 
BRANCH  14  15
ATOM     15  C   UNL     1      -3.346  11.566  -3.205  0.00  0.00    +0.126 A 
ATOM     16  C   UNL     1      -4.522  11.919  -3.754  0.00  0.00    +0.046 A 
ATOM     17  C   UNL     1      -4.554  11.356  -5.050  0.00  0.00    +0.041 A 
ATOM     18  C   UNL     1      -3.399  10.687  -5.213  0.00  0.00    +0.195 A 
ATOM     19  O   UNL     1      -2.671  10.817  -4.092  0.00  0.00    -0.466 OA
ENDBRANCH  14  15
ENDBRANCH  13  14
ENDBRANCH   8   9
BRANCH   8  20
ATOM     20  C   UNL     1      -0.175   9.974  -0.119  0.00  0.00    -0.008 C 
BRANCH  20  22
ATOM     21  C   UNL     1       2.282  10.015   0.331  0.00  0.00    +0.004 C 
ATOM     22  C   UNL     1       1.197   9.539  -0.637  0.00  0.00    -0.005 C 
ENDBRANCH  20  22
ENDBRANCH   8  20
ENDBRANCH   1   8
BRANCH   1  23
ATOM     23  C   UNL     1      -1.298   7.402   0.357  0.00  0.00    -0.036 C 
BRANCH  23  24
ATOM     24  C   UNL     1      -0.866   5.958   0.378  0.00  0.00    +0.001 A 
ATOM     25  C   UNL     1       0.425   5.635   0.117  0.00  0.00    +0.017 A 
ATOM     26  C   UNL     1       0.813   4.224   0.146  0.00  0.00    -0.001 A 
ATOM     27  C   UNL     1       2.129   3.829  -0.115  0.00  0.00    +0.013 A 
ATOM     28  C   UNL     1       2.458   2.504  -0.081  0.00  0.00    -0.050 A 
ATOM     29  C   UNL     1       1.498   1.545   0.211  0.00  0.00    +0.008 A 
ATOM     30  C   UNL     1       0.194   1.910   0.466  0.00  0.00    -0.026 A 
ATOM     31  C   UNL     1      -0.164   3.254   0.442  0.00  0.00    +0.052 A 
ATOM     32  N   UNL     1      -1.460   3.648   0.698  0.00  0.00    -0.322 N 
ATOM     33  H   UNL     1      -2.131   2.979   0.902  0.00  0.00    +0.169 HD
ATOM     34  C   UNL     1      -1.806   4.947   0.670  0.00  0.00    +0.251 A 
ATOM     35  O   UNL     1      -2.961   5.259   0.902  0.00  0.00    -0.268 OA
ATOM     36  C   UNL     1      -0.839   0.858   0.775  0.00  0.00    +0.046 C 
ATOM     37  C   UNL     1       3.877   2.080  -0.362  0.00  0.00    +0.044 C 
ENDBRANCH  23  24
ENDBRANCH   1  23
TORSDOF 9
