REMARK  Name = ZINC17921180
REMARK  8 active torsions:
REMARK  status: ('A' for Active; 'I' for Inactive)
REMARK    1  A    between atoms: C_1  and  C_2
REMARK    2  A    between atoms: C_3  and  S_24
REMARK    3  A    between atoms: N_9  and  C_12
REMARK    4  A    between atoms: C_12  and  C_13
REMARK    5  A    between atoms: C_18  and  C_21
REMARK    6  A    between atoms: S_24  and  N_27
REMARK    7  A    between atoms: C_29  and  C_36
REMARK    8  A    between atoms: C_32  and  C_35
REMARK                            x       y       z     vdW  Elec       q    Type
REMARK                         _______ _______ _______ _____ _____    ______ ____
ROOT
ATOM      1  C   UNL     1      -0.019   1.502  -0.058  0.00  0.00    +0.053 C 
ATOM      2  C   UNL     1       0.002  -0.004  -0.029  0.00  0.00    +0.016 A 
ATOM      3  C   UNL     1      -1.040  -0.851   0.002  0.00  0.00    +0.130 A 
ATOM      4  C   UNL     1      -0.791  -2.280   0.026  0.00  0.00    +0.099 A 
ATOM      5  C   UNL     1       0.566  -2.647   0.013  0.00  0.00    +0.117 A 
ATOM      6  S   UNL     1       1.416  -1.090  -0.035  0.00  0.00    -0.072 S 
ATOM      7  N   UNL     1       0.951  -3.920   0.032  0.00  0.00    -0.230 NA
ATOM      8  C   UNL     1       0.073  -4.888   0.062  0.00  0.00    +0.203 A 
ATOM      9  N   UNL     1      -1.259  -4.627   0.075  0.00  0.00    -0.290 N 
ATOM     10  C   UNL     1      -1.726  -3.365   0.059  0.00  0.00    +0.264 A 
ATOM     11  O   UNL     1      -2.926  -3.149   0.072  0.00  0.00    -0.267 OA
ENDROOT
BRANCH   3  12
ATOM     12  S   UNL     1      -2.690  -0.233   0.014  0.00  0.00    +0.062 S 
ATOM     13  O   UNL     1      -2.621   1.119  -0.418  0.00  0.00    -0.153 OA
ATOM     14  O   UNL     1      -3.492  -1.203  -0.645  0.00  0.00    -0.153 OA
BRANCH  12  15
ATOM     15  N   UNL     1      -3.189  -0.200   1.593  0.00  0.00    -0.176 NA
ATOM     16  C   UNL     1      -3.852  -1.366   2.193  0.00  0.00    +0.112 C 
ATOM     17  C   UNL     1      -3.108  -1.750   3.476  0.00  0.00    +0.002 C 
ATOM     18  C   UNL     1      -3.026  -0.530   4.397  0.00  0.00    +0.009 C 
ATOM     19  C   UNL     1      -2.244   0.586   3.701  0.00  0.00    +0.002 C 
ATOM     20  C   UNL     1      -2.973   0.994   2.422  0.00  0.00    +0.112 C 
ATOM     21  C   UNL     1      -2.134   1.792   4.635  0.00  0.00    +0.009 C 
ATOM     22  C   UNL     1      -3.861  -2.877   4.185  0.00  0.00    +0.009 C 
ENDBRANCH  12  15
ENDBRANCH   3  12
BRANCH   9  23
ATOM     23  C   UNL     1      -2.208  -5.743   0.109  0.00  0.00    +0.222 C 
BRANCH  23  24
ATOM     24  C   UNL     1      -2.514  -6.100   1.541  0.00  0.00    +0.235 C 
ATOM     25  O   UNL     1      -1.990  -5.483   2.444  0.00  0.00    -0.274 OA
ATOM     26  N   UNL     1      -3.368  -7.105   1.817  0.00  0.00    -0.300 N 
ATOM     27  C   UNL     1      -4.005  -7.865   0.733  0.00  0.00    +0.108 C 
ATOM     28  C   UNL     1      -5.522  -7.848   0.944  0.00  0.00    +0.032 C 
ATOM     29  C   UNL     1      -5.844  -8.365   2.348  0.00  0.00    +0.078 C 
ATOM     30  C   UNL     1      -5.201  -7.448   3.391  0.00  0.00    +0.032 C 
ATOM     31  C   UNL     1      -3.676  -7.465   3.208  0.00  0.00    +0.108 C 
BRANCH  29  32
ATOM     32  C   UNL     1      -7.338  -8.381   2.546  0.00  0.00    +0.214 C 
ATOM     33  O   UNL     1      -8.073  -8.015   1.653  0.00  0.00    -0.276 OA
ATOM     34  N   UNL     1      -7.858  -8.801   3.716  0.00  0.00    -0.329 N 
ATOM     35  H   UNL     1      -7.271  -9.094   4.431  0.00  0.00    +0.145 HD
ATOM     36  H   UNL     1      -8.819  -8.812   3.844  0.00  0.00    +0.145 HD
ENDBRANCH  29  32
ENDBRANCH  23  24
ENDBRANCH   9  23
TORSDOF 5
