REMARK  Name = ZINC40892885
REMARK  7 active torsions:
REMARK  status: ('A' for Active; 'I' for Inactive)
REMARK    1  A    between atoms: C_1  and  C_2
REMARK    2  A    between atoms: C_2  and  C_4
REMARK    3  A    between atoms: C_2  and  N_10
REMARK    4  A    between atoms: C_11  and  C_13
REMARK    5  A    between atoms: C_18  and  O_24
REMARK    6  A    between atoms: O_24  and  C_25
REMARK    7  A    between atoms: C_25  and  C_27
REMARK                            x       y       z     vdW  Elec       q    Type
REMARK                         _______ _______ _______ _____ _____    ______ ____
ROOT
ATOM      1  C   UNL     1       2.838  -1.002   2.345  0.00  0.00    +0.122 A 
ATOM      2  C   UNL     1       4.211  -1.218   2.347  0.00  0.00    +0.031 A 
ATOM      3  C   UNL     1       4.806  -1.722   3.529  0.00  0.00    +0.019 A 
ATOM      4  C   UNL     1       6.203  -1.771   3.658  0.00  0.00    +0.015 A 
ATOM      5  C   UNL     1       6.763  -2.219   4.817  0.00  0.00    +0.047 A 
ATOM      6  C   UNL     1       5.958  -2.640   5.876  0.00  0.00    +0.135 A 
ATOM      7  C   UNL     1       4.577  -2.618   5.761  0.00  0.00    +0.093 A 
ATOM      8  C   UNL     1       3.990  -2.172   4.587  0.00  0.00    +0.143 A 
ATOM      9  O   UNL     1       2.643  -2.187   4.447  0.00  0.00    -0.422 OA
ATOM     10  C   UNL     1       2.107  -1.279   3.594  0.00  0.00    +0.350 A 
ATOM     11  O   UNL     1       1.059  -0.716   3.848  0.00  0.00    -0.244 OA
ENDROOT
BRANCH   1  13
ATOM     12  N   UNL     1       0.811  -0.305   1.174  0.00  0.00    -0.305 N 
ATOM     13  C   UNL     1       2.143  -0.510   1.145  0.00  0.00    +0.251 C 
ATOM     14  O   UNL     1       2.770  -0.289   0.126  0.00  0.00    -0.270 OA
ATOM     15  H   UNL     1       0.311  -0.481   1.986  0.00  0.00    +0.150 HD
BRANCH  12  17
ATOM     16  C   UNL     1       0.205   1.711  -0.071  0.00  0.00    +0.033 C 
ATOM     17  C   UNL     1       0.119   0.184  -0.021  0.00  0.00    +0.100 C 
BRANCH  17  18
ATOM     18  C   UNL     1      -1.328  -0.235   0.029  0.00  0.00    -0.027 A 
ATOM     19  C   UNL     1      -2.021  -0.186   1.224  0.00  0.00    +0.005 A 
ATOM     20  C   UNL     1      -3.348  -0.571   1.270  0.00  0.00    +0.000 A 
ATOM     21  C   UNL     1      -3.981  -1.005   0.121  0.00  0.00    +0.000 A 
ATOM     22  C   UNL     1      -3.289  -1.054  -1.074  0.00  0.00    +0.000 A 
ATOM     23  C   UNL     1      -1.963  -0.664  -1.121  0.00  0.00    +0.005 A 
ENDBRANCH  17  18
ENDBRANCH  12  17
ENDBRANCH   1  13
BRANCH   6  24
ATOM     24  O   UNL     1       6.531  -3.073   7.027  0.00  0.00    -0.422 OA
BRANCH  24  25
ATOM     25  C   UNL     1       7.163  -2.168   7.799  0.00  0.00    +0.344 C 
ATOM     26  O   UNL     1       7.119  -0.988   7.512  0.00  0.00    -0.245 OA
BRANCH  25  27
ATOM     27  C   UNL     1       7.911  -2.610   8.994  0.00  0.00    +0.060 A 
ATOM     28  C   UNL     1       7.968  -3.966   9.324  0.00  0.00    +0.015 A 
ATOM     29  C   UNL     1       8.668  -4.372  10.441  0.00  0.00    +0.002 A 
ATOM     30  C   UNL     1       9.312  -3.440  11.235  0.00  0.00    +0.015 A 
ATOM     31  C   UNL     1       9.259  -2.094  10.915  0.00  0.00    +0.019 A 
ATOM     32  C   UNL     1       8.567  -1.674   9.796  0.00  0.00    +0.030 A 
ATOM     33 BR   UNL     1      10.142  -0.828  12.008  0.00  0.00    -0.050 Br
ENDBRANCH  25  27
ENDBRANCH  24  25
ENDBRANCH   6  24
TORSDOF 6
