REMARK  Name = ZINC39413874
REMARK  7 active torsions:
REMARK  status: ('A' for Active; 'I' for Inactive)
REMARK    1  A    between atoms: C_4  and  N_7
REMARK    2  A    between atoms: C_8  and  C_19
REMARK    3  A    between atoms: C_11  and  C_14
REMARK    4  A    between atoms: C_19  and  O_21
REMARK    5  A    between atoms: O_21  and  C_22
REMARK    6  A    between atoms: C_22  and  C_23
REMARK    7  A    between atoms: C_23  and  C_25
REMARK                            x       y       z     vdW  Elec       q    Type
REMARK                         _______ _______ _______ _____ _____    ______ ____
ROOT
ATOM      1  N   UNL     1       3.620  -0.649  -0.036  0.00  0.00    -0.253 N 
ATOM      2  C   UNL     1       3.772  -2.113  -0.051  0.00  0.00    +0.201 C 
ATOM      3  C   UNL     1       5.295  -2.367  -0.147  0.00  0.00    +0.061 C 
ATOM      4  C   UNL     1       5.795  -1.001  -0.691  0.00  0.00    +0.112 C 
ATOM      5  N   UNL     1       4.854  -0.053  -0.046  0.00  0.00    -0.231 NA
ATOM      6  H   UNL     1       4.828   0.825  -0.542  0.00  0.00    +0.145 HD
ENDROOT
BRANCH   1  10
ATOM      7  C   UNL     1      -0.017   1.379   0.010  0.00  0.00    +0.000 A 
ATOM      8  C   UNL     1       1.169   2.089   0.002  0.00  0.00    +0.002 A 
ATOM      9  C   UNL     1       2.377   1.420  -0.013  0.00  0.00    +0.024 A 
ATOM     10  C   UNL     1       2.400   0.031  -0.021  0.00  0.00    +0.045 A 
ATOM     11  C   UNL     1       1.206  -0.680  -0.013  0.00  0.00    +0.024 A 
ATOM     12  C   UNL     1       0.002  -0.004   0.002  0.00  0.00    +0.002 A 
ENDBRANCH   1  10
BRANCH   4  13
ATOM     13  C   UNL     1       7.214  -0.735  -0.261  0.00  0.00    +0.008 A 
ATOM     14  C   UNL     1       8.363  -0.888  -0.964  0.00  0.00    +0.013 A 
ATOM     15  C   UNL     1       9.566  -0.578  -0.359  0.00  0.00    +0.008 A 
ATOM     16  C   UNL     1       9.562  -0.130   0.920  0.00  0.00    +0.045 A 
ATOM     17  S   UNL     1       7.819  -0.130   1.306  0.00  0.00    -0.100 S 
ENDBRANCH   4  13
BRANCH   2  18
ATOM     18  C   UNL     1       3.067  -2.698  -1.248  0.00  0.00    +0.330 C 
ATOM     19  O   UNL     1       2.784  -1.993  -2.187  0.00  0.00    -0.249 OA
BRANCH  18  20
ATOM     20  O   UNL     1       2.756  -4.004  -1.271  0.00  0.00    -0.456 OA
BRANCH  20  21
ATOM     21  C   UNL     1       2.089  -4.491  -2.438  0.00  0.00    +0.308 C 
BRANCH  21  22
ATOM     22  C   UNL     1       1.822  -5.966  -2.284  0.00  0.00    +0.198 C 
ATOM     23  O   UNL     1       2.167  -6.541  -1.280  0.00  0.00    -0.291 OA
BRANCH  22  24
ATOM     24  C   UNL     1       1.124  -6.724  -3.384  0.00  0.00    +0.197 C 
ATOM     25  C   UNL     1      -0.359  -6.423  -3.368  0.00  0.00    +0.009 C 
ATOM     26  C   UNL     1      -0.966  -7.588  -3.151  0.00  0.00    +0.017 C 
ATOM     27  C   UNL     1       0.037  -8.645  -3.022  0.00  0.00    +0.106 C 
ATOM     28  N   UNL     1       1.233  -8.170  -3.154  0.00  0.00    -0.276 NA
ENDBRANCH  22  24
ENDBRANCH  21  22
ENDBRANCH  20  21
ENDBRANCH  18  20
ENDBRANCH   2  18
TORSDOF 7
