REMARK  Name = ZINC36013869
REMARK  10 active torsions:
REMARK  status: ('A' for Active; 'I' for Inactive)
REMARK    1  A    between atoms: C_1  and  C_2
REMARK    2  A    between atoms: C_2  and  N_3
REMARK    3  A    between atoms: C_4  and  C_23
REMARK    4  A    between atoms: C_5  and  C_18
REMARK    5  A    between atoms: C_6  and  C_11
REMARK    6  A    between atoms: C_18  and  O_20
REMARK    7  A    between atoms: O_20  and  C_21
REMARK    8  A    between atoms: C_21  and  C_22
REMARK    9  A    between atoms: C_23  and  N_24
REMARK   10  A    between atoms: C_31  and  C_33
REMARK                            x       y       z     vdW  Elec       q    Type
REMARK                         _______ _______ _______ _____ _____    ______ ____
ROOT
ATOM      1  N   UNL     1       0.961  -0.559  -1.422  0.00  0.00    -0.261 N 
ATOM      2  C   UNL     1       0.085  -1.034  -2.356  0.00  0.00    +0.010 C 
ATOM      3  C   UNL     1       0.515  -1.756  -3.413  0.00  0.00    +0.076 C 
ATOM      4  C   UNL     1       2.002  -2.022  -3.526  0.00  0.00    +0.143 C 
ATOM      5  N   UNL     1       2.862  -1.466  -2.468  0.00  0.00    -0.288 N 
ATOM      6  C   UNL     1       2.284  -0.760  -1.476  0.00  0.00    +0.307 C 
ATOM      7  O   UNL     1       2.985  -0.294  -0.600  0.00  0.00    -0.252 OA
ATOM      8  H   UNL     1       3.822  -1.602  -2.485  0.00  0.00    +0.151 HD
ENDROOT
BRANCH   4   9
ATOM      9  C   UNL     1       2.207  -3.514  -3.554  0.00  0.00    -0.022 A 
ATOM     10  C   UNL     1       2.178  -4.238  -2.377  0.00  0.00    +0.007 A 
ATOM     11  C   UNL     1       2.365  -5.607  -2.402  0.00  0.00    +0.020 A 
ATOM     12  C   UNL     1       2.582  -6.253  -3.605  0.00  0.00    +0.041 A 
ATOM     13  C   UNL     1       2.611  -5.529  -4.784  0.00  0.00    +0.020 A 
ATOM     14  C   UNL     1       2.418  -4.160  -4.758  0.00  0.00    +0.007 A 
ATOM     15 CL   UNL     1       2.818  -7.973  -3.638  0.00  0.00    -0.084 Cl
ENDBRANCH   4   9
BRANCH   1  17
ATOM     16  C   UNL     1       0.508   1.709  -0.629  0.00  0.00    +0.025 C 
ATOM     17  C   UNL     1       0.424   0.217  -0.302  0.00  0.00    +0.111 C 
ENDBRANCH   1  17
BRANCH   3  18
ATOM     18  C   UNL     1      -0.392  -2.248  -4.380  0.00  0.00    +0.339 C 
ATOM     19  O   UNL     1      -1.572  -1.961  -4.309  0.00  0.00    -0.245 OA
BRANCH  18  20
ATOM     20  O   UNL     1       0.052  -3.037  -5.381  0.00  0.00    -0.462 OA
BRANCH  20  21
ATOM     21  C   UNL     1      -0.919  -3.498  -6.323  0.00  0.00    +0.229 C 
ATOM     22  C   UNL     1      -0.233  -4.371  -7.376  0.00  0.00    +0.048 C 
ENDBRANCH  20  21
ENDBRANCH  18  20
ENDBRANCH   3  18
BRANCH   2  23
ATOM     23  C   UNL     1      -1.387  -0.746  -2.205  0.00  0.00    -0.026 C 
BRANCH  23  24
ATOM     24  N   UNL     1      -2.057  -1.916  -1.622  0.00  0.00    +0.384 N 
ATOM     25  C   UNL     1      -3.501  -1.705  -1.696  0.00  0.00    -0.077 C 
ATOM     26  C   UNL     1      -4.196  -3.044  -1.808  0.00  0.00    +0.000 C 
ATOM     27  C   UNL     1      -4.595  -3.533  -0.404  0.00  0.00    +0.106 C 
ATOM     28  N   UNL     1      -3.536  -3.238   0.582  0.00  0.00    -0.299 N 
ATOM     29  C   UNL     1      -2.129  -3.417   0.286  0.00  0.00    +0.089 C 
ATOM     30  C   UNL     1      -1.551  -2.117  -0.318  0.00  0.00    -0.059 C 
ATOM     31  C   UNL     1      -3.890  -2.785   1.801  0.00  0.00    +0.253 C 
ATOM     32  O   UNL     1      -5.066  -2.728   2.111  0.00  0.00    -0.269 OA
ATOM     33  H   UNL     1      -1.827  -2.724  -2.180  0.00  0.00    -0.081 HD
BRANCH  31  34
ATOM     34  C   UNL     1      -2.860  -2.361   2.754  0.00  0.00    +0.074 A 
ATOM     35  C   UNL     1      -2.998  -1.992   4.084  0.00  0.00    +0.021 A 
ATOM     36  C   UNL     1      -1.837  -1.640   4.729  0.00  0.00    +0.008 A 
ATOM     37  C   UNL     1      -0.667  -1.674   4.045  0.00  0.00    +0.046 A 
ATOM     38  S   UNL     1      -1.103  -2.193   2.508  0.00  0.00    -0.092 S 
ENDBRANCH  31  34
ENDBRANCH  23  24
ENDBRANCH   2  23
TORSDOF 8
