REMARK  Name = ZINC09138297
REMARK  7 active torsions:
REMARK  status: ('A' for Active; 'I' for Inactive)
REMARK    1  A    between atoms: C_1  and  N_2
REMARK    2  A    between atoms: C_10  and  C_12
REMARK    3  A    between atoms: C_12  and  C_14
REMARK    4  A    between atoms: C_12  and  N_63
REMARK    5  A    between atoms: C_14  and  N_15
REMARK    6  A    between atoms: C_16  and  C_18
REMARK    7  A    between atoms: N_20  and  C_21
REMARK                            x       y       z     vdW  Elec       q    Type
REMARK                         _______ _______ _______ _____ _____    ______ ____
ROOT
ATOM      1  C   UNL     1       3.277  -1.276   4.705  0.00  0.00    -0.020 C 
ENDROOT
BRANCH   1  11
ATOM      2  C   UNL     1      -3.033  -1.010   4.592  0.00  0.00    +0.129 C 
ATOM      3  N   UNL     1      -2.210  -0.467   3.503  0.00  0.00    -0.333 N 
ATOM      4  C   UNL     1      -2.585   0.916   3.201  0.00  0.00    +0.105 C 
ATOM      5  C   UNL     1      -1.677   1.438   2.080  0.00  0.00    +0.024 C 
ATOM      6  C   UNL     1      -0.259   1.563   2.643  0.00  0.00    +0.038 C 
ATOM      7  C   UNL     1       0.103   0.305   3.391  0.00  0.00    -0.026 A 
ATOM      8  C   UNL     1      -0.852  -0.619   3.779  0.00  0.00    +0.033 A 
ATOM      9  C   UNL     1      -0.457  -1.760   4.478  0.00  0.00    +0.023 A 
ATOM     10  C   UNL     1       0.872  -1.971   4.777  0.00  0.00    +0.004 A 
ATOM     11  C   UNL     1       1.823  -1.047   4.382  0.00  0.00    -0.059 A 
ATOM     12  C   UNL     1       1.438   0.085   3.692  0.00  0.00    +0.007 A 
ENDBRANCH   1  11
BRANCH   1  18
ATOM     13  C   UNL     1       3.928  -1.888   2.455  0.00  0.00    -0.078 C 
ATOM     14  C   UNL     1       4.616  -2.971   1.620  0.00  0.00    -0.019 C 
ATOM     15  C   UNL     1       3.791  -4.260   1.685  0.00  0.00    -0.004 C 
ATOM     16  C   UNL     1       3.638  -4.686   3.148  0.00  0.00    -0.019 C 
ATOM     17  C   UNL     1       2.979  -3.553   3.938  0.00  0.00    -0.078 C 
ATOM     18  N   UNL     1       3.834  -2.350   3.856  0.00  0.00    +0.385 N 
ATOM     19  H   UNL     1       4.775  -2.587   4.193  0.00  0.00    -0.081 HD
ENDBRANCH   1  18
BRANCH   1  20
ATOM     20  C   UNL     1       3.416  -1.687   6.172  0.00  0.00    +0.094 C 
BRANCH  20  21
ATOM     21  N   UNL     1       4.816  -2.006   6.460  0.00  0.00    -0.309 N 
ATOM     22  C   UNL     1       5.162  -2.492   7.668  0.00  0.00    +0.299 C 
ATOM     23  O   UNL     1       4.313  -2.665   8.518  0.00  0.00    -0.265 OA
ATOM     24  H   UNL     1       5.495  -1.867   5.781  0.00  0.00    +0.149 HD
BRANCH  22  25
ATOM     25  C   UNL     1       6.590  -2.817   7.962  0.00  0.00    +0.303 C 
ATOM     26  O   UNL     1       7.439  -2.643   7.112  0.00  0.00    -0.265 OA
ATOM     27  N   UNL     1       6.935  -3.303   9.170  0.00  0.00    -0.275 N 
ATOM     28  H   UNL     1       6.249  -3.518   9.821  0.00  0.00    +0.155 HD
BRANCH  27  29
ATOM     29  C   UNL     1       8.284  -3.498   9.486  0.00  0.00    +0.070 A 
ATOM     30  C   UNL     1       9.270  -2.837   8.765  0.00  0.00    +0.029 A 
ATOM     31  C   UNL     1      10.601  -3.030   9.078  0.00  0.00    +0.040 A 
ATOM     32  C   UNL     1      10.955  -3.881  10.112  0.00  0.00    +0.126 A 
ATOM     33  C   UNL     1       9.975  -4.542  10.834  0.00  0.00    +0.078 A 
ATOM     34  C   UNL     1       8.641  -4.348  10.527  0.00  0.00    +0.147 A 
ATOM     35  F   UNL     1       7.684  -4.989  11.235  0.00  0.00    -0.203 F 
ATOM     36  F   UNL     1      12.258  -4.068  10.416  0.00  0.00    -0.205 F 
ENDBRANCH  27  29
ENDBRANCH  22  25
ENDBRANCH  20  21
ENDBRANCH   1  20
TORSDOF 6
