REMARK  Name = ZINC22843088
REMARK  11 active torsions:
REMARK  status: ('A' for Active; 'I' for Inactive)
REMARK    1  A    between atoms: C_1  and  C_2
REMARK    2  A    between atoms: C_2  and  C_3
REMARK    3  A    between atoms: C_6  and  N_9
REMARK    4  A    between atoms: N_11  and  C_32
REMARK    5  A    between atoms: C_15  and  C_16
REMARK    6  A    between atoms: C_18  and  O_28
REMARK    7  A    between atoms: C_19  and  O_23
REMARK    8  A    between atoms: O_23  and  C_24
REMARK    9  A    between atoms: C_24  and  C_25
REMARK   10  A    between atoms: O_28  and  C_29
REMARK   11  A    between atoms: C_29  and  C_30
REMARK                            x       y       z     vdW  Elec       q    Type
REMARK                         _______ _______ _______ _____ _____    ______ ____
ROOT
ATOM      1  N   UNL     1       7.393   2.823  -0.457  0.00  0.00    -0.226 NA
ATOM      2  C   UNL     1       6.129   2.682  -0.790  0.00  0.00    +0.168 C 
ATOM      3  N   UNL     1       5.241   3.649  -1.208  0.00  0.00    -0.249 N 
ATOM      4  C   UNL     1       3.994   3.332  -1.513  0.00  0.00    +0.259 C 
ATOM      5  O   UNL     1       3.198   4.171  -1.890  0.00  0.00    -0.269 OA
ATOM      6  C   UNL     1       3.611   1.914  -1.372  0.00  0.00    +0.078 C 
ATOM      7  C   UNL     1       2.414   1.317  -1.609  0.00  0.00    +0.028 C 
ATOM      8  S   UNL     1       5.147   1.192  -0.813  0.00  0.00    -0.049 S 
ATOM      9  C   UNL     1       5.684   5.041  -1.322  0.00  0.00    +0.140 C 
ENDROOT
BRANCH   7  10
ATOM     10  C   UNL     1       1.224   2.137  -1.871  0.00  0.00    -0.019 A 
ATOM     11  C   UNL     1       0.285   1.727  -2.825  0.00  0.00    +0.057 A 
ATOM     12  C   UNL     1      -0.830   2.504  -3.070  0.00  0.00    +0.164 A 
ATOM     13  C   UNL     1      -1.024   3.688  -2.360  0.00  0.00    +0.177 A 
ATOM     14  C   UNL     1      -0.094   4.097  -1.414  0.00  0.00    +0.064 A 
ATOM     15  C   UNL     1       1.025   3.330  -1.166  0.00  0.00    +0.027 A 
ATOM     16 BR   UNL     1      -0.361   5.709  -0.462  0.00  0.00    -0.046 Br
BRANCH  13  17
ATOM     17  O   UNL     1      -2.125   4.449  -2.599  0.00  0.00    -0.478 OA
BRANCH  17  18
ATOM     18  C   UNL     1      -2.015   5.449  -3.614  0.00  0.00    +0.324 C 
BRANCH  18  19
ATOM     19  C   UNL     1      -3.324   6.185  -3.738  0.00  0.00    +0.248 C 
ATOM     20  O   UNL     1      -4.259   5.884  -3.027  0.00  0.00    -0.272 OA
ATOM     21  N   UNL     1      -3.455   7.179  -4.638  0.00  0.00    -0.327 N 
ATOM     22  H   UNL     1      -4.410   7.717  -4.729  0.00  0.00    +0.145 HD
ATOM     23  H   UNL     1      -2.607   7.453  -5.283  0.00  0.00    +0.145 HD
ENDBRANCH  18  19
ENDBRANCH  17  18
ENDBRANCH  13  17
BRANCH  12  24
ATOM     24  O   UNL     1      -1.741   2.112  -4.000  0.00  0.00    -0.489 OA
BRANCH  24  25
ATOM     25  C   UNL     1      -1.481   0.885  -4.685  0.00  0.00    +0.226 C 
ATOM     26  C   UNL     1      -2.607   0.611  -5.685  0.00  0.00    +0.048 C 
ENDBRANCH  24  25
ENDBRANCH  12  24
ENDBRANCH   7  10
BRANCH   1  30
ATOM     27  C   UNL     1       9.044   6.605  -0.157  0.00  0.00    -0.047 A 
ATOM     28  C   UNL     1       8.065   6.209   0.736  0.00  0.00    +0.006 A 
ATOM     29  C   UNL     1       7.510   4.950   0.642  0.00  0.00    +0.028 A 
ATOM     30  C   UNL     1       7.939   4.074  -0.358  0.00  0.00    +0.067 A 
ATOM     31  C   UNL     1       8.932   4.478  -1.252  0.00  0.00    +0.028 A 
ATOM     32  C   UNL     1       9.474   5.743  -1.150  0.00  0.00    +0.006 A 
BRANCH  27  34
ATOM     33  C   UNL     1      10.865   7.936   0.875  0.00  0.00    +0.009 C 
ATOM     34  C   UNL     1       9.646   7.983  -0.049  0.00  0.00    +0.032 C 
ENDBRANCH  27  34
ENDBRANCH   1  30
TORSDOF 8
