REMARK  Name = ZINC39388120
REMARK  11 active torsions:
REMARK  status: ('A' for Active; 'I' for Inactive)
REMARK    1  A    between atoms: C_1  and  N_2
REMARK    2  A    between atoms: N_2  and  C_3
REMARK    3  A    between atoms: N_2  and  C_4
REMARK    4  A    between atoms: C_4  and  C_5
REMARK    5  A    between atoms: C_7  and  C_28
REMARK    6  A    between atoms: C_10  and  O_11
REMARK    7  A    between atoms: O_11  and  C_12
REMARK    8  A    between atoms: C_12  and  C_13
REMARK    9  A    between atoms: N_15  and  C_16
REMARK   10  A    between atoms: C_16  and  C_17
REMARK   11  A    between atoms: C_17  and  C_18
REMARK                            x       y       z     vdW  Elec       q    Type
REMARK                         _______ _______ _______ _____ _____    ______ ____
ROOT
ATOM      1  C   UNL     1      -1.359  -2.014  -0.120  0.00  0.00    -0.022 A 
ATOM      2  C   UNL     1      -1.599  -2.603  -1.346  0.00  0.00    +0.011 A 
ATOM      3  C   UNL     1      -1.584  -3.980  -1.468  0.00  0.00    -0.017 A 
ATOM      4  C   UNL     1      -1.327  -4.771  -0.363  0.00  0.00    +0.010 A 
ATOM      5  C   UNL     1      -1.086  -4.187   0.865  0.00  0.00    +0.046 A 
ATOM      6  C   UNL     1      -1.095  -2.805   0.989  0.00  0.00    +0.123 A 
ENDROOT
BRANCH   3   7
ATOM      7  C   UNL     1      -1.848  -4.620  -2.806  0.00  0.00    +0.164 C 
ATOM      8  N   UNL     1      -1.269  -5.968  -2.871  0.00  0.00    -0.327 N 
ATOM      9  C   UNL     1      -2.144  -7.037  -3.058  0.00  0.00    +0.042 A 
ATOM     10  C   UNL     1      -1.775  -8.391  -3.144  0.00  0.00    +0.024 A 
ATOM     11  C   UNL     1      -2.717  -9.376  -3.330  0.00  0.00    +0.002 A 
ATOM     12  C   UNL     1      -4.061  -9.067  -3.438  0.00  0.00    +0.001 A 
ATOM     13  C   UNL     1      -4.454  -7.742  -3.356  0.00  0.00    +0.016 A 
ATOM     14  C   UNL     1      -3.509  -6.757  -3.171  0.00  0.00    +0.031 A 
ATOM     15  S   UNL     1      -3.635  -4.989  -3.022  0.00  0.00    -0.096 S 
ATOM     16  H   UNL     1      -0.313  -6.110  -2.787  0.00  0.00    +0.147 HD
ENDBRANCH   3   7
BRANCH   1  17
ATOM     17  C   UNL     1      -1.376  -0.512   0.012  0.00  0.00    -0.040 C 
BRANCH  17  19
ATOM     18  C   UNL     1      -0.018   1.465   0.010  0.00  0.00    -0.096 C 
ATOM     19  N   UNL     1       0.002  -0.004   0.002  0.00  0.00    +0.379 N 
ATOM     20  C   UNL     1       0.713  -0.491   1.192  0.00  0.00    -0.096 C 
ATOM     21  H   UNL     1       0.474  -0.330  -0.828  0.00  0.00    -0.082 HD
ENDBRANCH  17  19
ENDBRANCH   1  17
BRANCH   6  22
ATOM     22  O   UNL     1      -0.852  -2.228   2.195  0.00  0.00    -0.483 OA
BRANCH  22  23
ATOM     23  C   UNL     1      -0.589  -3.104   3.292  0.00  0.00    +0.324 C 
BRANCH  23  24
ATOM     24  C   UNL     1      -0.344  -2.291   4.537  0.00  0.00    +0.251 C 
ATOM     25  O   UNL     1      -0.391  -1.080   4.490  0.00  0.00    -0.272 OA
ATOM     26  N   UNL     1      -0.074  -2.910   5.704  0.00  0.00    -0.312 N 
ATOM     27  H   UNL     1      -0.036  -3.878   5.742  0.00  0.00    +0.149 HD
BRANCH  26  28
ATOM     28  C   UNL     1       0.164  -2.119   6.914  0.00  0.00    +0.112 C 
BRANCH  28  29
ATOM     29  C   UNL     1       0.446  -3.058   8.089  0.00  0.00    +0.093 C 
BRANCH  29  30
ATOM     30  C   UNL     1       0.690  -2.245   9.334  0.00  0.00    +0.110 A 
ATOM     31  N   UNL     1       1.576  -1.298   9.444  0.00  0.00    -0.232 NA
ATOM     32  C   UNL     1       1.531  -0.774  10.696  0.00  0.00    +0.090 A 
ATOM     33  C   UNL     1       2.244   0.240  11.342  0.00  0.00    +0.050 A 
ATOM     34  C   UNL     1       1.958   0.547  12.653  0.00  0.00    +0.043 A 
ATOM     35  C   UNL     1       0.968  -0.143  13.340  0.00  0.00    +0.022 A 
ATOM     36  C   UNL     1       0.257  -1.146  12.717  0.00  0.00    +0.029 A 
ATOM     37  C   UNL     1       0.530  -1.469  11.395  0.00  0.00    +0.066 A 
ATOM     38  N   UNL     1       0.013  -2.389  10.505  0.00  0.00    -0.342 N 
ATOM     39 CL   UNL     1       2.844   1.807  13.455  0.00  0.00    -0.083 Cl
ATOM     40  H   UNL     1      -0.701  -3.023  10.682  0.00  0.00    +0.167 HD
ENDBRANCH  29  30
ENDBRANCH  28  29
ENDBRANCH  26  28
ENDBRANCH  23  24
ENDBRANCH  22  23
ENDBRANCH   6  22
TORSDOF 9
