REMARK  Name = ZINC14991843
REMARK  7 active torsions:
REMARK  status: ('A' for Active; 'I' for Inactive)
REMARK    1  A    between atoms: C_1  and  N_71
REMARK    2  A    between atoms: C_5  and  C_8
REMARK    3  A    between atoms: N_10  and  C_11
REMARK    4  A    between atoms: C_11  and  C_12
REMARK    5  A    between atoms: C_12  and  C_13
REMARK    6  A    between atoms: C_22  and  C_23
REMARK    7  A    between atoms: C_22  and  N_73
REMARK                            x       y       z     vdW  Elec       q    Type
REMARK                         _______ _______ _______ _____ _____    ______ ____
ROOT
ATOM      1  C   UNL     1      10.530  -2.453   1.516  0.00  0.00    +0.135 A 
ATOM      2  N   UNL     1      10.318  -3.231   2.545  0.00  0.00    -0.134 NA
ATOM      3  N   UNL     1       9.336  -2.772   3.242  0.00  0.00    -0.134 NA
ATOM      4  C   UNL     1       8.886  -1.682   2.694  0.00  0.00    +0.132 A 
ATOM      5  N   UNL     1       9.619  -1.458   1.575  0.00  0.00    -0.317 N 
ATOM      6  C   UNL     1       9.425  -0.363   0.625  0.00  0.00    +0.106 C 
ATOM      7  C   UNL     1       8.809   0.834   1.355  0.00  0.00    -0.056 C 
ATOM      8  C   UNL     1       6.852  -0.463   1.998  0.00  0.00    -0.071 C 
ATOM      9  C   UNL     1       7.766  -0.799   3.181  0.00  0.00    +0.058 C 
ATOM     10  N   UNL     1       7.329   0.769   1.332  0.00  0.00    +0.384 N 
ATOM     11  H   UNL     1       6.954   1.582   1.835  0.00  0.00    -0.081 HD
ENDROOT
BRANCH   1  12
ATOM     12  C   UNL     1      11.592  -2.632   0.462  0.00  0.00    +0.095 C 
BRANCH  12  13
ATOM     13  C   UNL     1      11.037  -3.484  -0.681  0.00  0.00    +0.112 C 
BRANCH  13  16
ATOM     14  C   UNL     1      11.805  -4.378  -2.814  0.00  0.00    +0.214 C 
ATOM     15  O   UNL     1      10.712  -4.882  -2.962  0.00  0.00    -0.276 OA
ATOM     16  N   UNL     1      12.070  -3.658  -1.706  0.00  0.00    -0.315 N 
ATOM     17  H   UNL     1      12.944  -3.255  -1.587  0.00  0.00    +0.149 HD
BRANCH  14  22
ATOM     18  C   UNL     1      14.825  -2.067  -5.903  0.00  0.00    -0.096 C 
ATOM     19  C   UNL     1      13.778  -4.140  -6.585  0.00  0.00    -0.079 C 
ATOM     20  C   UNL     1      13.377  -5.537  -6.106  0.00  0.00    -0.018 C 
ATOM     21  C   UNL     1      12.313  -5.410  -5.012  0.00  0.00    +0.009 C 
ATOM     22  C   UNL     1      12.867  -4.557  -3.868  0.00  0.00    +0.058 C 
ATOM     23  C   UNL     1      13.283  -3.189  -4.412  0.00  0.00    -0.067 C 
ATOM     24  N   UNL     1      14.326  -3.379  -5.442  0.00  0.00    +0.378 N 
ATOM     25  H   UNL     1      15.105  -3.908  -5.033  0.00  0.00    -0.082 HD
ENDBRANCH  14  22
ENDBRANCH  13  16
ENDBRANCH  12  13
ENDBRANCH   1  12
BRANCH  10  26
ATOM     26  C   UNL     1       6.846   0.805  -0.060  0.00  0.00    -0.043 C 
BRANCH  26  27
ATOM     27  C   UNL     1       5.350   0.991  -0.045  0.00  0.00    -0.064 A 
ATOM     28  C   UNL     1       4.517  -0.114  -0.042  0.00  0.00    +0.002 A 
ATOM     29  C   UNL     1       3.148   0.049  -0.029  0.00  0.00    +0.009 A 
ATOM     30  C   UNL     1       2.598   1.332  -0.016  0.00  0.00    -0.014 A 
ATOM     31  C   UNL     1       3.444   2.437  -0.018  0.00  0.00    -0.035 A 
ATOM     32  C   UNL     1       4.812   2.265  -0.033  0.00  0.00    +0.006 A 
ATOM     33  C   UNL     1       2.579   3.673  -0.003  0.00  0.00    +0.071 C 
ATOM     34  C   UNL     1       1.152   3.182   0.008  0.00  0.00    -0.035 A 
ATOM     35  C   UNL     1       1.187   1.791   0.000  0.00  0.00    -0.014 A 
ATOM     36  C   UNL     1      -0.013   1.076   0.008  0.00  0.00    +0.009 A 
ATOM     37  C   UNL     1      -1.216   1.750   0.017  0.00  0.00    +0.001 A 
ATOM     38  C   UNL     1      -1.241   3.133   0.031  0.00  0.00    +0.000 A 
ATOM     39  C   UNL     1      -0.056   3.848   0.023  0.00  0.00    +0.004 A 
ENDBRANCH  26  27
ENDBRANCH  10  26
TORSDOF 6
