REMARK  Name = ZINC50523838
REMARK  2 active torsions:
REMARK  status: ('A' for Active; 'I' for Inactive)
REMARK    1  A    between atoms: N_9  and  C_10
REMARK    2  A    between atoms: C_15  and  N_16
REMARK                            x       y       z     vdW  Elec       q    Type
REMARK                         _______ _______ _______ _____ _____    ______ ____
ROOT
ATOM      1  C   UNL     1       4.819  -0.546  -0.019  0.00  0.00    +0.088 A 
ATOM      2  C   UNL     1       5.228   0.773  -0.115  0.00  0.00    +0.053 A 
ATOM      3  C   UNL     1       6.585   1.084  -0.157  0.00  0.00    +0.039 A 
ATOM      4  C   UNL     1       7.517   0.055  -0.101  0.00  0.00    -0.016 A 
ATOM      5  C   UNL     1       7.116  -1.260  -0.005  0.00  0.00    +0.030 A 
ATOM      6  C   UNL     1       5.764  -1.570   0.042  0.00  0.00    +0.051 A 
ATOM      7  C   UNL     1       8.878   0.709  -0.166  0.00  0.00    +0.133 C 
ATOM      8  C   UNL     1       8.572   2.188  -0.262  0.00  0.00    +0.222 C 
ATOM      9  O   UNL     1       9.383   3.088  -0.336  0.00  0.00    -0.275 OA
ATOM     10  N   UNL     1       7.235   2.318  -0.251  0.00  0.00    -0.285 N 
ATOM     11  H   UNL     1       6.774   3.170  -0.302  0.00  0.00    +0.155 HD
ENDROOT
BRANCH   1  20
ATOM     12  C   UNL     1       0.168   0.259  -2.198  0.00  0.00    +0.001 A 
ATOM     13  C   UNL     1       1.382   0.812  -2.587  0.00  0.00    +0.002 A 
ATOM     14  C   UNL     1       2.534   0.510  -1.919  0.00  0.00    +0.028 A 
ATOM     15  C   UNL     1       2.499  -0.361  -0.834  0.00  0.00    +0.075 A 
ATOM     16  C   UNL     1       1.270  -0.923  -0.438  0.00  0.00    +0.020 A 
ATOM     17  C   UNL     1       0.102  -0.599  -1.138  0.00  0.00    +0.011 A 
ATOM     18  C   UNL     1       1.560  -1.779   0.708  0.00  0.00    +0.143 A 
ATOM     19  N   UNL     1       2.840  -1.710   0.943  0.00  0.00    -0.174 NA
ATOM     20  N   UNL     1       3.452  -0.853   0.022  0.00  0.00    -0.230 N 
ENDBRANCH   1  20
BRANCH   6  21
ATOM     21  N   UNL     1       5.351  -2.905   0.145  0.00  0.00    -0.356 N 
ATOM     22  H   UNL     1       4.409  -3.127   0.081  0.00  0.00    +0.142 HD
ATOM     23  H   UNL     1       6.007  -3.606   0.281  0.00  0.00    +0.142 HD
ENDBRANCH   6  21
TORSDOF 2
