REMARK  Name = ZINC39506708
REMARK  4 active torsions:
REMARK  status: ('A' for Active; 'I' for Inactive)
REMARK    1  A    between atoms: C_4  and  O_7
REMARK    2  A    between atoms: O_7  and  S_8
REMARK    3  A    between atoms: S_8  and  C_11
REMARK    4  A    between atoms: C_18  and  O_23
REMARK                            x       y       z     vdW  Elec       q    Type
REMARK                         _______ _______ _______ _____ _____    ______ ____
ROOT
ATOM      1  C   UNL     1       3.008  -2.422   1.830  0.00  0.00    +0.173 C 
ATOM      2  C   UNL     1       1.504  -2.087   1.663  0.00  0.00    +0.031 C 
ATOM      3  C   UNL     1       0.789  -3.060   2.625  0.00  0.00    +0.025 C 
ATOM      4  C   UNL     1       1.821  -3.452   3.689  0.00  0.00    +0.037 C 
ATOM      5  C   UNL     1       3.131  -2.720   3.347  0.00  0.00    +0.053 C 
ATOM      6  C   UNL     1       2.052  -4.972   3.674  0.00  0.00    +0.056 C 
ATOM      7  C   UNL     1       2.240  -5.308   5.178  0.00  0.00    +0.131 C 
ATOM      8  C   UNL     1       1.260  -4.312   5.848  0.00  0.00    +0.129 C 
ATOM      9  N   UNL     1       1.355  -3.081   5.032  0.00  0.00    -0.233 NA
ATOM     10 BR   UNL     1      -0.276  -2.212   4.950  0.00  0.00    +0.013 Br
ENDROOT
BRANCH   1  11
ATOM     11  S   UNL     1       4.038  -1.003   1.368  0.00  0.00    +0.124 S 
ATOM     12  O   UNL     1       5.412  -1.364   1.402  0.00  0.00    -0.136 OA
ATOM     13  O   UNL     1       3.581   0.170   2.027  0.00  0.00    -0.136 OA
BRANCH  11  14
ATOM     14  O   UNL     1       3.736  -0.763  -0.104  0.00  0.00    -0.346 OA
BRANCH  14  18
ATOM     15  C   UNL     1       5.452  -3.528  -2.641  0.00  0.00    +0.000 A 
ATOM     16  C   UNL     1       4.217  -3.785  -2.074  0.00  0.00    +0.004 A 
ATOM     17  C   UNL     1       3.641  -2.861  -1.224  0.00  0.00    +0.048 A 
ATOM     18  C   UNL     1       4.302  -1.674  -0.940  0.00  0.00    +0.156 A 
ATOM     19  C   UNL     1       5.540  -1.419  -1.510  0.00  0.00    +0.048 A 
ATOM     20  C   UNL     1       6.112  -2.346  -2.360  0.00  0.00    +0.004 A 
ENDBRANCH  14  18
ENDBRANCH  11  14
ENDBRANCH   1  11
BRANCH   7  21
ATOM     21  O   UNL     1       1.863  -6.659   5.452  0.00  0.00    -0.390 OA
ATOM     22  H   UNL     1       1.963  -6.916   6.379  0.00  0.00    +0.210 HD
ENDBRANCH   7  21
TORSDOF 4
