REMARK  Name = ZINC36345230
REMARK  7 active torsions:
REMARK  status: ('A' for Active; 'I' for Inactive)
REMARK    1  A    between atoms: C_1  and  C_2
REMARK    2  A    between atoms: C_5  and  C_8
REMARK    3  A    between atoms: C_11  and  C_14
REMARK    4  A    between atoms: C_21  and  C_23
REMARK    5  A    between atoms: C_23  and  N_24
REMARK    6  A    between atoms: C_27  and  C_30
REMARK    7  A    between atoms: C_30  and  C_31
REMARK                            x       y       z     vdW  Elec       q    Type
REMARK                         _______ _______ _______ _____ _____    ______ ____
ROOT
ATOM      1  C   UNL     1       0.058  -4.248  -0.021  0.00  0.00    +0.069 C 
ATOM      2  N   UNL     1       0.068  -4.985  -1.077  0.00  0.00    -0.181 NA
ATOM      3  N   UNL     1       0.086  -6.354  -0.816  0.00  0.00    -0.187 N 
ATOM      4  C   UNL     1       0.088  -6.560   0.641  0.00  0.00    +0.137 C 
ATOM      5  C   UNL     1       0.076  -5.127   1.209  0.00  0.00    +0.087 C 
ATOM      6  C   UNL     1       0.098  -7.329  -1.746  0.00  0.00    +0.219 C 
ATOM      7  O   UNL     1       0.113  -8.493  -1.404  0.00  0.00    -0.276 OA
ENDROOT
BRANCH   1  12
ATOM      8  C   UNL     1      -0.018   1.503   0.010  0.00  0.00    +0.044 C 
ATOM      9  C   UNL     1       0.002  -0.004   0.002  0.00  0.00    -0.050 A 
ATOM     10  C   UNL     1       0.006  -0.686  -1.202  0.00  0.00    +0.004 A 
ATOM     11  C   UNL     1       0.024  -2.065  -1.217  0.00  0.00    +0.010 A 
ATOM     12  C   UNL     1       0.039  -2.773  -0.013  0.00  0.00    -0.002 A 
ATOM     13  C   UNL     1       0.036  -2.078   1.198  0.00  0.00    +0.010 A 
ATOM     14  C   UNL     1       0.023  -0.699   1.198  0.00  0.00    +0.004 A 
ENDBRANCH   1  12
BRANCH   4  15
ATOM     15  C   UNL     1       1.335  -7.289   1.071  0.00  0.00    -0.025 A 
ATOM     16  C   UNL     1       2.547  -6.996   0.474  0.00  0.00    +0.008 A 
ATOM     17  C   UNL     1       3.691  -7.663   0.869  0.00  0.00    +0.038 A 
ATOM     18  C   UNL     1       3.623  -8.625   1.862  0.00  0.00    +0.123 A 
ATOM     19  C   UNL     1       2.409  -8.918   2.459  0.00  0.00    +0.038 A 
ATOM     20  C   UNL     1       1.267  -8.245   2.067  0.00  0.00    +0.008 A 
ATOM     21  F   UNL     1       4.741  -9.278   2.248  0.00  0.00    -0.205 F 
ENDBRANCH   4  15
BRANCH   6  22
ATOM     22  C   UNL     1       0.095  -6.974  -3.211  0.00  0.00    +0.021 C 
BRANCH  22  23
ATOM     23  N   UNL     1       0.111  -8.205  -4.013  0.00  0.00    +0.385 N 
ATOM     24  C   UNL     1      -1.131  -8.953  -3.783  0.00  0.00    -0.078 C 
ATOM     25  C   UNL     1      -1.085 -10.275  -4.553  0.00  0.00    -0.015 C 
ATOM     26  C   UNL     1      -0.933  -9.982  -6.049  0.00  0.00    -0.010 C 
ATOM     27  C   UNL     1       0.326  -9.138  -6.268  0.00  0.00    -0.015 C 
ATOM     28  C   UNL     1       0.228  -7.859  -5.435  0.00  0.00    -0.078 C 
ATOM     29  H   UNL     1       0.898  -8.773  -3.740  0.00  0.00    -0.081 HD
BRANCH  26  30
ATOM     30  C   UNL     1      -0.806 -11.299  -6.817  0.00  0.00    +0.038 C 
BRANCH  30  31
ATOM     31  C   UNL     1      -0.780 -11.017  -8.297  0.00  0.00    -0.047 A 
ATOM     32  C   UNL     1      -1.961 -10.974  -9.014  0.00  0.00    +0.003 A 
ATOM     33  C   UNL     1      -1.937 -10.715 -10.371  0.00  0.00    +0.000 A 
ATOM     34  C   UNL     1      -0.732 -10.498 -11.012  0.00  0.00    +0.000 A 
ATOM     35  C   UNL     1       0.450 -10.540 -10.296  0.00  0.00    +0.000 A 
ATOM     36  C   UNL     1       0.425 -10.795  -8.937  0.00  0.00    +0.003 A 
ENDBRANCH  30  31
ENDBRANCH  26  30
ENDBRANCH  22  23
ENDBRANCH   6  22
TORSDOF 6
