REMARK  Name = ZINC38593582
REMARK  8 active torsions:
REMARK  status: ('A' for Active; 'I' for Inactive)
REMARK    1  A    between atoms: C_1  and  O_2
REMARK    2  A    between atoms: O_2  and  C_3
REMARK    3  A    between atoms: C_6  and  C_9
REMARK    4  A    between atoms: C_9  and  C_14
REMARK    5  A    between atoms: C_14  and  N_15
REMARK    6  A    between atoms: C_16  and  C_18
REMARK    7  A    between atoms: C_19  and  C_20
REMARK    8  A    between atoms: C_23  and  N_26
REMARK                            x       y       z     vdW  Elec       q    Type
REMARK                         _______ _______ _______ _____ _____    ______ ____
ROOT
ATOM      1  N   UNL     1       1.847  -0.730  -5.932  0.00  0.00    -0.311 N 
ATOM      2  C   UNL     1       1.174  -0.188  -6.966  0.00  0.00    +0.237 C 
ATOM      3  O   UNL     1       0.490  -0.893  -7.684  0.00  0.00    -0.271 OA
ATOM      4  H   UNL     1       2.392  -0.168  -5.360  0.00  0.00    +0.149 HD
ENDROOT
BRANCH   2   5
ATOM      5  C   UNL     1       1.265   1.250  -7.226  0.00  0.00    +0.068 C 
ATOM      6  C   UNL     1       0.592   1.793  -8.260  0.00  0.00    +0.013 C 
BRANCH   6   7
ATOM      7  C   UNL     1       0.684   3.239  -8.521  0.00  0.00    -0.025 A 
ATOM      8  C   UNL     1       1.474   4.052  -7.702  0.00  0.00    +0.010 A 
ATOM      9  C   UNL     1       1.556   5.405  -7.953  0.00  0.00    +0.033 A 
ATOM     10  C   UNL     1       0.858   5.959  -9.012  0.00  0.00    +0.126 A 
ATOM     11  C   UNL     1       0.074   5.161  -9.827  0.00  0.00    +0.033 A 
ATOM     12  C   UNL     1      -0.013   3.805  -9.593  0.00  0.00    +0.010 A 
BRANCH  10  13
ATOM     13  N   UNL     1       0.951   7.413  -9.274  0.00  0.00    +0.056 N 
ATOM     14  O   UNL     1       1.635   8.113  -8.564  0.00  0.00    -0.126 OA
ATOM     15  O   UNL     1       0.343   7.901 -10.199  0.00  0.00    -0.126 OA
ENDBRANCH  10  13
ENDBRANCH   6   7
ENDBRANCH   2   5
BRANCH   1  16
ATOM     16  C   UNL     1       1.755  -2.169  -5.673  0.00  0.00    +0.116 C 
BRANCH  16  17
ATOM     17  C   UNL     1       2.685  -2.539  -4.516  0.00  0.00    +0.011 C 
ATOM     18  C   UNL     1       4.128  -2.114  -4.841  0.00  0.00    +0.013 C 
ATOM     19  C   UNL     1       4.978  -3.401  -4.837  0.00  0.00    +0.001 C 
ATOM     20  C   UNL     1       3.957  -4.531  -5.118  0.00  0.00    +0.001 C 
ATOM     21  C   UNL     1       2.709  -4.070  -4.325  0.00  0.00    +0.013 C 
BRANCH  17  25
ATOM     22  C   UNL     1       1.374  -0.637  -0.920  0.00  0.00    +0.120 A 
ATOM     23  C   UNL     1       2.577  -1.327  -0.942  0.00  0.00    +0.046 A 
ATOM     24  C   UNL     1       2.999  -1.941  -2.106  0.00  0.00    +0.008 A 
ATOM     25  C   UNL     1       2.223  -1.869  -3.248  0.00  0.00    -0.039 A 
ATOM     26  C   UNL     1       1.023  -1.181  -3.228  0.00  0.00    +0.008 A 
ATOM     27  C   UNL     1       0.594  -0.571  -2.066  0.00  0.00    +0.046 A 
BRANCH  22  29
ATOM     28  C   UNL     1       1.811  -0.142   1.364  0.00  0.00    +0.277 C 
ATOM     29  O   UNL     1       0.957  -0.033   0.223  0.00  0.00    -0.495 OA
ENDBRANCH  22  29
ENDBRANCH  17  25
ENDBRANCH  16  17
ENDBRANCH   1  16
TORSDOF 7
