REMARK  Name = ZINC63141254
REMARK  6 active torsions:
REMARK  status: ('A' for Active; 'I' for Inactive)
REMARK    1  A    between atoms: C_1  and  O_2
REMARK    2  A    between atoms: O_2  and  C_3
REMARK    3  A    between atoms: C_6  and  C_9
REMARK    4  A    between atoms: C_9  and  C_10
REMARK    5  A    between atoms: C_10  and  N_11
REMARK    6  A    between atoms: C_31  and  C_33
REMARK                            x       y       z     vdW  Elec       q    Type
REMARK                         _______ _______ _______ _____ _____    ______ ____
ROOT
ATOM      1  N   UNL     1       2.523  -3.159   6.598  0.00  0.00    -0.291 N 
ATOM      2  C   UNL     1       2.441  -4.609   6.543  0.00  0.00    +0.203 C 
ATOM      3  C   UNL     1       3.058  -5.255   7.738  0.00  0.00    +0.234 C 
ATOM      4  O   UNL     1       3.043  -6.467   7.795  0.00  0.00    -0.274 OA
ATOM      5  N   UNL     1       3.628  -4.593   8.752  0.00  0.00    -0.279 N 
ATOM      6  C   UNL     1       3.724  -3.138   8.788  0.00  0.00    +0.167 C 
ATOM      7  C   UNL     1       3.100  -2.491   7.595  0.00  0.00    +0.237 C 
ATOM      8  O   UNL     1       3.116  -1.280   7.533  0.00  0.00    -0.274 OA
ATOM      9  C   UNL     1       5.199  -2.711   8.891  0.00  0.00    +0.065 C 
ATOM     10  C   UNL     1       5.824  -3.576   9.958  0.00  0.00    -0.034 C 
ATOM     11  C   UNL     1       6.542  -3.269  11.031  0.00  0.00    -0.001 A 
ATOM     12  C   UNL     1       7.088  -1.990  11.512  0.00  0.00    +0.010 A 
ATOM     13  C   UNL     1       7.773  -2.034  12.685  0.00  0.00    +0.001 A 
ATOM     14  C   UNL     1       7.969  -3.208  13.419  0.00  0.00    +0.002 A 
ATOM     15  C   UNL     1       7.511  -4.430  13.046  0.00  0.00    +0.026 A 
ATOM     16  C   UNL     1       6.781  -4.513  11.824  0.00  0.00    +0.043 A 
ATOM     17  N   UNL     1       6.257  -5.542  11.226  0.00  0.00    -0.375 N 
ATOM     18  C   UNL     1       5.678  -5.093   9.959  0.00  0.00    +0.131 C 
ATOM     19  C   UNL     1       4.178  -5.388   9.874  0.00  0.00    +0.133 C 
ATOM     20  H   UNL     1       6.251  -6.452  11.562  0.00  0.00    +0.160 HD
ENDROOT
BRANCH  19  21
ATOM     21  C   UNL     1       3.504  -4.988  11.161  0.00  0.00    -0.023 A 
ATOM     22  C   UNL     1       3.569  -3.678  11.597  0.00  0.00    +0.005 A 
ATOM     23  C   UNL     1       2.951  -3.310  12.778  0.00  0.00    +0.002 A 
ATOM     24  C   UNL     1       2.269  -4.253  13.524  0.00  0.00    +0.020 A 
ATOM     25  C   UNL     1       2.205  -5.565  13.088  0.00  0.00    +0.041 A 
ATOM     26  C   UNL     1       2.818  -5.931  11.903  0.00  0.00    +0.025 A 
ATOM     27 CL   UNL     1       1.348  -6.750  14.025  0.00  0.00    -0.084 Cl
ENDBRANCH  19  21
BRANCH   1  28
ATOM     28  C   UNL     1       1.944  -2.390   5.493  0.00  0.00    +0.113 C 
BRANCH  28  29
ATOM     29  C   UNL     1       3.005  -2.174   4.412  0.00  0.00    +0.054 C 
BRANCH  29  33
ATOM     30  C   UNL     1       1.317   0.069   1.190  0.00  0.00    +0.120 A 
ATOM     31  C   UNL     1       1.928   0.726   2.248  0.00  0.00    +0.046 A 
ATOM     32  C   UNL     1       2.472  -0.001   3.289  0.00  0.00    +0.007 A 
ATOM     33  C   UNL     1       2.409  -1.383   3.276  0.00  0.00    -0.046 A 
ATOM     34  C   UNL     1       1.802  -2.039   2.222  0.00  0.00    +0.007 A 
ATOM     35  C   UNL     1       1.250  -1.317   1.182  0.00  0.00    +0.046 A 
BRANCH  30  37
ATOM     36  C   UNL     1       0.886   2.205   0.240  0.00  0.00    +0.277 C 
ATOM     37  O   UNL     1       0.780   0.782   0.165  0.00  0.00    -0.495 OA
ENDBRANCH  30  37
ENDBRANCH  29  33
ENDBRANCH  28  29
ENDBRANCH   1  28
TORSDOF 5
