REMARK  Name = ZINC13751674
REMARK  10 active torsions:
REMARK  status: ('A' for Active; 'I' for Inactive)
REMARK    1  A    between atoms: C_1  and  C_2
REMARK    2  A    between atoms: C_2  and  C_26
REMARK    3  A    between atoms: N_3  and  N_4
REMARK    4  A    between atoms: C_5  and  C_7
REMARK    5  A    between atoms: C_8  and  C_18
REMARK    6  A    between atoms: C_18  and  S_19
REMARK    7  A    between atoms: S_19  and  C_20
REMARK    8  A    between atoms: C_29  and  O_32
REMARK    9  A    between atoms: O_32  and  C_33
REMARK   10  A    between atoms: C_33  and  C_34
REMARK                            x       y       z     vdW  Elec       q    Type
REMARK                         _______ _______ _______ _____ _____    ______ ____
ROOT
ATOM      1  C   UNL     1       1.121   3.561   0.011  0.00  0.00    +0.173 A 
ATOM      2  C   UNL     1       2.219   4.375   0.004  0.00  0.00    +0.089 A 
ATOM      3  N   UNL     1       1.762   5.647   0.016  0.00  0.00    -0.191 N 
ATOM      4  N   UNL     1       0.361   5.573   0.029  0.00  0.00    -0.058 NA
ATOM      5  N   UNL     1       0.019   4.332   0.019  0.00  0.00    -0.124 NA
ATOM      6  C   UNL     1       2.536   6.812   0.015  0.00  0.00    +0.240 A 
ATOM      7  C   UNL     1       2.022   8.184   0.027  0.00  0.00    +0.206 A 
ATOM      8  N   UNL     1       3.037   9.003   0.022  0.00  0.00    -0.032 NA
ATOM      9  O   UNL     1       4.222   8.226   0.007  0.00  0.00    -0.239 OA
ATOM     10  N   UNL     1       3.838   6.862   0.009  0.00  0.00    -0.027 NA
ATOM     11  N   UNL     1       0.681   8.551   0.041  0.00  0.00    -0.337 N 
ATOM     12  H   UNL     1      -0.009   7.868   0.043  0.00  0.00    +0.144 HD
ATOM     13  H   UNL     1       0.434   9.489   0.049  0.00  0.00    +0.144 HD
ENDROOT
BRANCH   1  15
ATOM     14  N   UNL     1      -0.017   1.397   0.010  0.00  0.00    -0.201 N 
ATOM     15  C   UNL     1       1.141   2.087   0.002  0.00  0.00    +0.285 C 
ATOM     16  O   UNL     1       2.203   1.493  -0.011  0.00  0.00    -0.267 OA
ATOM     17  H   UNL     1      -0.864   1.870   0.016  0.00  0.00    +0.178 HD
BRANCH  14  20
ATOM     18  C   UNL     1      -2.428   0.067   0.026  0.00  0.00    +0.068 C 
ATOM     19  C   UNL     1      -1.113  -0.668   0.009  0.00  0.00    +0.063 C 
ATOM     20  N   UNL     1       0.002  -0.004   0.002  0.00  0.00    -0.184 NA
BRANCH  19  21
ATOM     21  C   UNL     1      -1.093  -2.142   0.001  0.00  0.00    -0.002 A 
ATOM     22  C   UNL     1      -2.292  -2.860   0.014  0.00  0.00    +0.013 A 
ATOM     23  C   UNL     1      -2.269  -4.237   0.002  0.00  0.00    +0.046 A 
ATOM     24  C   UNL     1      -1.056  -4.913  -0.014  0.00  0.00    +0.121 A 
ATOM     25  C   UNL     1       0.139  -4.205  -0.021  0.00  0.00    +0.046 A 
ATOM     26  C   UNL     1       0.125  -2.827  -0.014  0.00  0.00    +0.013 A 
BRANCH  24  27
ATOM     27  O   UNL     1      -1.037  -6.272  -0.022  0.00  0.00    -0.483 OA
BRANCH  27  28
ATOM     28  C   UNL     1      -2.301  -6.938  -0.013  0.00  0.00    +0.324 C 
BRANCH  28  29
ATOM     29  C   UNL     1      -2.084  -8.429  -0.024  0.00  0.00    +0.248 C 
ATOM     30  O   UNL     1      -0.957  -8.877  -0.037  0.00  0.00    -0.272 OA
ATOM     31  N   UNL     1      -3.141  -9.264  -0.018  0.00  0.00    -0.327 N 
ATOM     32  H   UNL     1      -4.043  -8.906  -0.007  0.00  0.00    +0.145 HD
ATOM     33  H   UNL     1      -3.001 -10.224  -0.025  0.00  0.00    +0.145 HD
ENDBRANCH  28  29
ENDBRANCH  27  28
ENDBRANCH  24  27
ENDBRANCH  19  21
ENDBRANCH  14  20
ENDBRANCH   1  15
BRANCH   2  34
ATOM     34  C   UNL     1       3.661   3.938  -0.011  0.00  0.00    +0.132 C 
BRANCH  34  35
ATOM     35  S   UNL     1       4.255   3.753   1.692  0.00  0.00    -0.119 S 
BRANCH  35  36
ATOM     36  C   UNL     1       5.932   3.246   1.506  0.00  0.00    +0.008 A 
ATOM     37  C   UNL     1       6.473   3.080   0.237  0.00  0.00    +0.015 A 
ATOM     38  C   UNL     1       7.789   2.688   0.095  0.00  0.00    +0.001 A 
ATOM     39  C   UNL     1       8.566   2.450   1.214  0.00  0.00    +0.000 A 
ATOM     40  C   UNL     1       8.030   2.608   2.479  0.00  0.00    +0.001 A 
ATOM     41  C   UNL     1       6.716   3.006   2.628  0.00  0.00    +0.015 A 
ENDBRANCH  35  36
ENDBRANCH  34  35
ENDBRANCH   2  34
TORSDOF 9
