REMARK  Name = ZINC15274640
REMARK  5 active torsions:
REMARK  status: ('A' for Active; 'I' for Inactive)
REMARK    1  A    between atoms: C_7  and  C_23
REMARK    2  A    between atoms: C_12  and  C_13
REMARK    3  A    between atoms: C_23  and  O_25
REMARK    4  A    between atoms: O_25  and  C_26
REMARK    5  A    between atoms: C_26  and  C_27
REMARK                            x       y       z     vdW  Elec       q    Type
REMARK                         _______ _______ _______ _____ _____    ______ ____
ROOT
ATOM      1  C   UNL     1       0.054   0.078   1.080  0.00  0.00    +0.001 A 
ATOM      2  C   UNL     1       1.261  -0.617   1.088  0.00  0.00    +0.002 A 
ATOM      3  C   UNL     1       2.443   0.025   0.884  0.00  0.00    +0.028 A 
ATOM      4  C   UNL     1       2.454   1.416   0.660  0.00  0.00    +0.072 A 
ATOM      5  C   UNL     1       1.221   2.116   0.654  0.00  0.00    +0.015 A 
ATOM      6  C   UNL     1       0.025   1.425   0.867  0.00  0.00    +0.011 A 
ATOM      7  C   UNL     1       1.241   3.560   0.421  0.00  0.00    +0.073 A 
ATOM      8  C   UNL     1       2.477   4.160   0.219  0.00  0.00    -0.007 A 
ATOM      9  C   UNL     1       3.646   3.382   0.243  0.00  0.00    +0.072 A 
ATOM     10  N   UNL     1       3.594   2.071   0.458  0.00  0.00    -0.247 NA
ATOM     11  C   UNL     1       4.827   4.234   0.006  0.00  0.00    -0.021 C 
ATOM     12  C   UNL     1       6.104   3.815  -0.036  0.00  0.00    +0.018 C 
ATOM     13  C   UNL     1       4.357   5.655  -0.181  0.00  0.00    +0.042 C 
ATOM     14  C   UNL     1       2.829   5.604  -0.042  0.00  0.00    +0.043 C 
ENDROOT
BRANCH  12  15
ATOM     15  C   UNL     1       7.197   4.795  -0.152  0.00  0.00    +0.029 A 
ATOM     16  C   UNL     1       7.353   5.794   0.816  0.00  0.00    +0.132 A 
ATOM     17  C   UNL     1       8.381   6.709   0.699  0.00  0.00    +0.039 A 
ATOM     18  C   UNL     1       9.254   6.640  -0.371  0.00  0.00    +0.004 A 
ATOM     19  C   UNL     1       9.107   5.656  -1.332  0.00  0.00    +0.021 A 
ATOM     20  C   UNL     1       8.089   4.730  -1.228  0.00  0.00    +0.051 A 
ATOM     21 CL   UNL     1       7.912   3.492  -2.432  0.00  0.00    -0.083 Cl
ATOM     22  F   UNL     1       6.500   5.862   1.863  0.00  0.00    -0.205 F 
ENDBRANCH  12  15
BRANCH   7  23
ATOM     23  C   UNL     1      -0.007   4.351   0.402  0.00  0.00    +0.341 C 
ATOM     24  O   UNL     1      -0.431   4.842   1.429  0.00  0.00    -0.245 OA
BRANCH  23  25
ATOM     25  O   UNL     1      -0.675   4.528  -0.755  0.00  0.00    -0.452 OA
BRANCH  25  26
ATOM     26  C   UNL     1      -1.893   5.316  -0.699  0.00  0.00    +0.328 C 
BRANCH  26  27
ATOM     27  C   UNL     1      -2.498   5.404  -2.076  0.00  0.00    +0.258 C 
ATOM     28  O   UNL     1      -1.956   4.858  -3.013  0.00  0.00    -0.272 OA
ATOM     29  N   UNL     1      -3.641   6.092  -2.267  0.00  0.00    -0.238 N 
ATOM     30  C   UNL     1      -4.182   6.171  -3.499  0.00  0.00    +0.303 C 
ATOM     31  O   UNL     1      -3.639   5.623  -4.438  0.00  0.00    -0.253 OA
ATOM     32  N   UNL     1      -5.326   6.858  -3.690  0.00  0.00    -0.313 N 
ATOM     33  H   UNL     1      -4.075   6.529  -1.518  0.00  0.00    +0.159 HD
ATOM     34  H   UNL     1      -5.760   7.296  -2.941  0.00  0.00    +0.146 HD
ATOM     35  H   UNL     1      -5.715   6.915  -4.577  0.00  0.00    +0.146 HD
ENDBRANCH  26  27
ENDBRANCH  25  26
ENDBRANCH  23  25
ENDBRANCH   7  23
TORSDOF 5
