REMARK  Name = ZINC04083641
REMARK  8 active torsions:
REMARK  status: ('A' for Active; 'I' for Inactive)
REMARK    1  A    between atoms: C_1  and  O_2
REMARK    2  A    between atoms: O_2  and  C_3
REMARK    3  A    between atoms: C_6  and  C_11
REMARK    4  A    between atoms: C_8  and  O_9
REMARK    5  A    between atoms: O_9  and  C_10
REMARK    6  A    between atoms: C_16  and  C_26
REMARK    7  A    between atoms: C_29  and  O_32
REMARK    8  A    between atoms: O_32  and  C_33
REMARK                            x       y       z     vdW  Elec       q    Type
REMARK                         _______ _______ _______ _____ _____    ______ ____
ROOT
ATOM      1  C   UNL     1      -4.332  -0.348  -2.576  0.00  0.00    +0.032 C 
ATOM      2  C   UNL     1      -3.936  -0.252  -1.104  0.00  0.00    +0.059 C 
ATOM      3  C   UNL     1      -3.351   1.119  -0.813  0.00  0.00    +0.017 C 
ATOM      4  C   UNL     1      -3.789   2.204  -1.478  0.00  0.00    +0.036 C 
ATOM      5  C   UNL     1      -3.306   3.619  -1.279  0.00  0.00    +0.136 C 
ATOM      6  N   UNL     1      -2.484   3.818  -0.092  0.00  0.00    -0.331 N 
ATOM      7  C   UNL     1      -1.236   3.206   0.016  0.00  0.00    +0.049 A 
ATOM      8  C   UNL     1      -0.064   3.944   0.025  0.00  0.00    +0.025 A 
ATOM      9  C   UNL     1       1.154   3.285   0.045  0.00  0.00    +0.002 A 
ATOM     10  C   UNL     1       1.201   1.903   0.057  0.00  0.00    +0.002 A 
ATOM     11  C   UNL     1       0.031   1.163   0.066  0.00  0.00    +0.025 A 
ATOM     12  C   UNL     1      -1.188   1.821   0.057  0.00  0.00    +0.052 A 
ATOM     13  N   UNL     1      -2.397   1.143   0.151  0.00  0.00    -0.316 N 
ATOM     14  C   UNL     1      -4.785   2.071  -2.475  0.00  0.00    +0.163 C 
ATOM     15  O   UNL     1      -5.178   3.070  -3.046  0.00  0.00    -0.292 OA
ATOM     16  C   UNL     1      -5.372   0.745  -2.852  0.00  0.00    +0.088 C 
ATOM     17  H   UNL     1      -2.802   4.385   0.627  0.00  0.00    +0.147 HD
ATOM     18  H   UNL     1      -2.573   0.650   0.968  0.00  0.00    +0.152 HD
ENDROOT
BRANCH   1  22
ATOM     19  C   UNL     1      -6.027  -4.193  -3.371  0.00  0.00    +0.161 A 
ATOM     20  C   UNL     1      -6.614  -3.353  -2.438  0.00  0.00    +0.049 A 
ATOM     21  C   UNL     1      -6.064  -2.111  -2.183  0.00  0.00    +0.008 A 
ATOM     22  C   UNL     1      -4.928  -1.703  -2.858  0.00  0.00    -0.040 A 
ATOM     23  C   UNL     1      -4.341  -2.534  -3.794  0.00  0.00    +0.053 A 
ATOM     24  C   UNL     1      -4.884  -3.782  -4.050  0.00  0.00    +0.162 A 
BRANCH  19  26
ATOM     25  C   UNL     1      -7.742  -5.769  -2.889  0.00  0.00    +0.277 C 
ATOM     26  O   UNL     1      -6.568  -5.415  -3.623  0.00  0.00    -0.491 OA
ENDBRANCH  19  26
BRANCH  24  27
ATOM     27  O   UNL     1      -4.305  -4.603  -4.967  0.00  0.00    -0.491 OA
ATOM     28  C   UNL     1      -3.134  -4.115  -5.625  0.00  0.00    +0.277 C 
ENDBRANCH  24  27
ENDBRANCH   1  22
BRANCH   5  29
ATOM     29  C   UNL     1      -2.511   4.027  -2.493  0.00  0.00    -0.023 A 
ATOM     30  C   UNL     1      -2.959   5.061  -3.296  0.00  0.00    +0.009 A 
ATOM     31  C   UNL     1      -2.229   5.440  -4.405  0.00  0.00    +0.046 A 
ATOM     32  C   UNL     1      -1.052   4.776  -4.721  0.00  0.00    +0.130 A 
ATOM     33  C   UNL     1      -0.609   3.736  -3.917  0.00  0.00    +0.046 A 
ATOM     34  C   UNL     1      -1.339   3.364  -2.805  0.00  0.00    +0.009 A 
BRANCH  32  35
ATOM     35  O   UNL     1      -0.335   5.144  -5.815  0.00  0.00    -0.406 OA
BRANCH  35  36
ATOM     36  C   UNL     1      -0.852   6.223  -6.596  0.00  0.00    +0.575 C 
ATOM     37  F   UNL     1      -0.943   7.372  -5.803  0.00  0.00    -0.133 F 
ATOM     38  F   UNL     1       0.004   6.469  -7.676  0.00  0.00    -0.133 F 
ATOM     39  F   UNL     1      -2.122   5.885  -7.075  0.00  0.00    -0.133 F 
ENDBRANCH  35  36
ENDBRANCH  32  35
ENDBRANCH   5  29
TORSDOF 6
