REMARK  Name = ZINC36593253
REMARK  11 active torsions:
REMARK  status: ('A' for Active; 'I' for Inactive)
REMARK    1  A    between atoms: C_1  and  C_2
REMARK    2  A    between atoms: C_2  and  C_3
REMARK    3  A    between atoms: C_2  and  C_4
REMARK    4  A    between atoms: C_2  and  N_5
REMARK    5  A    between atoms: N_5  and  C_6
REMARK    6  A    between atoms: C_6  and  C_8
REMARK    7  A    between atoms: C_6  and  C_20
REMARK    8  A    between atoms: C_17  and  O_18
REMARK    9  A    between atoms: O_18  and  C_19
REMARK   10  A    between atoms: N_22  and  C_23
REMARK   11  A    between atoms: C_29  and  C_31
REMARK                            x       y       z     vdW  Elec       q    Type
REMARK                         _______ _______ _______ _____ _____    ______ ____
ROOT
ATOM      1  C   UNL     1       0.693  -2.975   0.774  0.00  0.00    +0.197 C 
ENDROOT
BRANCH   1   2
ATOM      2  C   UNL     1       0.689  -3.396   2.221  0.00  0.00    +0.031 A 
ATOM      3  C   UNL     1      -0.364  -3.010   3.066  0.00  0.00    -0.009 A 
ATOM      4  C   UNL     1      -1.431  -2.228   2.590  0.00  0.00    +0.009 A 
ATOM      5  C   UNL     1      -2.435  -1.873   3.437  0.00  0.00    +0.001 A 
ATOM      6  C   UNL     1      -2.422  -2.271   4.772  0.00  0.00    +0.001 A 
ATOM      7  C   UNL     1      -1.406  -3.028   5.268  0.00  0.00    +0.008 A 
ATOM      8  C   UNL     1      -0.351  -3.415   4.424  0.00  0.00    -0.017 A 
ATOM      9  C   UNL     1       0.715  -4.197   4.902  0.00  0.00    +0.012 A 
ATOM     10  C   UNL     1       1.720  -4.555   4.058  0.00  0.00    +0.046 A 
ATOM     11  C   UNL     1       1.707  -4.161   2.716  0.00  0.00    +0.126 A 
BRANCH  11  12
ATOM     12  O   UNL     1       2.722  -4.539   1.897  0.00  0.00    -0.495 OA
ATOM     13  C   UNL     1       3.703  -5.423   2.443  0.00  0.00    +0.277 C 
ENDBRANCH  11  12
ENDBRANCH   1   2
BRANCH   1  14
ATOM     14  C   UNL     1       2.109  -2.964   0.258  0.00  0.00    +0.238 C 
ATOM     15  O   UNL     1       2.526  -3.901  -0.389  0.00  0.00    -0.273 OA
ATOM     16  N   UNL     1       2.912  -1.912   0.515  0.00  0.00    -0.311 N 
ATOM     17  H   UNL     1       2.578  -1.163   1.032  0.00  0.00    +0.149 HD
BRANCH  16  18
ATOM     18  C   UNL     1       4.288  -1.901   0.013  0.00  0.00    +0.073 C 
ATOM     19  C   UNL     1       5.195  -2.646   0.996  0.00  0.00    +0.022 C 
ATOM     20  C   UNL     1       6.632  -2.634   0.472  0.00  0.00    +0.002 C 
ATOM     21  C   UNL     1       7.112  -1.188   0.331  0.00  0.00    +0.000 C 
ATOM     22  C   UNL     1       6.205  -0.444  -0.651  0.00  0.00    +0.002 C 
ATOM     23  C   UNL     1       4.768  -0.455  -0.128  0.00  0.00    +0.022 C 
ENDBRANCH  16  18
ENDBRANCH   1  14
BRANCH   1  24
ATOM     24  N   UNL     1      -0.105  -3.920  -0.012  0.00  0.00    -0.277 N 
ATOM     25  C   UNL     1      -0.676  -4.982   0.589  0.00  0.00    +0.248 C 
ATOM     26  O   UNL     1      -1.002  -4.917   1.758  0.00  0.00    -0.270 OA
BRANCH  25  27
ATOM     27  C   UNL     1      -0.906  -6.227  -0.173  0.00  0.00    +0.037 A 
ATOM     28  C   UNL     1      -0.260  -6.430  -1.395  0.00  0.00    +0.016 A 
ATOM     29  C   UNL     1      -0.477  -7.593  -2.102  0.00  0.00    +0.039 A 
ATOM     30  C   UNL     1      -1.336  -8.560  -1.603  0.00  0.00    +0.123 A 
ATOM     31  C   UNL     1      -1.980  -8.364  -0.391  0.00  0.00    +0.039 A 
ATOM     32  C   UNL     1      -1.765  -7.207   0.328  0.00  0.00    +0.016 A 
ATOM     33  F   UNL     1      -1.547  -9.697  -2.300  0.00  0.00    -0.205 F 
ENDBRANCH  25  27
BRANCH  24  35
ATOM     34  C   UNL     1      -0.703  -2.259  -1.706  0.00  0.00    +0.031 C 
ATOM     35  C   UNL     1      -0.283  -3.709  -1.451  0.00  0.00    +0.030 C 
ATOM     36  C   UNL     1      -1.367  -4.653  -1.974  0.00  0.00    +0.031 C 
ATOM     37  C   UNL     1       1.034  -3.993  -2.175  0.00  0.00    +0.031 C 
ENDBRANCH  24  35
ENDBRANCH   1  24
TORSDOF 7
