REMARK  Name = ZINC14472880
REMARK  4 active torsions:
REMARK  status: ('A' for Active; 'I' for Inactive)
REMARK    1  A    between atoms: C_1  and  C_2
REMARK    2  A    between atoms: C_7  and  C_8
REMARK    3  A    between atoms: C_10  and  C_19
REMARK    4  A    between atoms: C_21  and  N_26
REMARK                            x       y       z     vdW  Elec       q    Type
REMARK                         _______ _______ _______ _____ _____    ______ ____
ROOT
ATOM      1  C   UNL     1      -1.333   2.106   0.020  0.00  0.00    +0.044 C 
ATOM      2  C   UNL     1      -0.017   1.373   0.010  0.00  0.00    -0.046 A 
ATOM      3  C   UNL     1       1.169   2.085   0.002  0.00  0.00    +0.004 A 
ATOM      4  C   UNL     1       2.373   1.408  -0.019  0.00  0.00    +0.006 A 
ATOM      5  C   UNL     1       2.401   0.029  -0.035  0.00  0.00    -0.019 A 
ATOM      6  C   UNL     1       1.211  -0.703  -0.019  0.00  0.00    +0.035 A 
ATOM      7  C   UNL     1       0.002  -0.004   0.002  0.00  0.00    -0.026 A 
ATOM      8  C   UNL     1      -1.298  -0.766   0.017  0.00  0.00    +0.046 C 
ATOM      9  N   UNL     1       1.150  -2.095  -0.007  0.00  0.00    -0.336 N 
ATOM     10  C   UNL     1       2.430  -2.814  -0.113  0.00  0.00    +0.106 C 
ATOM     11  C   UNL     1       3.442  -2.047   0.712  0.00  0.00    +0.029 C 
ATOM     12  C   UNL     1       3.674  -0.723  -0.081  0.00  0.00    +0.049 C 
ATOM     13  C   UNL     1       4.935  -0.201   0.499  0.00  0.00    -0.023 C 
ATOM     14  C   UNL     1       5.657  -1.228   0.934  0.00  0.00    -0.030 C 
ATOM     15  C   UNL     1       4.894  -2.536   0.704  0.00  0.00    +0.033 C 
ATOM     16  H   UNL     1       0.613  -2.427   0.780  0.00  0.00    +0.147 HD
ENDROOT
BRANCH  10  17
ATOM     17  C   UNL     1       2.872  -2.865  -1.553  0.00  0.00    -0.007 A 
ATOM     18  C   UNL     1       2.437  -1.903  -2.445  0.00  0.00    +0.039 A 
ATOM     19  C   UNL     1       2.843  -1.949  -3.765  0.00  0.00    +0.127 A 
ATOM     20  C   UNL     1       3.684  -2.959  -4.195  0.00  0.00    +0.034 A 
ATOM     21  C   UNL     1       4.120  -3.922  -3.305  0.00  0.00    +0.022 A 
ATOM     22  C   UNL     1       3.718  -3.873  -1.982  0.00  0.00    +0.046 A 
ATOM     23 CL   UNL     1       4.270  -5.078  -0.861  0.00  0.00    -0.083 Cl
BRANCH  19  24
ATOM     24  N   UNL     1       2.376  -0.919  -4.719  0.00  0.00    +0.056 N 
ATOM     25  O   UNL     1       1.635  -0.029  -4.341  0.00  0.00    -0.126 OA
ATOM     26  O   UNL     1       2.734  -0.959  -5.883  0.00  0.00    -0.126 OA
ENDBRANCH  19  24
ENDBRANCH  10  17
TORSDOF 2
