REMARK  Name = ZINC41006519
REMARK  12 active torsions:
REMARK  status: ('A' for Active; 'I' for Inactive)
REMARK    1  A    between atoms: C_1  and  C_2
REMARK    2  A    between atoms: C_2  and  O_3
REMARK    3  A    between atoms: O_3  and  C_4
REMARK    4  A    between atoms: C_7  and  C_10
REMARK    5  A    between atoms: C_12  and  C_32
REMARK    6  A    between atoms: C_17  and  C_30
REMARK    7  A    between atoms: C_17  and  O_31
REMARK    8  A    between atoms: C_18  and  C_20
REMARK    9  A    between atoms: N_22  and  C_23
REMARK   10  A    between atoms: C_28  and  C_29
REMARK   11  A    between atoms: N_34  and  C_35
REMARK   12  A    between atoms: C_40  and  C_41
REMARK                            x       y       z     vdW  Elec       q    Type
REMARK                         _______ _______ _______ _____ _____    ______ ____
ROOT
ATOM      1  C   UNL     1       1.584  -6.247  -1.907  0.00  0.00    +0.053 C 
ATOM      2  C   UNL     1       3.077  -6.590  -1.920  0.00  0.00    +0.149 C 
ATOM      3  C   UNL     1       3.229  -8.066  -2.215  0.00  0.00    +0.148 C 
ATOM      4  O   UNL     1       3.904  -8.774  -1.506  0.00  0.00    -0.296 OA
ATOM      5  C   UNL     1       2.513  -8.633  -3.421  0.00  0.00    +0.110 C 
ATOM      6  C   UNL     1       1.040  -8.216  -3.354  0.00  0.00    +0.082 C 
ATOM      7  C   UNL     1       0.948  -6.694  -3.225  0.00  0.00    +0.115 C 
ATOM      8  C   UNL     1       0.324  -8.663  -4.630  0.00  0.00    +0.042 C 
ENDROOT
BRANCH   1  12
ATOM      9  C   UNL     1       1.097  -2.026  -1.450  0.00  0.00    +0.121 A 
ATOM     10  C   UNL     1       0.752  -2.881  -0.414  0.00  0.00    +0.046 A 
ATOM     11  C   UNL     1       0.910  -4.245  -0.564  0.00  0.00    +0.007 A 
ATOM     12  C   UNL     1       1.412  -4.758  -1.746  0.00  0.00    -0.042 A 
ATOM     13  C   UNL     1       1.757  -3.908  -2.780  0.00  0.00    +0.007 A 
ATOM     14  C   UNL     1       1.595  -2.544  -2.638  0.00  0.00    +0.046 A 
BRANCH   9  15
ATOM     15  O   UNL     1       0.942  -0.684  -1.305  0.00  0.00    -0.492 OA
BRANCH  15  17
ATOM     16  C   UNL     1       0.321   1.304  -0.080  0.00  0.00    +0.048 C 
ATOM     17  C   UNL     1       0.424  -0.222  -0.056  0.00  0.00    +0.225 C 
ENDBRANCH  15  17
ENDBRANCH   9  15
ENDBRANCH   1  12
BRANCH   7  18
ATOM     18  C   UNL     1       1.675  -6.049  -4.376  0.00  0.00    +0.224 C 
ATOM     19  O   UNL     1       2.710  -6.530  -4.786  0.00  0.00    -0.275 OA
ATOM     20  N   UNL     1       1.175  -4.937  -4.950  0.00  0.00    -0.285 N 
ATOM     21  H   UNL     1       0.396  -4.502  -4.569  0.00  0.00    +0.155 HD
BRANCH  20  22
ATOM     22  C   UNL     1       1.780  -4.409  -6.097  0.00  0.00    +0.036 A 
ATOM     23  C   UNL     1       2.717  -5.158  -6.797  0.00  0.00    +0.023 A 
ATOM     24  C   UNL     1       3.312  -4.634  -7.928  0.00  0.00    +0.002 A 
ATOM     25  C   UNL     1       2.975  -3.366  -8.363  0.00  0.00    +0.000 A 
ATOM     26  C   UNL     1       2.043  -2.618  -7.669  0.00  0.00    +0.005 A 
ATOM     27  C   UNL     1       1.439  -3.138  -6.540  0.00  0.00    -0.029 A 
ATOM     28  C   UNL     1       0.418  -2.325  -5.788  0.00  0.00    +0.045 C 
ENDBRANCH  20  22
ENDBRANCH   7  18
BRANCH   2  29
ATOM     29  C   UNL     1       3.773  -5.783  -2.985  0.00  0.00    +0.228 C 
ATOM     30  O   UNL     1       3.703  -4.572  -2.971  0.00  0.00    -0.275 OA
ATOM     31  N   UNL     1       4.474  -6.406  -3.953  0.00  0.00    -0.285 N 
ATOM     32  H   UNL     1       4.470  -7.375  -4.008  0.00  0.00    +0.155 HD
BRANCH  31  33
ATOM     33  C   UNL     1       5.209  -5.656  -4.878  0.00  0.00    +0.036 A 
ATOM     34  C   UNL     1       5.452  -4.309  -4.645  0.00  0.00    +0.023 A 
ATOM     35  C   UNL     1       6.177  -3.571  -5.560  0.00  0.00    +0.002 A 
ATOM     36  C   UNL     1       6.660  -4.173  -6.708  0.00  0.00    +0.000 A 
ATOM     37  C   UNL     1       6.419  -5.514  -6.943  0.00  0.00    +0.005 A 
ATOM     38  C   UNL     1       5.700  -6.259  -6.028  0.00  0.00    -0.029 A 
ATOM     39  C   UNL     1       5.444  -7.722  -6.282  0.00  0.00    +0.045 C 
ENDBRANCH  31  33
ENDBRANCH   2  29
BRANCH   6  40
ATOM     40  O   UNL     1       0.422  -8.829  -2.221  0.00  0.00    -0.388 OA
ATOM     41  H   UNL     1       0.444  -9.795  -2.236  0.00  0.00    +0.210 HD
ENDBRANCH   6  40
TORSDOF 8
