REMARK  Name = ZINC20673283
REMARK  9 active torsions:
REMARK  status: ('A' for Active; 'I' for Inactive)
REMARK    1  A    between atoms: C_1  and  C_2
REMARK    2  A    between atoms: C_5  and  C_9
REMARK    3  A    between atoms: C_6  and  C_8
REMARK    4  A    between atoms: C_11  and  C_14
REMARK    5  A    between atoms: C_16  and  C_35
REMARK    6  A    between atoms: N_17  and  N_20
REMARK    7  A    between atoms: C_18  and  C_19
REMARK    8  A    between atoms: C_21  and  C_23
REMARK    9  A    between atoms: N_32  and  C_34
REMARK                            x       y       z     vdW  Elec       q    Type
REMARK                         _______ _______ _______ _____ _____    ______ ____
ROOT
ATOM      1  C   UNL     1      -1.307  -5.514   1.145  0.00  0.00    +0.023 A 
ATOM      2  C   UNL     1      -0.083  -5.564   1.859  0.00  0.00    +0.034 A 
ATOM      3  C   UNL     1       0.275  -4.295   2.132  0.00  0.00    +0.037 A 
ATOM      4  N   UNL     1      -0.673  -3.458   1.621  0.00  0.00    -0.267 N 
ATOM      5  C   UNL     1      -1.645  -4.203   1.021  0.00  0.00    +0.045 A 
ATOM      6  C   UNL     1      -2.876  -3.667   0.337  0.00  0.00    +0.066 C 
ATOM      7  C   UNL     1       1.513  -3.871   2.879  0.00  0.00    +0.065 C 
ENDROOT
BRANCH   1  10
ATOM      8  C   UNL     1      -3.913  -7.511  -0.480  0.00  0.00    +0.109 A 
ATOM      9  N   UNL     1      -3.209  -6.489  -0.017  0.00  0.00    -0.239 NA
ATOM     10  C   UNL     1      -2.078  -6.676   0.636  0.00  0.00    +0.081 A 
ATOM     11  C   UNL     1      -1.619  -7.952   0.834  0.00  0.00    +0.075 A 
ATOM     12  S   UNL     1      -2.910  -8.897   0.036  0.00  0.00    -0.075 S 
BRANCH   8  17
ATOM     13  C   UNL     1      -8.881  -7.491  -3.385  0.00  0.00    +0.044 C 
ATOM     14  C   UNL     1      -7.580  -7.496  -2.625  0.00  0.00    -0.050 A 
ATOM     15  C   UNL     1      -7.082  -6.315  -2.103  0.00  0.00    +0.004 A 
ATOM     16  C   UNL     1      -5.895  -6.314  -1.401  0.00  0.00    +0.011 A 
ATOM     17  C   UNL     1      -5.189  -7.505  -1.227  0.00  0.00    +0.010 A 
ATOM     18  C   UNL     1      -5.697  -8.693  -1.756  0.00  0.00    -0.041 A 
ATOM     19  C   UNL     1      -6.888  -8.681  -2.451  0.00  0.00    +0.007 A 
ATOM     20  C   UNL     1      -4.945  -9.985  -1.567  0.00  0.00    +0.044 C 
ENDBRANCH   8  17
ENDBRANCH   1  10
BRANCH   4  21
ATOM     21  N   UNL     1      -0.654  -2.060   1.703  0.00  0.00    -0.217 N 
ATOM     22  C   UNL     1      -1.157  -1.319   0.696  0.00  0.00    +0.283 C 
ATOM     23  O   UNL     1      -1.541  -1.859  -0.324  0.00  0.00    -0.267 OA
ATOM     24  H   UNL     1      -0.228  -1.567   2.589  0.00  0.00    +0.176 HD
BRANCH  22  25
ATOM     25  C   UNL     1      -1.243   0.149   0.831  0.00  0.00    +0.155 A 
ATOM     26  C   UNL     1      -1.792   0.967  -0.263  0.00  0.00    +0.020 A 
ATOM     27  C   UNL     1      -2.250   0.419  -1.456  0.00  0.00    +0.011 A 
ATOM     28  C   UNL     1      -2.752   1.251  -2.435  0.00  0.00    +0.001 A 
ATOM     29  C   UNL     1      -2.804   2.625  -2.241  0.00  0.00    +0.001 A 
ATOM     30  C   UNL     1      -2.355   3.189  -1.065  0.00  0.00    +0.014 A 
ATOM     31  C   UNL     1      -1.845   2.366  -0.066  0.00  0.00    +0.050 A 
ATOM     32  C   UNL     1      -1.347   2.882   1.216  0.00  0.00    +0.275 A 
ATOM     33  O   UNL     1      -1.361   4.076   1.455  0.00  0.00    -0.266 OA
ATOM     34  N   UNL     1      -0.872   2.003   2.122  0.00  0.00    -0.231 N 
ATOM     35  N   UNL     1      -0.832   0.740   1.927  0.00  0.00    -0.163 NA
ATOM     36  C   UNL     1      -0.382   2.522   3.402  0.00  0.00    +0.176 C 
ENDBRANCH  22  25
ENDBRANCH   4  21
TORSDOF 4
