REMARK  Name = ZINC39337850
REMARK  7 active torsions:
REMARK  status: ('A' for Active; 'I' for Inactive)
REMARK    1  A    between atoms: C_6  and  C_7
REMARK    2  A    between atoms: C_7  and  N_8
REMARK    3  A    between atoms: C_9  and  C_11
REMARK    4  A    between atoms: C_13  and  C_27
REMARK    5  A    between atoms: C_15  and  S_17
REMARK    6  A    between atoms: S_17  and  N_20
REMARK    7  A    between atoms: N_20  and  C_21
REMARK                            x       y       z     vdW  Elec       q    Type
REMARK                         _______ _______ _______ _____ _____    ______ ____
ROOT
ATOM      1  C   UNL     1      -3.305  -1.935  -2.998  0.00  0.00    +0.039 A 
ATOM      2  C   UNL     1      -4.490  -2.629  -3.249  0.00  0.00    +0.019 A 
ATOM      3  C   UNL     1      -4.892  -2.853  -4.550  0.00  0.00    -0.017 A 
ATOM      4  C   UNL     1      -4.124  -2.392  -5.604  0.00  0.00    +0.034 A 
ATOM      5  C   UNL     1      -2.949  -1.704  -5.362  0.00  0.00    +0.106 A 
ATOM      6  C   UNL     1      -2.538  -1.468  -4.066  0.00  0.00    +0.041 A 
ENDROOT
BRANCH   3   7
ATOM      7  C   UNL     1      -6.171  -3.602  -4.822  0.00  0.00    +0.153 C 
ATOM      8  C   UNL     1      -7.376  -2.704  -4.608  0.00  0.00    +0.025 C 
ATOM      9  C   UNL     1      -8.050  -3.300  -3.622  0.00  0.00    +0.130 C 
ATOM     10  N   UNL     1      -7.418  -4.424  -3.220  0.00  0.00    -0.186 NA
ATOM     11  N   UNL     1      -6.370  -4.672  -3.830  0.00  0.00    -0.298 N 
ATOM     12  H   UNL     1      -5.785  -5.432  -3.683  0.00  0.00    +0.183 HD
ENDBRANCH   3   7
BRANCH   1  14
ATOM     13  N   UNL     1      -1.727  -1.016  -1.368  0.00  0.00    -0.307 N 
ATOM     14  C   UNL     1      -2.868  -1.691  -1.607  0.00  0.00    +0.244 C 
ATOM     15  O   UNL     1      -3.538  -2.099  -0.679  0.00  0.00    -0.270 OA
ATOM     16  H   UNL     1      -1.192  -0.690  -2.109  0.00  0.00    +0.149 HD
BRANCH  13  17
ATOM     17  C   UNL     1      -1.294  -0.774   0.010  0.00  0.00    +0.140 C 
BRANCH  17  23
ATOM     18  C   UNL     1      -0.017   1.378   0.010  0.00  0.00    +0.009 A 
ATOM     19  C   UNL     1       1.170   2.088   0.002  0.00  0.00    +0.050 A 
ATOM     20  C   UNL     1       2.380   1.416  -0.013  0.00  0.00    +0.166 A 
ATOM     21  C   UNL     1       2.399   0.023  -0.021  0.00  0.00    +0.167 A 
ATOM     22  C   UNL     1       1.207  -0.682  -0.014  0.00  0.00    +0.054 A 
ATOM     23  C   UNL     1       0.002  -0.004   0.002  0.00  0.00    -0.027 A 
ATOM     24  O   UNL     1       3.698  -0.395  -0.036  0.00  0.00    -0.453 OA
ATOM     25  C   UNL     1       4.466   0.750  -0.450  0.00  0.00    +0.466 C 
ATOM     26  O   UNL     1       3.668   1.870  -0.024  0.00  0.00    -0.453 OA
ENDBRANCH  17  23
ENDBRANCH  13  17
ENDBRANCH   1  14
BRANCH   5  27
ATOM     27  S   UNL     1      -1.978  -1.121  -6.712  0.00  0.00    +0.059 S 
ATOM     28  O   UNL     1      -0.649  -0.983  -6.227  0.00  0.00    -0.153 OA
ATOM     29  O   UNL     1      -2.300  -1.940  -7.828  0.00  0.00    -0.153 OA
BRANCH  27  30
ATOM     30  N   UNL     1      -2.509   0.405  -7.075  0.00  0.00    -0.187 NA
ATOM     31  H   UNL     1      -2.929   0.581  -7.932  0.00  0.00    +0.148 HD
BRANCH  30  32
ATOM     32  C   UNL     1      -2.345   1.488  -6.103  0.00  0.00    +0.077 C 
ATOM     33  C   UNL     1      -3.626   1.633  -5.279  0.00  0.00    +0.020 C 
ATOM     34  C   UNL     1      -3.454   2.765  -4.264  0.00  0.00    +0.002 C 
ATOM     35  C   UNL     1      -3.172   4.075  -5.004  0.00  0.00    +0.000 C 
ATOM     36  C   UNL     1      -1.891   3.930  -5.828  0.00  0.00    +0.002 C 
ATOM     37  C   UNL     1      -2.063   2.798  -6.843  0.00  0.00    +0.020 C 
ENDBRANCH  30  32
ENDBRANCH  27  30
ENDBRANCH   5  27
TORSDOF 7
