REMARK  Name = ZINC20559612
REMARK  9 active torsions:
REMARK  status: ('A' for Active; 'I' for Inactive)
REMARK    1  A    between atoms: C_1  and  C_2
REMARK    2  A    between atoms: C_6  and  N_9
REMARK    3  A    between atoms: C_7  and  C_8
REMARK    4  A    between atoms: C_10  and  C_12
REMARK    5  A    between atoms: C_12  and  C_13
REMARK    6  A    between atoms: N_20  and  C_21
REMARK    7  A    between atoms: C_21  and  C_23
REMARK    8  A    between atoms: C_21  and  C_30
REMARK    9  A    between atoms: C_26  and  O_29
REMARK                            x       y       z     vdW  Elec       q    Type
REMARK                         _______ _______ _______ _____ _____    ______ ____
ROOT
ATOM      1  C   UNL     1      -2.179  -4.325  -0.318  0.00  0.00    +0.150 C 
ATOM      2  C   UNL     1      -3.461  -5.150  -0.304  0.00  0.00    +0.252 C 
ATOM      3  O   UNL     1      -4.224  -5.171   0.642  0.00  0.00    -0.272 OA
ATOM      4  N   UNL     1      -3.666  -5.833  -1.399  0.00  0.00    -0.158 NA
ATOM      5  C   UNL     1      -2.853  -5.829  -2.443  0.00  0.00    +0.148 C 
ATOM      6  S   UNL     1      -1.560  -4.762  -1.991  0.00  0.00    -0.080 S 
ATOM      7  N   UNL     1      -2.999  -6.511  -3.615  0.00  0.00    -0.314 N 
ATOM      8  H   UNL     1      -2.240  -6.415  -4.405  0.00  0.00    +0.149 HD
ENDROOT
BRANCH   1   9
ATOM      9  C   UNL     1      -2.477  -2.828  -0.206  0.00  0.00    +0.120 C 
BRANCH   9  11
ATOM     10  N   UNL     1      -1.199  -0.722   0.009  0.00  0.00    -0.285 N 
ATOM     11  C   UNL     1      -1.183  -2.065  -0.100  0.00  0.00    +0.219 C 
ATOM     12  O   UNL     1      -0.125  -2.659  -0.113  0.00  0.00    -0.275 OA
ATOM     13  H   UNL     1      -2.158  -0.189   0.096  0.00  0.00    +0.155 HD
BRANCH  10  19
ATOM     14  C   UNL     1       1.323   3.319  -1.211  0.00  0.00    +0.044 C 
ATOM     15  C   UNL     1       1.253   1.956  -0.572  0.00  0.00    -0.046 A 
ATOM     16  C   UNL     1       2.379   1.412   0.019  0.00  0.00    +0.004 A 
ATOM     17  C   UNL     1       2.320   0.162   0.606  0.00  0.00    +0.002 A 
ATOM     18  C   UNL     1       1.135  -0.548   0.605  0.00  0.00    +0.023 A 
ATOM     19  C   UNL     1       0.003  -0.005   0.013  0.00  0.00    +0.037 A 
ATOM     20  C   UNL     1       0.066   1.251  -0.577  0.00  0.00    -0.026 A 
ATOM     21  C   UNL     1      -1.159   1.842  -1.226  0.00  0.00    +0.046 C 
ENDBRANCH  10  19
ENDBRANCH   9  11
ENDBRANCH   1   9
BRANCH   7  22
ATOM     22  C   UNL     1      -4.166  -7.373  -3.821  0.00  0.00    +0.143 C 
BRANCH  22  23
ATOM     23  C   UNL     1      -3.897  -8.733  -3.229  0.00  0.00    +0.106 A 
ATOM     24  C   UNL     1      -4.751  -9.268  -2.311  0.00  0.00    +0.263 A 
ATOM     25  N   UNL     1      -4.487 -10.508  -1.786  0.00  0.00    -0.275 N 
ATOM     26  H   UNL     1      -5.170 -10.947  -1.045  0.00  0.00    +0.173 HD
ATOM     27  C   UNL     1      -3.396 -11.193  -2.172  0.00  0.00    +0.329 A 
ATOM     28  O   UNL     1      -3.178 -12.290  -1.696  0.00  0.00    -0.247 OA
ATOM     29  N   UNL     1      -2.541 -10.682  -3.077  0.00  0.00    -0.275 N 
ATOM     30  H   UNL     1      -1.651 -11.255  -3.378  0.00  0.00    +0.173 HD
ATOM     31  C   UNL     1      -2.765  -9.470  -3.621  0.00  0.00    +0.263 A 
ATOM     32  O   UNL     1      -1.991  -9.013  -4.444  0.00  0.00    -0.267 OA
ATOM     33  O   UNL     1      -5.847  -8.583  -1.921  0.00  0.00    -0.267 OA
ENDBRANCH  22  23
BRANCH  22  34
ATOM     34  C   UNL     1      -4.434  -7.511  -5.297  0.00  0.00    -0.022 A 
ATOM     35  C   UNL     1      -3.378  -7.644  -6.181  0.00  0.00    +0.009 A 
ATOM     36  C   UNL     1      -3.622  -7.776  -7.534  0.00  0.00    +0.046 A 
ATOM     37  C   UNL     1      -4.925  -7.765  -8.008  0.00  0.00    +0.117 A 
ATOM     38  C   UNL     1      -5.982  -7.627  -7.120  0.00  0.00    +0.046 A 
ATOM     39  C   UNL     1      -5.734  -7.500  -5.767  0.00  0.00    +0.009 A 
BRANCH  37  40
ATOM     40  O   UNL     1      -5.167  -7.891  -9.339  0.00  0.00    -0.507 OA
ATOM     41  H   UNL     1      -6.201  -7.882  -9.714  0.00  0.00    +0.292 HD
ENDBRANCH  37  40
ENDBRANCH  22  34
ENDBRANCH   7  22
TORSDOF 7
