REMARK  Name = ZINC33051774
REMARK  7 active torsions:
REMARK  status: ('A' for Active; 'I' for Inactive)
REMARK    1  A    between atoms: C_1  and  C_2
REMARK    2  A    between atoms: C_2  and  C_3
REMARK    3  A    between atoms: N_6  and  C_8
REMARK    4  A    between atoms: C_19  and  C_33
REMARK    5  A    between atoms: N_25  and  C_26
REMARK    6  A    between atoms: C_26  and  C_27
REMARK    7  A    between atoms: C_36  and  C_39
REMARK                            x       y       z     vdW  Elec       q    Type
REMARK                         _______ _______ _______ _____ _____    ______ ____
ROOT
ATOM      1  C   UNL     1      -4.501   5.614   0.746  0.00  0.00    +0.070 A 
ATOM      2  C   UNL     1      -4.939   4.637  -0.143  0.00  0.00    +0.036 A 
ATOM      3  C   UNL     1      -3.860   3.866  -0.469  0.00  0.00    +0.146 A 
ATOM      4  N   UNL     1      -2.782   4.361   0.167  0.00  0.00    -0.215 N 
ATOM      5  N   UNL     1      -3.213   5.452   0.939  0.00  0.00    -0.169 NA
ATOM      6  N   UNL     1      -4.015   2.733  -1.277  0.00  0.00    -0.303 N 
ATOM      7  C   UNL     1      -3.282   2.300  -2.329  0.00  0.00    +0.093 A 
ATOM      8  C   UNL     1      -3.906   1.219  -2.851  0.00  0.00    +0.020 A 
ATOM      9  C   UNL     1      -5.054   0.970  -2.068  0.00  0.00    +0.025 A 
ATOM     10  C   UNL     1      -5.081   1.889  -1.090  0.00  0.00    +0.050 A 
ATOM     11  C   UNL     1      -6.058   2.035   0.040  0.00  0.00    +0.155 C 
ATOM     12  N   UNL     1      -6.945   3.206  -0.156  0.00  0.00    -0.269 N 
ATOM     13  C   UNL     1      -6.309   4.422  -0.714  0.00  0.00    +0.151 C 
ATOM     14  C   UNL     1      -8.256   3.166   0.156  0.00  0.00    +0.304 C 
ATOM     15  O   UNL     1      -8.742   2.150   0.612  0.00  0.00    -0.253 OA
ATOM     16  N   UNL     1      -9.028   4.254  -0.038  0.00  0.00    -0.295 N 
ATOM     17  H   UNL     1      -8.588   5.174  -0.451  0.00  0.00    +0.151 HD
ENDROOT
BRANCH  11  18
ATOM     18  C   UNL     1      -5.298   2.205   1.329  0.00  0.00    -0.021 A 
ATOM     19  C   UNL     1      -4.142   1.479   1.550  0.00  0.00    +0.006 A 
ATOM     20  C   UNL     1      -3.441   1.637   2.732  0.00  0.00    +0.004 A 
ATOM     21  C   UNL     1      -3.902   2.514   3.696  0.00  0.00    -0.050 A 
ATOM     22  C   UNL     1      -5.061   3.236   3.477  0.00  0.00    +0.004 A 
ATOM     23  C   UNL     1      -5.758   3.081   2.294  0.00  0.00    +0.006 A 
ATOM     24  C   UNL     1      -3.142   2.683   4.986  0.00  0.00    +0.044 C 
ENDBRANCH  11  18
BRANCH   4  25
ATOM     25  C   UNL     1      -1.469   3.880   0.071  0.00  0.00    +0.068 A 
ATOM     26  C   UNL     1      -1.235   2.519  -0.073  0.00  0.00    +0.028 A 
ATOM     27  C   UNL     1       0.060   2.047  -0.162  0.00  0.00    +0.002 A 
ATOM     28  C   UNL     1       1.123   2.930  -0.119  0.00  0.00    +0.000 A 
ATOM     29  C   UNL     1       0.893   4.287   0.018  0.00  0.00    +0.002 A 
ATOM     30  C   UNL     1      -0.399   4.764   0.113  0.00  0.00    +0.028 A 
ENDBRANCH   4  25
BRANCH   1  32
ATOM     31  C   UNL     1      -5.375   7.920   0.488  0.00  0.00    +0.010 C 
ATOM     32  C   UNL     1      -5.361   6.678   1.380  0.00  0.00    +0.054 C 
ENDBRANCH   1  32
BRANCH  16  33
ATOM     33  C   UNL     1     -10.453   4.211   0.300  0.00  0.00    +0.141 C 
BRANCH  33  34
ATOM     34  C   UNL     1     -11.083   5.545  -0.009  0.00  0.00    -0.030 A 
ATOM     35  C   UNL     1     -11.125   6.531   0.958  0.00  0.00    +0.005 A 
ATOM     36  C   UNL     1     -11.699   7.755   0.672  0.00  0.00    +0.000 A 
ATOM     37  C   UNL     1     -12.239   7.990  -0.578  0.00  0.00    +0.000 A 
ATOM     38  C   UNL     1     -12.203   7.002  -1.544  0.00  0.00    +0.000 A 
ATOM     39  C   UNL     1     -11.624   5.779  -1.260  0.00  0.00    +0.005 A 
ENDBRANCH  33  34
ENDBRANCH  16  33
TORSDOF 5
