REMARK  Name = ZINC12887889
REMARK  7 active torsions:
REMARK  status: ('A' for Active; 'I' for Inactive)
REMARK    1  A    between atoms: C_1  and  C_2
REMARK    2  A    between atoms: C_13  and  C_15
REMARK    3  A    between atoms: C_15  and  C_16
REMARK    4  A    between atoms: N_28  and  C_31
REMARK    5  A    between atoms: C_31  and  C_32
REMARK    6  A    between atoms: C_32  and  O_33
REMARK    7  A    between atoms: O_33  and  C_34
REMARK                            x       y       z     vdW  Elec       q    Type
REMARK                         _______ _______ _______ _____ _____    ______ ____
ROOT
ATOM      1  C   UNL     1      -2.564   9.279   2.618  0.00  0.00    +0.044 C 
ATOM      2  C   UNL     1      -1.541   8.482   3.385  0.00  0.00    -0.050 A 
ATOM      3  C   UNL     1      -1.748   8.194   4.722  0.00  0.00    +0.005 A 
ATOM      4  C   UNL     1      -0.815   7.465   5.430  0.00  0.00    +0.024 A 
ATOM      5  C   UNL     1       0.344   7.013   4.802  0.00  0.00    +0.036 A 
ATOM      6  C   UNL     1       0.541   7.309   3.457  0.00  0.00    -0.027 A 
ATOM      7  C   UNL     1      -0.393   8.037   2.755  0.00  0.00    +0.008 A 
ATOM      8  C   UNL     1       1.861   6.691   3.090  0.00  0.00    +0.050 C 
ATOM      9  C   UNL     1       2.852   7.743   2.579  0.00  0.00    +0.088 C 
ATOM     10  C   UNL     1       3.666   7.010   1.474  0.00  0.00    +0.073 C 
ATOM     11  C   UNL     1       3.086   5.581   1.439  0.00  0.00    -0.053 C 
ATOM     12  C   UNL     1       3.269   7.740   0.210  0.00  0.00    +0.224 C 
ATOM     13  O   UNL     1       3.671   7.480  -0.904  0.00  0.00    -0.275 OA
ATOM     14  N   UNL     1       2.407   8.718   0.511  0.00  0.00    -0.240 N 
ATOM     15  C   UNL     1       2.106   8.812   1.811  0.00  0.00    +0.225 C 
ATOM     16  O   UNL     1       1.352   9.627   2.299  0.00  0.00    -0.275 OA
ATOM     17  C   UNL     1       2.353   6.039   4.353  0.00  0.00    +0.211 C 
ATOM     18  O   UNL     1       3.389   5.426   4.495  0.00  0.00    -0.277 OA
ATOM     19  N   UNL     1       1.419   6.270   5.296  0.00  0.00    -0.286 N 
ATOM     20  H   UNL     1       1.485   5.957   6.212  0.00  0.00    +0.155 HD
ATOM     21  N   UNL     1       1.745   5.727   2.010  0.00  0.00    +0.394 N 
ATOM     22  H   UNL     1       1.091   6.069   1.296  0.00  0.00    -0.083 HD
ATOM     23  H   UNL     1       1.414   4.825   2.373  0.00  0.00    -0.083 HD
ENDROOT
BRANCH  11  24
ATOM     24  C   UNL     1       3.027   5.065   0.000  0.00  0.00    +0.022 C 
BRANCH  24  25
ATOM     25  C   UNL     1       2.539   3.639  -0.003  0.00  0.00    -0.024 A 
ATOM     26  C   UNL     1       3.301   2.534  -0.016  0.00  0.00    +0.087 A 
ATOM     27  N   UNL     1       2.507   1.420  -0.014  0.00  0.00    -0.360 N 
ATOM     28  H   UNL     1       2.830   0.505  -0.021  0.00  0.00    +0.165 HD
ATOM     29  C   UNL     1       1.181   1.790   0.000  0.00  0.00    +0.047 A 
ATOM     30  C   UNL     1       1.143   3.196   0.008  0.00  0.00    +0.003 A 
ATOM     31  C   UNL     1      -0.085   3.860   0.023  0.00  0.00    +0.010 A 
ATOM     32  C   UNL     1      -1.246   3.138   0.030  0.00  0.00    +0.001 A 
ATOM     33  C   UNL     1      -1.214   1.751   0.017  0.00  0.00    +0.002 A 
ATOM     34  C   UNL     1      -0.013   1.076   0.008  0.00  0.00    +0.026 A 
ENDBRANCH  24  25
ENDBRANCH  11  24
BRANCH  14  35
ATOM     35  C   UNL     1       1.838   9.612  -0.500  0.00  0.00    +0.144 C 
BRANCH  35  36
ATOM     36  C   UNL     1       2.740  10.837  -0.664  0.00  0.00    +0.179 C 
BRANCH  36  37
ATOM     37  O   UNL     1       4.005  10.429  -1.189  0.00  0.00    -0.381 OA
ATOM     38  C   UNL     1       4.928  11.503  -1.381  0.00  0.00    +0.194 C 
ENDBRANCH  36  37
ENDBRANCH  35  36
ENDBRANCH  14  35
TORSDOF 5
