REMARK  Name = ZINC09344738
REMARK  9 active torsions:
REMARK  status: ('A' for Active; 'I' for Inactive)
REMARK    1  A    between atoms: C_1  and  C_2
REMARK    2  A    between atoms: C_2  and  O_3
REMARK    3  A    between atoms: O_3  and  C_4
REMARK    4  A    between atoms: C_7  and  C_10
REMARK    5  A    between atoms: C_24  and  S_37
REMARK    6  A    between atoms: C_27  and  C_29
REMARK    7  A    between atoms: C_32  and  O_35
REMARK    8  A    between atoms: O_35  and  C_36
REMARK    9  A    between atoms: S_37  and  C_38
REMARK                            x       y       z     vdW  Elec       q    Type
REMARK                         _______ _______ _______ _____ _____    ______ ____
ROOT
ATOM      1  C   UNL     1       1.178  -5.991  -1.883  0.00  0.00    +0.234 C 
ATOM      2  C   UNL     1       2.523  -6.469  -1.421  0.00  0.00    +0.025 C 
ATOM      3  C   UNL     1       3.565  -6.524  -2.276  0.00  0.00    +0.058 C 
ATOM      4  C   UNL     1       3.320  -6.106  -3.680  0.00  0.00    +0.040 A 
ATOM      5  C   UNL     1       4.366  -5.816  -4.544  0.00  0.00    +0.013 A 
ATOM      6  C   UNL     1       4.092  -5.429  -5.842  0.00  0.00    +0.001 A 
ATOM      7  C   UNL     1       2.783  -5.332  -6.279  0.00  0.00    +0.004 A 
ATOM      8  C   UNL     1       1.734  -5.620  -5.424  0.00  0.00    +0.046 A 
ATOM      9  C   UNL     1       1.994  -6.010  -4.122  0.00  0.00    +0.131 A 
ATOM     10  O   UNL     1       0.989  -6.304  -3.264  0.00  0.00    -0.479 OA
ATOM     11  N   UNL     1       4.789  -6.945  -1.877  0.00  0.00    -0.326 N 
ATOM     12  C   UNL     1       5.076  -7.339  -0.654  0.00  0.00    +0.216 C 
ATOM     13  N   UNL     1       6.221  -7.781  -0.103  0.00  0.00    -0.192 NA
ATOM     14  C   UNL     1       6.035  -8.067   1.171  0.00  0.00    +0.174 C 
ATOM     15  N   UNL     1       4.730  -7.814   1.501  0.00  0.00    -0.239 N 
ATOM     16  N   UNL     1       4.114  -7.346   0.338  0.00  0.00    -0.209 N 
ATOM     17  C   UNL     1       2.753  -6.902   0.010  0.00  0.00    +0.159 C 
ATOM     18  H   UNL     1       5.501  -6.957  -2.535  0.00  0.00    +0.169 HD
ATOM     19  H   UNL     1       4.316  -7.935   2.370  0.00  0.00    +0.172 HD
ENDROOT
BRANCH   1  23
ATOM     20  C   UNL     1       0.920  -1.759  -1.346  0.00  0.00    +0.121 A 
ATOM     21  C   UNL     1       0.205  -2.610  -0.515  0.00  0.00    +0.046 A 
ATOM     22  C   UNL     1       0.290  -3.978  -0.691  0.00  0.00    +0.011 A 
ATOM     23  C   UNL     1       1.087  -4.499  -1.694  0.00  0.00    -0.003 A 
ATOM     24  C   UNL     1       1.800  -3.653  -2.523  0.00  0.00    +0.011 A 
ATOM     25  C   UNL     1       1.714  -2.284  -2.355  0.00  0.00    +0.046 A 
BRANCH  20  26
ATOM     26  O   UNL     1       0.838  -0.414  -1.175  0.00  0.00    -0.492 OA
BRANCH  26  28
ATOM     27  C   UNL     1       0.035   1.585  -0.080  0.00  0.00    +0.048 C 
ATOM     28  C   UNL     1       0.001   0.056  -0.116  0.00  0.00    +0.225 C 
ENDBRANCH  26  28
ENDBRANCH  20  26
ENDBRANCH   1  23
BRANCH  17  29
ATOM     29  C   UNL     1       2.407  -5.745   0.913  0.00  0.00    -0.021 A 
ATOM     30  C   UNL     1       3.244  -4.648   0.980  0.00  0.00    +0.009 A 
ATOM     31  C   UNL     1       2.929  -3.587   1.807  0.00  0.00    +0.046 A 
ATOM     32  C   UNL     1       1.771  -3.623   2.570  0.00  0.00    +0.120 A 
ATOM     33  C   UNL     1       0.932  -4.726   2.499  0.00  0.00    +0.046 A 
ATOM     34  C   UNL     1       1.249  -5.782   1.667  0.00  0.00    +0.009 A 
BRANCH  32  35
ATOM     35  O   UNL     1       1.459  -2.581   3.384  0.00  0.00    -0.495 OA
ATOM     36  C   UNL     1       0.251  -2.688   4.140  0.00  0.00    +0.277 C 
ENDBRANCH  32  35
ENDBRANCH  17  29
BRANCH  14  37
ATOM     37  S   UNL     1       7.268  -8.678   2.271  0.00  0.00    -0.092 S 
ATOM     38  C   UNL     1       8.757  -8.795   1.241  0.00  0.00    +0.093 C 
ENDBRANCH  14  37
TORSDOF 6
