REMARK  Name = ZINC24719513
REMARK  8 active torsions:
REMARK  status: ('A' for Active; 'I' for Inactive)
REMARK    1  A    between atoms: C_1  and  C_2
REMARK    2  A    between atoms: C_3  and  C_28
REMARK    3  A    between atoms: N_9  and  C_12
REMARK    4  A    between atoms: C_12  and  C_13
REMARK    5  A    between atoms: C_13  and  C_15
REMARK    6  A    between atoms: C_13  and  O_27
REMARK    7  A    between atoms: C_15  and  O_16
REMARK    8  A    between atoms: O_16  and  C_17
REMARK                            x       y       z     vdW  Elec       q    Type
REMARK                         _______ _______ _______ _____ _____    ______ ____
ROOT
ATOM      1  C   UNL     1      -2.867   0.475   6.963  0.00  0.00    +0.052 C 
ATOM      2  C   UNL     1      -1.813   1.004   6.025  0.00  0.00    -0.003 A 
ATOM      3  C   UNL     1      -1.287   0.405   4.929  0.00  0.00    +0.007 A 
ATOM      4  C   UNL     1      -0.268   1.115   4.164  0.00  0.00    +0.080 A 
ATOM      5  C   UNL     1       0.070   2.385   4.658  0.00  0.00    +0.116 A 
ATOM      6  S   UNL     1      -0.963   2.569   6.089  0.00  0.00    -0.073 S 
ATOM      7  N   UNL     1       0.983   3.150   4.065  0.00  0.00    -0.230 NA
ATOM      8  C   UNL     1       1.609   2.742   2.994  0.00  0.00    +0.203 A 
ATOM      9  N   UNL     1       1.342   1.530   2.443  0.00  0.00    -0.296 N 
ATOM     10  C   UNL     1       0.432   0.701   2.986  0.00  0.00    +0.263 A 
ATOM     11  O   UNL     1       0.207  -0.386   2.482  0.00  0.00    -0.267 OA
ENDROOT
BRANCH   3  12
ATOM     12  C   UNL     1      -1.737  -0.945   4.517  0.00  0.00    -0.016 A 
ATOM     13  C   UNL     1      -2.413  -1.119   3.310  0.00  0.00    +0.008 A 
ATOM     14  C   UNL     1      -2.825  -2.380   2.928  0.00  0.00    +0.001 A 
ATOM     15  C   UNL     1      -2.579  -3.468   3.747  0.00  0.00    +0.000 A 
ATOM     16  C   UNL     1      -1.914  -3.300   4.948  0.00  0.00    +0.001 A 
ATOM     17  C   UNL     1      -1.492  -2.046   5.337  0.00  0.00    +0.008 A 
ENDBRANCH   3  12
BRANCH   9  18
ATOM     18  C   UNL     1       2.064   1.114   1.238  0.00  0.00    +0.161 C 
BRANCH  18  19
ATOM     19  C   UNL     1       1.286   1.562  -0.002  0.00  0.00    +0.172 C 
BRANCH  19  20
ATOM     20  O   UNL     1      -0.011   0.963   0.007  0.00  0.00    -0.387 OA
ATOM     21  H   UNL     1      -0.718   1.169  -0.810  0.00  0.00    +0.210 HD
ENDBRANCH  19  20
BRANCH  19  22
ATOM     22  C   UNL     1       2.040   1.127  -1.261  0.00  0.00    +0.262 C 
BRANCH  22  23
ATOM     23  O   UNL     1       1.376   1.645  -2.415  0.00  0.00    -0.489 OA
BRANCH  23  24
ATOM     24  C   UNL     1       1.921   1.349  -3.625  0.00  0.00    +0.121 A 
ATOM     25  C   UNL     1       3.083   0.574  -3.687  0.00  0.00    +0.046 A 
ATOM     26  C   UNL     1       3.648   0.256  -4.882  0.00  0.00    +0.012 A 
ATOM     27  C   UNL     1       3.066   0.721  -6.074  0.00  0.00    -0.018 A 
ATOM     28  C   UNL     1       3.627   0.417  -7.326  0.00  0.00    +0.008 A 
ATOM     29  C   UNL     1       3.037   0.884  -8.460  0.00  0.00    +0.001 A 
ATOM     30  C   UNL     1       1.882   1.661  -8.401  0.00  0.00    +0.001 A 
ATOM     31  C   UNL     1       1.311   1.976  -7.207  0.00  0.00    +0.008 A 
ATOM     32  C   UNL     1       1.891   1.512  -6.014  0.00  0.00    -0.014 A 
ATOM     33  C   UNL     1       1.329   1.817  -4.763  0.00  0.00    +0.054 A 
ENDBRANCH  23  24
ENDBRANCH  22  23
ENDBRANCH  19  22
ENDBRANCH  18  19
ENDBRANCH   9  18
TORSDOF 7
