REMARK  Name = ZINC66699489
REMARK  13 active torsions:
REMARK  status: ('A' for Active; 'I' for Inactive)
REMARK    1  A    between atoms: C_1  and  C_2
REMARK    2  A    between atoms: C_2  and  C_3
REMARK    3  A    between atoms: C_3  and  N_4
REMARK    4  A    between atoms: N_4  and  C_5
REMARK    5  A    between atoms: C_5  and  C_6
REMARK    6  A    between atoms: C_11  and  O_12
REMARK    7  A    between atoms: N_15  and  C_16
REMARK    8  A    between atoms: C_16  and  C_17
REMARK    9  A    between atoms: C_21  and  N_23
REMARK   10  A    between atoms: C_24  and  C_26
REMARK   11  A    between atoms: C_26  and  N_27
REMARK   12  A    between atoms: N_27  and  C_28
REMARK   13  A    between atoms: N_27  and  C_29
REMARK                            x       y       z     vdW  Elec       q    Type
REMARK                         _______ _______ _______ _____ _____    ______ ____
ROOT
ATOM      1  N   UNL     1      -1.416  -1.994   0.005  0.00  0.00    -0.281 N 
ATOM      2  C   UNL     1      -1.425  -2.659  -1.167  0.00  0.00    +0.303 C 
ATOM      3  O   UNL     1      -1.417  -3.875  -1.175  0.00  0.00    -0.253 OA
ATOM      4  N   UNL     1      -1.442  -1.977  -2.329  0.00  0.00    -0.295 N 
ATOM      5  H   UNL     1      -1.449  -1.007  -2.322  0.00  0.00    +0.151 HD
ENDROOT
BRANCH   1   6
ATOM      6  C   UNL     1      -1.426  -0.529   0.016  0.00  0.00    +0.109 C 
BRANCH   6   8
ATOM      7  C   UNL     1       0.003   1.520   0.014  0.00  0.00    +0.005 C 
ATOM      8  C   UNL     1       0.013  -0.009   0.003  0.00  0.00    +0.016 C 
ENDBRANCH   6   8
ENDBRANCH   1   6
BRANCH   1   9
ATOM      9  C   UNL     1      -1.397  -2.736   1.269  0.00  0.00    +0.148 C 
BRANCH   9  10
ATOM     10  C   UNL     1      -2.811  -2.999   1.718  0.00  0.00    +0.011 A 
ATOM     11  C   UNL     1      -3.390  -2.199   2.684  0.00  0.00    +0.009 A 
ATOM     12  C   UNL     1      -4.687  -2.441   3.097  0.00  0.00    +0.001 A 
ATOM     13  C   UNL     1      -5.409  -3.483   2.544  0.00  0.00    +0.004 A 
ATOM     14  C   UNL     1      -4.835  -4.285   1.577  0.00  0.00    +0.046 A 
ATOM     15  C   UNL     1      -3.535  -4.042   1.157  0.00  0.00    +0.122 A 
BRANCH  15  16
ATOM     16  O   UNL     1      -2.970  -4.826   0.202  0.00  0.00    -0.506 OA
ATOM     17  H   UNL     1      -2.505  -5.598   0.552  0.00  0.00    +0.292 HD
ENDBRANCH  15  16
ENDBRANCH   9  10
ENDBRANCH   1   9
BRANCH   4  18
ATOM     18  C   UNL     1      -1.452  -2.701  -3.603  0.00  0.00    +0.141 C 
BRANCH  18  19
ATOM     19  C   UNL     1      -1.471  -1.713  -4.741  0.00  0.00    -0.029 A 
ATOM     20  C   UNL     1      -2.678  -1.264  -5.246  0.00  0.00    +0.005 A 
ATOM     21  C   UNL     1      -2.700  -0.358  -6.290  0.00  0.00    +0.002 A 
ATOM     22  C   UNL     1      -1.516   0.102  -6.832  0.00  0.00    +0.023 A 
ATOM     23  C   UNL     1      -0.303  -0.347  -6.328  0.00  0.00    +0.034 A 
ATOM     24  C   UNL     1      -0.284  -1.253  -5.275  0.00  0.00    +0.028 A 
BRANCH  23  25
ATOM     25  N   UNL     1       0.899   0.117  -6.875  0.00  0.00    -0.287 N 
ATOM     26  C   UNL     1       0.983   0.373  -8.196  0.00  0.00    +0.201 C 
ATOM     27  O   UNL     1      -0.004   0.283  -8.895  0.00  0.00    -0.278 OA
ATOM     28  H   UNL     1       1.671   0.253  -6.304  0.00  0.00    +0.155 HD
BRANCH  26  29
ATOM     29  C   UNL     1       2.303   0.772  -8.803  0.00  0.00    +0.018 C 
BRANCH  29  30
ATOM     30  N   UNL     1       2.131   0.994 -10.245  0.00  0.00    +0.382 N 
ATOM     31  C   UNL     1       3.388   1.498 -10.816  0.00  0.00    -0.096 C 
ATOM     32  C   UNL     1       1.771  -0.273 -10.896  0.00  0.00    -0.096 C 
ATOM     33  H   UNL     1       1.398   1.670 -10.396  0.00  0.00    -0.082 HD
ENDBRANCH  29  30
ENDBRANCH  26  29
ENDBRANCH  23  25
ENDBRANCH  18  19
ENDBRANCH   4  18
TORSDOF 10
