REMARK  Name = ZINC06481317
REMARK  15 active torsions:
REMARK  status: ('A' for Active; 'I' for Inactive)
REMARK    1  A    between atoms: C_1  and  C_2
REMARK    2  A    between atoms: C_2  and  C_3
REMARK    3  A    between atoms: C_3  and  C_4
REMARK    4  A    between atoms: C_4  and  C_5
REMARK    5  A    between atoms: C_5  and  C_7
REMARK    6  A    between atoms: C_5  and  N_14
REMARK    7  A    between atoms: N_9  and  C_10
REMARK    8  A    between atoms: C_10  and  C_11
REMARK    9  A    between atoms: C_10  and  C_12
REMARK   10  A    between atoms: C_10  and  C_13
REMARK   11  A    between atoms: N_14  and  C_15
REMARK   12  A    between atoms: C_25  and  C_27
REMARK   13  A    between atoms: C_27  and  N_28
REMARK   14  A    between atoms: C_30  and  C_33
REMARK   15  A    between atoms: C_36  and  C_38
REMARK                            x       y       z     vdW  Elec       q    Type
REMARK                         _______ _______ _______ _____ _____    ______ ____
ROOT
ATOM      1  N   UNL     1       3.675  -0.583   0.084  0.00  0.00    -0.258 N 
ATOM      2  C   UNL     1       4.833   0.083   0.262  0.00  0.00    +0.244 C 
ATOM      3  O   UNL     1       4.827   1.290   0.376  0.00  0.00    -0.273 OA
ENDROOT
BRANCH   1   4
ATOM      4  C   UNL     1       2.476   0.125  -0.074  0.00  0.00    +0.041 A 
ATOM      5  C   UNL     1       1.517   0.099   0.929  0.00  0.00    +0.027 A 
ATOM      6  C   UNL     1       0.335   0.797   0.774  0.00  0.00    +0.051 A 
ATOM      7  C   UNL     1       0.103   1.525  -0.383  0.00  0.00    +0.162 A 
ATOM      8  C   UNL     1       1.062   1.555  -1.388  0.00  0.00    +0.164 A 
ATOM      9  C   UNL     1       2.248   0.853  -1.232  0.00  0.00    +0.073 A 
ATOM     10  O   UNL     1       0.856   2.271  -2.528  0.00  0.00    -0.485 OA
ATOM     11  C   UNL     1      -0.494   2.656  -2.811  0.00  0.00    +0.270 C 
ATOM     12  C   UNL     1      -1.112   3.222  -1.525  0.00  0.00    +0.270 C 
ATOM     13  O   UNL     1      -1.072   2.200  -0.522  0.00  0.00    -0.485 OA
ENDBRANCH   1   4
BRANCH   1  14
ATOM     14  C   UNL     1       3.669  -2.048   0.056  0.00  0.00    +0.167 C 
BRANCH  14  15
ATOM     15  C   UNL     1       3.087  -2.523  -1.250  0.00  0.00    +0.234 C 
ATOM     16  O   UNL     1       2.394  -1.779  -1.912  0.00  0.00    -0.274 OA
ATOM     17  N   UNL     1       3.336  -3.774  -1.684  0.00  0.00    -0.309 N 
ATOM     18  H   UNL     1       3.890  -4.370  -1.155  0.00  0.00    +0.149 HD
BRANCH  17  19
ATOM     19  C   UNL     1       2.770  -4.236  -2.954  0.00  0.00    +0.026 C 
ATOM     20  C   UNL     1       3.273  -3.344  -4.091  0.00  0.00    +0.031 C 
ATOM     21  C   UNL     1       3.203  -5.681  -3.210  0.00  0.00    +0.031 C 
ATOM     22  C   UNL     1       1.243  -4.165  -2.888  0.00  0.00    +0.031 C 
ENDBRANCH  17  19
ENDBRANCH  14  15
BRANCH  14  23
ATOM     23  C   UNL     1       2.821  -2.577   1.214  0.00  0.00    +0.032 C 
BRANCH  23  24
ATOM     24  C   UNL     1       3.483  -2.204   2.542  0.00  0.00    +0.002 C 
BRANCH  24  26
ATOM     25  C   UNL     1       3.297  -2.361   5.029  0.00  0.00    +0.004 C 
ATOM     26  C   UNL     1       2.635  -2.734   3.701  0.00  0.00    -0.003 C 
ENDBRANCH  24  26
ENDBRANCH  23  24
ENDBRANCH  14  23
ENDBRANCH   1  14
BRANCH   2  27
ATOM     27  C   UNL     1       6.135  -0.673   0.320  0.00  0.00    +0.264 C 
BRANCH  27  28
ATOM     28  N   UNL     1       7.239   0.270   0.519  0.00  0.00    -0.154 N 
ATOM     29  N   UNL     1       7.907   0.844  -0.422  0.00  0.00    -0.127 NA
ATOM     30  C   UNL     1       8.813   1.621   0.142  0.00  0.00    +0.239 A 
ATOM     31  N   UNL     1       8.664   1.481   1.469  0.00  0.00    -0.105 NA
ATOM     32  N   UNL     1       7.696   0.651   1.660  0.00  0.00    -0.045 NA
BRANCH  30  33
ATOM     33  C   UNL     1       9.801   2.474  -0.552  0.00  0.00    +0.175 A 
ATOM     34  C   UNL     1      10.728   3.269   0.046  0.00  0.00    +0.053 A 
ATOM     35  C   UNL     1      11.454   3.894  -0.988  0.00  0.00    +0.045 A 
ATOM     36  C   UNL     1      10.934   3.461  -2.153  0.00  0.00    +0.103 A 
ATOM     37  O   UNL     1       9.936   2.603  -1.885  0.00  0.00    -0.457 OA
ATOM     38  C   UNL     1      11.395   3.872  -3.527  0.00  0.00    +0.086 C 
ENDBRANCH  30  33
ENDBRANCH  27  28
ENDBRANCH   2  27
TORSDOF 10
