REMARK  Name = ZINC00854517
REMARK  10 active torsions:
REMARK  status: ('A' for Active; 'I' for Inactive)
REMARK    1  A    between atoms: C_1  and  C_2
REMARK    2  A    between atoms: C_5  and  N_8
REMARK    3  A    between atoms: N_8  and  C_9
REMARK    4  A    between atoms: N_8  and  S_20
REMARK    5  A    between atoms: C_9  and  C_10
REMARK    6  A    between atoms: N_12  and  C_13
REMARK    7  A    between atoms: C_18  and  C_19
REMARK    8  A    between atoms: S_20  and  C_23
REMARK    9  A    between atoms: C_26  and  S_29
REMARK   10  A    between atoms: S_29  and  C_30
REMARK                            x       y       z     vdW  Elec       q    Type
REMARK                         _______ _______ _______ _____ _____    ______ ____
ROOT
ATOM      1  N   UNL     1       2.307   1.083  -0.209  0.00  0.00    -0.194 N 
ENDROOT
BRANCH   1   6
ATOM      2  C   UNL     1       2.905  -0.911   5.065  0.00  0.00    +0.044 C 
ATOM      3  C   UNL     1       2.746  -0.382   3.664  0.00  0.00    -0.050 A 
ATOM      4  C   UNL     1       1.534   0.147   3.259  0.00  0.00    +0.005 A 
ATOM      5  C   UNL     1       1.385   0.634   1.976  0.00  0.00    +0.025 A 
ATOM      6  C   UNL     1       2.454   0.592   1.090  0.00  0.00    +0.052 A 
ATOM      7  C   UNL     1       3.669   0.055   1.498  0.00  0.00    +0.025 A 
ATOM      8  C   UNL     1       3.812  -0.425   2.784  0.00  0.00    +0.005 A 
ENDBRANCH   1   6
BRANCH   1   9
ATOM      9  S   UNL     1       3.259   0.494  -1.430  0.00  0.00    +0.075 S 
ATOM     10  O   UNL     1       3.741  -0.769  -0.995  0.00  0.00    -0.150 OA
ATOM     11  O   UNL     1       2.521   0.655  -2.634  0.00  0.00    -0.150 OA
BRANCH   9  12
ATOM     12  C   UNL     1       4.661   1.554  -1.554  0.00  0.00    +0.109 A 
ATOM     13  C   UNL     1       4.588   2.710  -2.309  0.00  0.00    +0.030 A 
ATOM     14  C   UNL     1       5.683   3.546  -2.403  0.00  0.00    +0.016 A 
ATOM     15  C   UNL     1       6.864   3.218  -1.748  0.00  0.00    +0.008 A 
ATOM     16  C   UNL     1       6.936   2.052  -0.995  0.00  0.00    +0.016 A 
ATOM     17  C   UNL     1       5.835   1.224  -0.900  0.00  0.00    +0.030 A 
BRANCH  15  18
ATOM     18  S   UNL     1       8.266   4.277  -1.871  0.00  0.00    -0.129 S 
ATOM     19  C   UNL     1       7.699   5.634  -2.933  0.00  0.00    +0.090 C 
ENDBRANCH  15  18
ENDBRANCH   9  12
ENDBRANCH   1   9
BRANCH   1  20
ATOM     20  C   UNL     1       1.310   2.119  -0.492  0.00  0.00    +0.227 C 
BRANCH  20  21
ATOM     21  C   UNL     1      -0.029   1.473  -0.739  0.00  0.00    +0.236 C 
ATOM     22  O   UNL     1      -0.140   0.267  -0.684  0.00  0.00    -0.274 OA
ATOM     23  N   UNL     1      -1.102   2.236  -1.026  0.00  0.00    -0.284 N 
ATOM     24  H   UNL     1      -1.033   3.203  -0.994  0.00  0.00    +0.155 HD
BRANCH  23  25
ATOM     25  C   UNL     1      -2.317   1.633  -1.372  0.00  0.00    +0.036 A 
ATOM     26  C   UNL     1      -2.330   0.354  -1.913  0.00  0.00    +0.023 A 
ATOM     27  C   UNL     1      -3.531  -0.240  -2.248  0.00  0.00    +0.002 A 
ATOM     28  C   UNL     1      -4.719   0.442  -2.055  0.00  0.00    +0.000 A 
ATOM     29  C   UNL     1      -4.709   1.717  -1.522  0.00  0.00    +0.005 A 
ATOM     30  C   UNL     1      -3.511   2.315  -1.180  0.00  0.00    -0.029 A 
ATOM     31  C   UNL     1      -3.501   3.706  -0.600  0.00  0.00    +0.045 C 
ENDBRANCH  23  25
ENDBRANCH  20  21
ENDBRANCH   1  20
TORSDOF 7
