REMARK  Name = ZINC58915319
REMARK  12 active torsions:
REMARK  status: ('A' for Active; 'I' for Inactive)
REMARK    1  A    between atoms: C_1  and  C_2
REMARK    2  A    between atoms: C_4  and  C_36
REMARK    3  A    between atoms: C_6  and  N_8
REMARK    4  A    between atoms: C_9  and  C_35
REMARK    5  A    between atoms: C_11  and  C_14
REMARK    6  A    between atoms: C_12  and  C_13
REMARK    7  A    between atoms: N_15  and  N_16
REMARK    8  A    between atoms: C_17  and  C_19
REMARK    9  A    between atoms: C_19  and  N_20
REMARK   10  A    between atoms: N_20  and  C_21
REMARK   11  A    between atoms: N_20  and  S_31
REMARK   12  A    between atoms: S_31  and  C_34
REMARK                            x       y       z     vdW  Elec       q    Type
REMARK                         _______ _______ _______ _____ _____    ______ ____
ROOT
ATOM      1  N   UNL     1       3.295  -3.465   7.244  0.00  0.00    -0.206 N 
ATOM      2  C   UNL     1       4.527  -2.918   7.256  0.00  0.00    +0.251 C 
ATOM      3  O   UNL     1       4.854  -2.142   6.383  0.00  0.00    -0.272 OA
ATOM      4  H   UNL     1       3.033  -4.086   7.942  0.00  0.00    +0.177 HD
ENDROOT
BRANCH   1   6
ATOM      5  C   UNL     1       1.206  -3.662   6.213  0.00  0.00    +0.140 C 
ATOM      6  N   UNL     1       2.392  -3.136   6.224  0.00  0.00    -0.188 NA
BRANCH   5  10
ATOM      7  N   UNL     1      -0.652  -2.425   3.335  0.00  0.00    -0.317 N 
ATOM      8  C   UNL     1      -1.607  -3.241   3.871  0.00  0.00    +0.022 A 
ATOM      9  C   UNL     1      -1.113  -3.818   4.982  0.00  0.00    +0.032 A 
ATOM     10  C   UNL     1       0.256  -3.317   5.140  0.00  0.00    +0.016 A 
ATOM     11  C   UNL     1       0.477  -2.470   4.092  0.00  0.00    +0.030 A 
ATOM     12  C   UNL     1       1.752  -1.713   3.822  0.00  0.00    +0.064 C 
ATOM     13  C   UNL     1      -2.989  -3.459   3.311  0.00  0.00    +0.064 C 
BRANCH   7  19
ATOM     14  C   UNL     1      -0.912   1.985   1.172  0.00  0.00    +0.044 C 
ATOM     15  C   UNL     1      -0.941   0.480   1.096  0.00  0.00    -0.048 A 
ATOM     16  C   UNL     1      -1.125  -0.146  -0.123  0.00  0.00    +0.006 A 
ATOM     17  C   UNL     1      -1.152  -1.527  -0.198  0.00  0.00    -0.048 A 
ATOM     18  C   UNL     1      -0.996  -2.284   0.947  0.00  0.00    +0.029 A 
ATOM     19  C   UNL     1      -0.811  -1.659   2.172  0.00  0.00    +0.047 A 
ATOM     20  C   UNL     1      -0.778  -0.272   2.243  0.00  0.00    +0.029 A 
ATOM     21  C   UNL     1      -1.353  -2.205  -1.528  0.00  0.00    +0.044 C 
ENDBRANCH   7  19
ENDBRANCH   5  10
ENDBRANCH   1   6
BRANCH   2  22
ATOM     22  C   UNL     1       5.497  -3.272   8.353  0.00  0.00    +0.228 C 
BRANCH  22  23
ATOM     23  N   UNL     1       6.767  -2.578   8.124  0.00  0.00    -0.198 N 
BRANCH  23  24
ATOM     24  C   UNL     1       6.940  -1.273   8.582  0.00  0.00    +0.059 A 
ATOM     25  C   UNL     1       6.524  -0.206   7.816  0.00  0.00    +0.025 A 
ATOM     26  C   UNL     1       6.691   1.101   8.264  0.00  0.00    +0.002 A 
ATOM     27  C   UNL     1       7.270   1.361   9.469  0.00  0.00    +0.008 A 
ATOM     28  C   UNL     1       7.709   0.302  10.281  0.00  0.00    -0.016 A 
ATOM     29  C   UNL     1       7.538  -1.033   9.838  0.00  0.00    +0.005 A 
ATOM     30  C   UNL     1       7.972  -2.091  10.652  0.00  0.00    +0.010 A 
ATOM     31  C   UNL     1       8.545  -1.822  11.858  0.00  0.00    +0.001 A 
ATOM     32  C   UNL     1       8.708  -0.509  12.297  0.00  0.00    +0.001 A 
ATOM     33  C   UNL     1       8.310   0.541  11.529  0.00  0.00    +0.008 A 
ENDBRANCH  23  24
BRANCH  23  34
ATOM     34  S   UNL     1       7.996  -3.343   7.321  0.00  0.00    +0.043 S 
ATOM     35  O   UNL     1       9.186  -2.784   7.860  0.00  0.00    -0.155 OA
ATOM     36  O   UNL     1       7.717  -4.729   7.466  0.00  0.00    -0.155 OA
ATOM     37  C   UNL     1       7.802  -2.845   5.587  0.00  0.00    +0.218 C 
ENDBRANCH  23  34
ENDBRANCH  22  23
ENDBRANCH   2  22
TORSDOF 7
