REMARK  Name = ZINC40740556
REMARK  9 active torsions:
REMARK  status: ('A' for Active; 'I' for Inactive)
REMARK    1  A    between atoms: C_1  and  C_2
REMARK    2  A    between atoms: C_2  and  O_3
REMARK    3  A    between atoms: O_3  and  C_4
REMARK    4  A    between atoms: C_6  and  C_21
REMARK    5  A    between atoms: C_9  and  O_10
REMARK    6  A    between atoms: O_10  and  C_11
REMARK    7  A    between atoms: C_11  and  C_12
REMARK    8  A    between atoms: C_21  and  N_22
REMARK    9  A    between atoms: N_22  and  C_23
REMARK                            x       y       z     vdW  Elec       q    Type
REMARK                         _______ _______ _______ _____ _____    ______ ____
ROOT
ATOM      1  C   UNL     1       0.699  -1.755  -1.327  0.00  0.00    +0.163 A 
ATOM      2  C   UNL     1       0.156  -2.607  -0.379  0.00  0.00    +0.051 A 
ATOM      3  C   UNL     1       0.329  -3.974  -0.498  0.00  0.00    -0.060 A 
ATOM      4  C   UNL     1       1.043  -4.493  -1.562  0.00  0.00    +0.021 A 
ATOM      5  C   UNL     1       1.588  -3.648  -2.512  0.00  0.00    +0.063 A 
ATOM      6  C   UNL     1       1.412  -2.277  -2.401  0.00  0.00    +0.176 A 
ATOM      7 BR   UNL     1       2.565  -4.362  -3.965  0.00  0.00    -0.046 Br
ENDROOT
BRANCH   1   8
ATOM      8  O   UNL     1       0.529  -0.410  -1.211  0.00  0.00    -0.489 OA
BRANCH   8  10
ATOM      9  C   UNL     1      -0.298   1.582  -0.122  0.00  0.00    +0.048 C 
ATOM     10  C   UNL     1      -0.214   0.055  -0.083  0.00  0.00    +0.226 C 
ENDBRANCH   8  10
ENDBRANCH   1   8
BRANCH   6  11
ATOM     11  O   UNL     1       1.942  -1.444  -3.337  0.00  0.00    -0.482 OA
BRANCH  11  12
ATOM     12  C   UNL     1       3.270  -0.970  -3.107  0.00  0.00    +0.269 C 
BRANCH  12  13
ATOM     13  C   UNL     1       3.685  -0.068  -4.240  0.00  0.00    +0.043 A 
ATOM     14  C   UNL     1       4.310  -0.599  -5.355  0.00  0.00    +0.131 A 
ATOM     15  C   UNL     1       4.691   0.232  -6.396  0.00  0.00    +0.039 A 
ATOM     16  C   UNL     1       4.446   1.590  -6.321  0.00  0.00    +0.004 A 
ATOM     17  C   UNL     1       3.822   2.120  -5.208  0.00  0.00    +0.020 A 
ATOM     18  C   UNL     1       3.436   1.291  -4.169  0.00  0.00    +0.050 A 
ATOM     19 CL   UNL     1       2.645   1.957  -2.775  0.00  0.00    -0.083 Cl
ATOM     20  F   UNL     1       4.550  -1.926  -5.428  0.00  0.00    -0.205 F 
ENDBRANCH  12  13
ENDBRANCH  11  12
ENDBRANCH   6  11
BRANCH   3  21
ATOM     21  C   UNL     1      -0.261  -4.899   0.535  0.00  0.00    -0.046 C 
BRANCH  21  22
ATOM     22  N   UNL     1      -1.619  -5.283   0.128  0.00  0.00    +0.384 N 
ATOM     23  H   UNL     1      -2.215  -4.469   0.134  0.00  0.00    -0.085 HD
ATOM     24  H   UNL     1      -1.595  -5.675  -0.801  0.00  0.00    -0.085 HD
BRANCH  22  25
ATOM     25  C   UNL     1      -2.147  -6.282   1.067  0.00  0.00    -0.071 C 
ATOM     26  C   UNL     1      -3.471  -6.842   0.508  0.00  0.00    -0.016 C 
ATOM     27  C   UNL     1      -3.740  -8.172   1.159  0.00  0.00    -0.002 C 
ATOM     28  C   UNL     1      -4.647  -8.049   2.398  0.00  0.00    -0.000 C 
ATOM     29  C   UNL     1      -4.290  -6.839   3.283  0.00  0.00    -0.000 C 
ATOM     30  C   UNL     1      -2.804  -6.661   3.440  0.00  0.00    -0.002 C 
ATOM     31  C   UNL     1      -2.314  -5.661   2.372  0.00  0.00    -0.016 C 
ENDBRANCH  22  25
ENDBRANCH  21  22
ENDBRANCH   3  21
TORSDOF 8
