REMARK  Name = ZINC12899313
REMARK  10 active torsions:
REMARK  status: ('A' for Active; 'I' for Inactive)
REMARK    1  A    between atoms: C_1  and  C_2
REMARK    2  A    between atoms: C_2  and  O_3
REMARK    3  A    between atoms: O_3  and  C_4
REMARK    4  A    between atoms: C_4  and  C_6
REMARK    5  A    between atoms: C_9  and  N_12
REMARK    6  A    between atoms: C_13  and  C_15
REMARK    7  A    between atoms: C_18  and  C_31
REMARK    8  A    between atoms: C_23  and  C_30
REMARK    9  A    between atoms: C_31  and  C_33
REMARK   10  A    between atoms: C_31  and  O_34
REMARK                            x       y       z     vdW  Elec       q    Type
REMARK                         _______ _______ _______ _____ _____    ______ ____
ROOT
ATOM      1  C   UNL     1      -2.971   0.466  -1.247  0.00  0.00    +0.076 C 
ATOM      2  C   UNL     1      -3.962  -0.607  -0.719  0.00  0.00    -0.001 C 
ATOM      3  C   UNL     1      -3.419  -0.862   0.710  0.00  0.00    -0.040 C 
ATOM      4  C   UNL     1      -2.664   1.294   0.011  0.00  0.00    +0.049 C 
ATOM      5  C   UNL     1      -1.230   1.751   0.013  0.00  0.00    -0.027 A 
ATOM      6  C   UNL     1      -0.026   1.083   0.009  0.00  0.00    +0.008 A 
ATOM      7  C   UNL     1       1.160   1.796   0.005  0.00  0.00    -0.050 A 
ATOM      8  C   UNL     1       1.132   3.179   0.010  0.00  0.00    +0.005 A 
ATOM      9  C   UNL     1      -0.072   3.851   0.021  0.00  0.00    +0.024 A 
ATOM     10  C   UNL     1      -1.271   3.142   0.025  0.00  0.00    +0.036 A 
ATOM     11  N   UNL     1      -2.594   3.586   0.037  0.00  0.00    -0.286 N 
ATOM     12  C   UNL     1      -3.473   2.567   0.021  0.00  0.00    +0.211 C 
ATOM     13  O   UNL     1      -4.682   2.654   0.024  0.00  0.00    -0.277 OA
ATOM     14  C   UNL     1       2.479   1.067  -0.006  0.00  0.00    +0.044 C 
ATOM     15  H   UNL     1      -2.851   4.521   0.044  0.00  0.00    +0.155 HD
ATOM     16  N   UNL     1      -2.964   0.462   1.176  0.00  0.00    +0.395 N 
ATOM     17  H   UNL     1      -2.120   0.354   1.750  0.00  0.00    -0.083 HD
ATOM     18  H   UNL     1      -3.704   0.904   1.734  0.00  0.00    -0.083 HD
ENDROOT
BRANCH   1  20
ATOM     19  N   UNL     1      -1.012   0.423  -2.755  0.00  0.00    -0.285 N 
ATOM     20  C   UNL     1      -1.718  -0.180  -1.779  0.00  0.00    +0.220 C 
ATOM     21  O   UNL     1      -1.346  -1.243  -1.330  0.00  0.00    -0.275 OA
ATOM     22  H   UNL     1      -1.264   1.308  -3.061  0.00  0.00    +0.155 HD
BRANCH  19  26
ATOM     23  C   UNL     1       2.259  -1.513  -4.460  0.00  0.00    +0.059 A 
ATOM     24  C   UNL     1       1.143  -2.250  -4.052  0.00  0.00    +0.017 A 
ATOM     25  C   UNL     1       0.064  -1.607  -3.489  0.00  0.00    +0.024 A 
ATOM     26  C   UNL     1       0.083  -0.225  -3.326  0.00  0.00    +0.033 A 
ATOM     27  C   UNL     1       1.190   0.512  -3.736  0.00  0.00    +0.024 A 
ATOM     28  C   UNL     1       2.275  -0.125  -4.294  0.00  0.00    +0.017 A 
BRANCH  23  29
ATOM     29  C   UNL     1       3.417  -2.199  -5.063  0.00  0.00    +0.339 C 
ATOM     30  O   UNL     1       3.401  -3.405  -5.207  0.00  0.00    -0.245 OA
BRANCH  29  31
ATOM     31  O   UNL     1       4.491  -1.487  -5.456  0.00  0.00    -0.461 OA
BRANCH  31  33
ATOM     32  C   UNL     1       6.715  -1.258  -6.423  0.00  0.00    +0.048 C 
ATOM     33  C   UNL     1       5.594  -2.228  -6.042  0.00  0.00    +0.229 C 
ENDBRANCH  31  33
ENDBRANCH  29  31
ENDBRANCH  23  29
ENDBRANCH  19  26
ENDBRANCH   1  20
BRANCH   3  34
ATOM     34  C   UNL     1      -4.531  -1.397   1.614  0.00  0.00    +0.098 C 
ATOM     35  C   UNL     1      -4.007  -1.523   3.046  0.00  0.00    +0.036 C 
BRANCH  34  36
ATOM     36  O   UNL     1      -5.640  -0.496   1.590  0.00  0.00    -0.394 OA
ATOM     37  H   UNL     1      -5.428   0.396   1.896  0.00  0.00    +0.210 HD
ENDBRANCH  34  36
ENDBRANCH   3  34
TORSDOF 7
