REMARK  Name = ZINC20913582
REMARK  11 active torsions:
REMARK  status: ('A' for Active; 'I' for Inactive)
REMARK    1  A    between atoms: C_1  and  C_2
REMARK    2  A    between atoms: C_4  and  C_9
REMARK    3  A    between atoms: C_9  and  C_11
REMARK    4  A    between atoms: C_11  and  S_12
REMARK    5  A    between atoms: S_12  and  C_13
REMARK    6  A    between atoms: N_17  and  N_18
REMARK    7  A    between atoms: N_19  and  N_20
REMARK    8  A    between atoms: C_21  and  C_22
REMARK    9  A    between atoms: C_25  and  C_28
REMARK   10  A    between atoms: C_28  and  O_30
REMARK   11  A    between atoms: O_30  and  C_31
REMARK                            x       y       z     vdW  Elec       q    Type
REMARK                         _______ _______ _______ _____ _____    ______ ____
ROOT
ATOM      1  C   UNL     1      -6.902   9.456   0.087  0.00  0.00    +0.210 A 
ATOM      2  N   UNL     1      -5.593   9.390   0.080  0.00  0.00    -0.119 NA
ATOM      3  N   UNL     1      -5.214   8.162   0.076  0.00  0.00    -0.109 NA
ATOM      4  C   UNL     1      -6.257   7.370   0.071  0.00  0.00    +0.254 A 
ATOM      5  N   UNL     1      -7.371   8.169   0.081  0.00  0.00    -0.211 N 
ATOM      6  N   UNL     1      -6.238   5.983   0.064  0.00  0.00    -0.204 N 
ATOM      7  H   UNL     1      -7.183   5.420   0.065  0.00  0.00    +0.177 HD
ENDROOT
BRANCH   5   8
ATOM      8  N   UNL     1      -8.677   7.766   0.084  0.00  0.00    -0.294 N 
ATOM      9  H   UNL     1      -8.921   6.694   0.078  0.00  0.00    +0.163 HD
ATOM     10  H   UNL     1      -9.483   8.514   0.091  0.00  0.00    +0.163 HD
ENDBRANCH   5   8
BRANCH   6  11
ATOM     11  N   UNL     1      -5.016   5.299   0.054  0.00  0.00    -0.188 NA
ATOM     12  C   UNL     1      -4.998   3.999   0.047  0.00  0.00    +0.138 C 
BRANCH  12  13
ATOM     13  C   UNL     1      -3.714   3.280   0.037  0.00  0.00    -0.005 A 
ATOM     14  C   UNL     1      -3.695   1.881   0.029  0.00  0.00    +0.010 A 
ATOM     15  C   UNL     1      -2.503   1.215   0.021  0.00  0.00    +0.015 A 
ATOM     16  C   UNL     1      -1.301   1.931   0.019  0.00  0.00    +0.059 A 
ATOM     17  C   UNL     1      -1.320   3.329   0.032  0.00  0.00    +0.015 A 
ATOM     18  C   UNL     1      -2.511   3.996   0.036  0.00  0.00    +0.010 A 
BRANCH  16  19
ATOM     19  C   UNL     1      -0.014   1.211   0.009  0.00  0.00    +0.339 C 
ATOM     20  O   UNL     1       0.002  -0.004   0.002  0.00  0.00    -0.245 OA
BRANCH  19  21
ATOM     21  O   UNL     1       1.143   1.901   0.001  0.00  0.00    -0.464 OA
ATOM     22  C   UNL     1       2.372   1.127  -0.015  0.00  0.00    +0.280 C 
ENDBRANCH  19  21
ENDBRANCH  16  19
ENDBRANCH  12  13
ENDBRANCH   6  11
BRANCH   1  23
ATOM     23  S   UNL     1      -7.875  10.925   0.099  0.00  0.00    -0.076 S 
BRANCH  23  24
ATOM     24  C   UNL     1      -6.563  12.171   0.101  0.00  0.00    +0.157 C 
BRANCH  24  25
ATOM     25  C   UNL     1      -7.178  13.547   0.111  0.00  0.00    +0.173 C 
ATOM     26  O   UNL     1      -8.384  13.673   0.116  0.00  0.00    -0.291 OA
BRANCH  25  30
ATOM     27  C   UNL     1      -6.674  18.507   0.138  0.00  0.00    +0.045 C 
ATOM     28  C   UNL     1      -6.066  17.129   0.127  0.00  0.00    -0.036 A 
ATOM     29  C   UNL     1      -6.881  16.017   0.124  0.00  0.00    +0.015 A 
ATOM     30  C   UNL     1      -6.314  14.738   0.115  0.00  0.00    +0.019 A 
ATOM     31  C   UNL     1      -4.923  14.598   0.114  0.00  0.00    +0.012 A 
ATOM     32  C   UNL     1      -4.120  15.718   0.111  0.00  0.00    +0.016 A 
ATOM     33  C   UNL     1      -4.689  16.982   0.121  0.00  0.00    +0.021 A 
ATOM     34 BR   UNL     1      -3.579  18.512   0.125  0.00  0.00    -0.050 Br
ENDBRANCH  25  30
ENDBRANCH  24  25
ENDBRANCH  23  24
ENDBRANCH   1  23
TORSDOF 9
