REMARK  Name = ZINC03633517
REMARK  6 active torsions:
REMARK  status: ('A' for Active; 'I' for Inactive)
REMARK    1  A    between atoms: C_4  and  C_7
REMARK    2  A    between atoms: C_7  and  N_8
REMARK    3  A    between atoms: C_9  and  C_21
REMARK    4  A    between atoms: C_24  and  O_27
REMARK    5  A    between atoms: O_27  and  C_28
REMARK    6  A    between atoms: C_28  and  C_30
REMARK                            x       y       z     vdW  Elec       q    Type
REMARK                         _______ _______ _______ _____ _____    ______ ____
ROOT
ATOM      1  N   UNL     1      -1.151   6.120   0.809  0.00  0.00    -0.148 NA
ATOM      2  C   UNL     1      -0.013   5.628   0.005  0.00  0.00    +0.194 C 
ATOM      3  N   UNL     1       1.229   6.121   0.596  0.00  0.00    -0.322 N 
ATOM      4  C   UNL     1       1.534   5.999   1.948  0.00  0.00    +0.055 A 
ATOM      5  C   UNL     1       2.870   6.064   2.344  0.00  0.00    +0.025 A 
ATOM      6  C   UNL     1       3.204   5.962   3.678  0.00  0.00    +0.002 A 
ATOM      7  C   UNL     1       2.217   5.797   4.634  0.00  0.00    +0.002 A 
ATOM      8  C   UNL     1       0.891   5.726   4.248  0.00  0.00    +0.030 A 
ATOM      9  C   UNL     1       0.554   5.818   2.914  0.00  0.00    +0.126 A 
ATOM     10  S   UNL     1      -1.139   5.686   2.423  0.00  0.00    +0.065 S 
ATOM     11  O   UNL     1      -1.483   4.309   2.484  0.00  0.00    -0.153 OA
ATOM     12  O   UNL     1      -1.855   6.690   3.129  0.00  0.00    -0.153 OA
ATOM     13  H   UNL     1       1.873   6.556   0.015  0.00  0.00    +0.148 HD
ENDROOT
BRANCH   2  14
ATOM     14  C   UNL     1      -0.009   4.122   0.004  0.00  0.00    -0.011 A 
ATOM     15  C   UNL     1       1.186   3.435  -0.100  0.00  0.00    +0.010 A 
ATOM     16  C   UNL     1       1.193   2.053  -0.101  0.00  0.00    +0.047 A 
ATOM     17  C   UNL     1      -0.002   1.355   0.002  0.00  0.00    +0.132 A 
ATOM     18  C   UNL     1      -1.200   2.047   0.100  0.00  0.00    +0.047 A 
ATOM     19  C   UNL     1      -1.201   3.428   0.107  0.00  0.00    +0.010 A 
BRANCH  17  20
ATOM     20  O   UNL     1       0.002  -0.004   0.002  0.00  0.00    -0.422 OA
BRANCH  20  21
ATOM     21  C   UNL     1       0.528  -0.615   1.082  0.00  0.00    +0.344 C 
ATOM     22  O   UNL     1       0.875   0.043   2.042  0.00  0.00    -0.245 OA
BRANCH  21  23
ATOM     23  C   UNL     1       0.683  -2.083   1.097  0.00  0.00    +0.059 A 
ATOM     24  C   UNL     1       0.280  -2.843  -0.003  0.00  0.00    +0.015 A 
ATOM     25  C   UNL     1       0.433  -4.214   0.016  0.00  0.00    +0.001 A 
ATOM     26  C   UNL     1       0.973  -4.838   1.127  0.00  0.00    +0.000 A 
ATOM     27  C   UNL     1       1.369  -4.092   2.223  0.00  0.00    +0.001 A 
ATOM     28  C   UNL     1       1.228  -2.720   2.215  0.00  0.00    +0.015 A 
ENDBRANCH  21  23
ENDBRANCH  20  21
ENDBRANCH  17  20
ENDBRANCH   2  14
BRANCH   1  29
ATOM     29  C   UNL     1      -2.218   6.938   0.228  0.00  0.00    +0.147 C 
BRANCH  29  33
ATOM     30  C   UNL     1      -5.161   4.395  -1.539  0.00  0.00    +0.000 A 
ATOM     31  C   UNL     1      -5.278   4.771  -0.214  0.00  0.00    +0.000 A 
ATOM     32  C   UNL     1      -4.325   5.594   0.358  0.00  0.00    +0.005 A 
ATOM     33  C   UNL     1      -3.256   6.041  -0.396  0.00  0.00    -0.032 A 
ATOM     34  C   UNL     1      -3.142   5.669  -1.722  0.00  0.00    +0.005 A 
ATOM     35  C   UNL     1      -4.092   4.842  -2.292  0.00  0.00    +0.000 A 
ENDBRANCH  29  33
ENDBRANCH   1  29
TORSDOF 6
