REMARK  Name = ZINC18107262
REMARK  10 active torsions:
REMARK  status: ('A' for Active; 'I' for Inactive)
REMARK    1  A    between atoms: C_1  and  C_2
REMARK    2  A    between atoms: C_2  and  N_3
REMARK    3  A    between atoms: N_3  and  C_4
REMARK    4  A    between atoms: N_3  and  C_6
REMARK    5  A    between atoms: C_4  and  C_5
REMARK    6  A    between atoms: C_9  and  C_12
REMARK    7  A    between atoms: C_17  and  C_32
REMARK    8  A    between atoms: C_29  and  C_31
REMARK    9  A    between atoms: C_35  and  O_38
REMARK   10  A    between atoms: O_38  and  C_39
REMARK                            x       y       z     vdW  Elec       q    Type
REMARK                         _______ _______ _______ _____ _____    ______ ____
ROOT
ATOM      1  C   UNL     1      -0.174  -6.020  -1.577  0.00  0.00    +0.032 C 
ATOM      2  C   UNL     1       0.590  -6.497  -2.818  0.00  0.00    +0.088 C 
ATOM      3  C   UNL     1       0.349  -7.967  -2.990  0.00  0.00    +0.163 C 
ATOM      4  C   UNL     1      -0.835  -8.598  -2.539  0.00  0.00    +0.037 C 
ATOM      5  C   UNL     1      -0.867 -10.086  -2.786  0.00  0.00    +0.146 C 
ATOM      6  N   UNL     1      -2.159 -10.704  -2.574  0.00  0.00    -0.258 N 
ATOM      7  C   UNL     1      -2.739 -10.735  -1.305  0.00  0.00    +0.058 A 
ATOM      8  C   UNL     1      -2.958 -11.929  -0.637  0.00  0.00    +0.025 A 
ATOM      9  C   UNL     1      -3.493 -11.905   0.639  0.00  0.00    +0.002 A 
ATOM     10  C   UNL     1      -3.805 -10.702   1.246  0.00  0.00    +0.002 A 
ATOM     11  C   UNL     1      -3.604  -9.508   0.574  0.00  0.00    +0.025 A 
ATOM     12  C   UNL     1      -3.090  -9.532  -0.711  0.00  0.00    +0.053 A 
ATOM     13  N   UNL     1      -2.972  -8.384  -1.485  0.00  0.00    -0.316 N 
ATOM     14  C   UNL     1      -1.802  -7.875  -1.948  0.00  0.00    +0.017 C 
ATOM     15  C   UNL     1      -1.647  -6.374  -1.772  0.00  0.00    +0.059 C 
ATOM     16  C   UNL     1      -2.810 -11.257  -3.616  0.00  0.00    +0.218 C 
ATOM     17  O   UNL     1      -2.313 -11.235  -4.723  0.00  0.00    -0.276 OA
ATOM     18  C   UNL     1      -4.155 -11.903  -3.407  0.00  0.00    +0.110 C 
ATOM     19  O   UNL     1       1.200  -8.641  -3.537  0.00  0.00    -0.292 OA
ATOM     20  H   UNL     1      -3.788  -7.911  -1.711  0.00  0.00    +0.152 HD
ENDROOT
BRANCH   1  24
ATOM     21  C   UNL     1       0.258  -1.792  -1.150  0.00  0.00    +0.013 A 
ATOM     22  C   UNL     1       0.681  -2.635  -0.140  0.00  0.00    +0.022 A 
ATOM     23  C   UNL     1       0.542  -4.004  -0.278  0.00  0.00    +0.006 A 
ATOM     24  C   UNL     1      -0.022  -4.529  -1.426  0.00  0.00    -0.043 A 
ATOM     25  C   UNL     1      -0.446  -3.685  -2.436  0.00  0.00    +0.006 A 
ATOM     26  C   UNL     1      -0.310  -2.317  -2.296  0.00  0.00    +0.022 A 
BRANCH  21  27
ATOM     27  N   UNL     1       0.400  -0.408  -1.011  0.00  0.00    -0.394 NA
ATOM     28  H   UNL     1       0.038   0.051  -1.833  0.00  0.00    +0.126 HD
BRANCH  27  30
ATOM     29  C   UNL     1      -1.844  -0.169  -0.059  0.00  0.00    +0.022 C 
ATOM     30  C   UNL     1      -0.346   0.043   0.171  0.00  0.00    +0.081 C 
ENDBRANCH  27  30
BRANCH  27  31
ATOM     31  C   UNL     1       1.821  -0.075  -0.850  0.00  0.00    +0.081 C 
ATOM     32  C   UNL     1       2.577  -0.430  -2.132  0.00  0.00    +0.022 C 
ENDBRANCH  27  31
ENDBRANCH  21  27
ENDBRANCH   1  24
BRANCH   5  33
ATOM     33  C   UNL     1       0.130 -10.744  -1.868  0.00  0.00    -0.022 A 
ATOM     34  C   UNL     1      -0.041 -10.671  -0.498  0.00  0.00    +0.009 A 
ATOM     35  C   UNL     1       0.872 -11.273   0.346  0.00  0.00    +0.046 A 
ATOM     36  C   UNL     1       1.961 -11.952  -0.182  0.00  0.00    +0.120 A 
ATOM     37  C   UNL     1       2.130 -12.024  -1.557  0.00  0.00    +0.046 A 
ATOM     38  C   UNL     1       1.211 -11.425  -2.397  0.00  0.00    +0.009 A 
BRANCH  36  39
ATOM     39  O   UNL     1       2.861 -12.545   0.646  0.00  0.00    -0.495 OA
ATOM     40  C   UNL     1       3.957 -13.226   0.033  0.00  0.00    +0.277 C 
ENDBRANCH  36  39
ENDBRANCH   5  33
TORSDOF 6
