REMARK  Name = ZINC64026148
REMARK  10 active torsions:
REMARK  status: ('A' for Active; 'I' for Inactive)
REMARK    1  A    between atoms: C_1  and  C_2
REMARK    2  A    between atoms: C_5  and  C_38
REMARK    3  A    between atoms: N_13  and  C_14
REMARK    4  A    between atoms: C_14  and  C_15
REMARK    5  A    between atoms: N_17  and  C_18
REMARK    6  A    between atoms: C_18  and  C_19
REMARK    7  A    between atoms: C_19  and  C_21
REMARK    8  A    between atoms: C_19  and  C_29
REMARK    9  A    between atoms: C_24  and  O_27
REMARK   10  A    between atoms: O_27  and  C_28
REMARK                            x       y       z     vdW  Elec       q    Type
REMARK                         _______ _______ _______ _____ _____    ______ ____
ROOT
ATOM      1  C   UNL     1      -0.227  -2.563   2.055  0.00  0.00    +0.230 C 
ATOM      2  O   UNL     1       0.223  -3.083   1.055  0.00  0.00    -0.274 OA
ATOM      3  N   UNL     1      -0.888  -3.309   2.962  0.00  0.00    -0.313 N 
ATOM      4  H   UNL     1      -1.248  -2.894   3.761  0.00  0.00    +0.149 HD
ENDROOT
BRANCH   1   5
ATOM      5  C   UNL     1      -0.047  -1.084   2.282  0.00  0.00    +0.201 C 
BRANCH   5  16
ATOM      6  C   UNL     1      -0.005   1.545   0.011  0.00  0.00    +0.028 C 
ATOM      7  C   UNL     1      -0.009   0.015  -0.016  0.00  0.00    +0.072 C 
ATOM      8  C   UNL     1       0.728  -0.484  -1.266  0.00  0.00    +0.039 C 
ATOM      9  C   UNL     1       2.141   0.099  -1.272  0.00  0.00    +0.108 C 
ATOM     10  C   UNL     1       2.822  -0.157   0.046  0.00  0.00    -0.014 A 
ATOM     11  C   UNL     1       4.205  -0.107   0.107  0.00  0.00    +0.006 A 
ATOM     12  C   UNL     1       4.859  -0.334   1.302  0.00  0.00    +0.000 A 
ATOM     13  C   UNL     1       4.136  -0.613   2.448  0.00  0.00    +0.002 A 
ATOM     14  C   UNL     1       2.757  -0.666   2.396  0.00  0.00    +0.023 A 
ATOM     15  C   UNL     1       2.097  -0.439   1.194  0.00  0.00    +0.034 A 
ATOM     16  N   UNL     1       0.698  -0.505   1.161  0.00  0.00    -0.318 N 
BRANCH   9  17
ATOM     17  C   UNL     1       2.941  -0.546  -2.374  0.00  0.00    +0.218 C 
ATOM     18  O   UNL     1       2.775  -1.718  -2.638  0.00  0.00    -0.275 OA
ATOM     19  N   UNL     1       3.840   0.180  -3.067  0.00  0.00    -0.329 N 
ATOM     20  H   UNL     1       4.025   1.097  -2.811  0.00  0.00    +0.145 HD
ATOM     21  H   UNL     1       4.303  -0.215  -3.823  0.00  0.00    +0.145 HD
ENDBRANCH   9  17
ENDBRANCH   5  16
ENDBRANCH   1   5
BRANCH   3  22
ATOM     22  C   UNL     1      -1.063  -4.747   2.741  0.00  0.00    +0.116 C 
BRANCH  22  23
ATOM     23  C   UNL     1      -1.842  -5.351   3.911  0.00  0.00    +0.064 C 
BRANCH  23  24
ATOM     24  C   UNL     1      -1.023  -5.238   5.171  0.00  0.00    -0.033 C 
ATOM     25  C   UNL     1      -1.364  -4.588   6.307  0.00  0.00    -0.000 A 
ATOM     26  C   UNL     1      -2.553  -3.819   6.694  0.00  0.00    +0.010 A 
ATOM     27  C   UNL     1      -2.607  -3.272   7.930  0.00  0.00    +0.001 A 
ATOM     28  C   UNL     1      -1.558  -3.420   8.848  0.00  0.00    +0.002 A 
ATOM     29  C   UNL     1      -0.434  -4.111   8.565  0.00  0.00    +0.026 A 
ATOM     30  C   UNL     1      -0.270  -4.729   7.295  0.00  0.00    +0.043 A 
ATOM     31  N   UNL     1       0.709  -5.440   6.789  0.00  0.00    -0.380 N 
ATOM     32  C   UNL     1       0.344  -5.835   5.424  0.00  0.00    +0.145 C 
ATOM     33  H   UNL     1       1.534  -5.669   7.243  0.00  0.00    +0.160 HD
ENDBRANCH  23  24
BRANCH  23  34
ATOM     34  C   UNL     1      -2.129  -6.803   3.627  0.00  0.00    -0.038 A 
ATOM     35  C   UNL     1      -1.084  -7.688   3.433  0.00  0.00    +0.008 A 
ATOM     36  C   UNL     1      -1.344  -9.019   3.172  0.00  0.00    +0.046 A 
ATOM     37  C   UNL     1      -2.655  -9.468   3.105  0.00  0.00    +0.120 A 
ATOM     38  C   UNL     1      -3.701  -8.579   3.300  0.00  0.00    +0.046 A 
ATOM     39  C   UNL     1      -3.436  -7.249   3.566  0.00  0.00    +0.008 A 
BRANCH  37  40
ATOM     40  O   UNL     1      -2.913 -10.777   2.848  0.00  0.00    -0.495 OA
ATOM     41  C   UNL     1      -4.287 -11.169   2.793  0.00  0.00    +0.277 C 
ENDBRANCH  37  40
ENDBRANCH  23  34
ENDBRANCH  22  23
ENDBRANCH   3  22
TORSDOF 8
