REMARK  Name = ZINC08636188
REMARK  9 active torsions:
REMARK  status: ('A' for Active; 'I' for Inactive)
REMARK    1  A    between atoms: C_1  and  N_2
REMARK    2  A    between atoms: C_3  and  C_12
REMARK    3  A    between atoms: C_5  and  C_7
REMARK    4  A    between atoms: C_20  and  C_22
REMARK    5  A    between atoms: C_22  and  N_23
REMARK    6  A    between atoms: N_23  and  C_24
REMARK    7  A    between atoms: C_24  and  N_26
REMARK    8  A    between atoms: N_26  and  C_27
REMARK    9  A    between atoms: C_31  and  C_33
REMARK                            x       y       z     vdW  Elec       q    Type
REMARK                         _______ _______ _______ _____ _____    ______ ____
ROOT
ATOM      1  C   UNL     1      -5.080  -4.346   1.942  0.00  0.00    +0.024 C 
ATOM      2  C   UNL     1      -5.044  -2.818   2.027  0.00  0.00    -0.068 C 
ATOM      3  C   UNL     1      -6.916  -2.633   0.503  0.00  0.00    -0.078 C 
ATOM      4  C   UNL     1      -7.007  -4.156   0.374  0.00  0.00    -0.015 C 
ATOM      5  C   UNL     1      -5.606  -4.753   0.560  0.00  0.00    -0.007 C 
ATOM      6  C   UNL     1      -4.678  -4.165  -0.510  0.00  0.00    -0.010 C 
ATOM      7  C   UNL     1      -4.651  -2.641  -0.357  0.00  0.00    -0.051 C 
ATOM      8  N   UNL     1      -5.521  -2.219   0.762  0.00  0.00    +0.383 N 
ATOM      9  H   UNL     1      -5.486  -1.196   0.844  0.00  0.00    -0.081 HD
ENDROOT
BRANCH   1  12
ATOM     10  C   UNL     1      -3.900  -6.901   0.642  0.00  0.00    +0.172 C 
ATOM     11  N   UNL     1      -3.189  -6.010   1.563  0.00  0.00    -0.271 N 
ATOM     12  C   UNL     1      -3.691  -4.896   2.136  0.00  0.00    +0.041 A 
ATOM     13  C   UNL     1      -2.720  -4.358   2.910  0.00  0.00    +0.048 A 
ATOM     14  C   UNL     1      -1.590  -5.176   2.814  0.00  0.00    +0.066 A 
ATOM     15  N   UNL     1      -1.869  -6.165   2.004  0.00  0.00    -0.176 NA
BRANCH  14  16
ATOM     16  C   UNL     1      -0.276  -4.953   3.517  0.00  0.00    +0.040 C 
ATOM     17  C   UNL     1      -0.517  -4.298   4.893  0.00  0.00    +0.010 C 
ATOM     18  C   UNL     1       0.668  -3.313   5.057  0.00  0.00    +0.001 C 
ATOM     19  C   UNL     1       0.852  -2.758   3.623  0.00  0.00    +0.001 C 
ATOM     20  C   UNL     1       0.595  -3.974   2.710  0.00  0.00    +0.010 C 
ENDBRANCH  14  16
ENDBRANCH   1  12
BRANCH   7  21
ATOM     21  C   UNL     1      -3.220  -2.181  -0.075  0.00  0.00    +0.088 C 
BRANCH  21  22
ATOM     22  N   UNL     1      -3.213  -0.740   0.189  0.00  0.00    -0.328 N 
ATOM     23  H   UNL     1      -4.043  -0.239   0.166  0.00  0.00    +0.148 HD
BRANCH  22  24
ATOM     24  C   UNL     1      -2.053  -0.111   0.465  0.00  0.00    +0.134 C 
ATOM     25  S   UNL     1      -0.588  -0.995   0.506  0.00  0.00    -0.019 S 
BRANCH  24  26
ATOM     26  N   UNL     1      -2.047   1.215   0.707  0.00  0.00    -0.297 N 
ATOM     27  H   UNL     1      -2.884   1.701   0.765  0.00  0.00    +0.154 HD
BRANCH  26  28
ATOM     28  C   UNL     1      -0.833   1.890   0.876  0.00  0.00    +0.034 A 
ATOM     29  C   UNL     1      -0.710   2.864   1.860  0.00  0.00    +0.023 A 
ATOM     30  C   UNL     1       0.488   3.530   2.034  0.00  0.00    +0.003 A 
ATOM     31  C   UNL     1       1.570   3.235   1.230  0.00  0.00    +0.019 A 
ATOM     32  C   UNL     1       1.456   2.262   0.235  0.00  0.00    +0.054 A 
ATOM     33  C   UNL     1       0.246   1.590   0.059  0.00  0.00    +0.042 A 
BRANCH  32  34
ATOM     34  C   UNL     1       2.577   1.953  -0.600  0.00  0.00    +0.099 C 
ATOM     35  N   UNL     1       3.467   1.709  -1.264  0.00  0.00    -0.191 NA
ENDBRANCH  32  34
ENDBRANCH  26  28
ENDBRANCH  24  26
ENDBRANCH  22  24
ENDBRANCH  21  22
ENDBRANCH   7  21
TORSDOF 8
