REMARK  Name = ZINC57436901
REMARK  9 active torsions:
REMARK  status: ('A' for Active; 'I' for Inactive)
REMARK    1  A    between atoms: C_1  and  C_2
REMARK    2  A    between atoms: C_2  and  C_3
REMARK    3  A    between atoms: C_3  and  C_4
REMARK    4  A    between atoms: C_4  and  N_5
REMARK    5  A    between atoms: N_8  and  C_9
REMARK    6  A    between atoms: C_9  and  C_15
REMARK    7  A    between atoms: N_17  and  C_18
REMARK    8  A    between atoms: C_18  and  C_19
REMARK    9  A    between atoms: C_24  and  C_28
REMARK                            x       y       z     vdW  Elec       q    Type
REMARK                         _______ _______ _______ _____ _____    ______ ____
ROOT
ATOM      1  C   UNL     1      -4.530  -5.804  -0.096  0.00  0.00    +0.112 C 
ATOM      2  C   UNL     1      -4.073  -6.619   1.115  0.00  0.00    +0.035 C 
ATOM      3  C   UNL     1      -4.753  -6.082   2.377  0.00  0.00    +0.003 C 
ATOM      4  C   UNL     1      -6.271  -6.199   2.227  0.00  0.00    +0.000 C 
ATOM      5  C   UNL     1      -6.728  -5.384   1.015  0.00  0.00    +0.003 C 
ATOM      6  C   UNL     1      -6.048  -5.920  -0.246  0.00  0.00    +0.035 C 
ENDROOT
BRANCH   1  10
ATOM      7  N   UNL     1      -2.528  -2.739   0.228  0.00  0.00    -0.299 N 
ATOM      8  C   UNL     1      -2.866  -4.041   0.153  0.00  0.00    +0.300 C 
ATOM      9  O   UNL     1      -2.000  -4.894   0.138  0.00  0.00    -0.253 OA
ATOM     10  N   UNL     1      -4.165  -4.398   0.095  0.00  0.00    -0.285 N 
ATOM     11  H   UNL     1      -3.220  -2.058   0.240  0.00  0.00    +0.150 HD
ATOM     12  H   UNL     1      -4.857  -3.724   0.180  0.00  0.00    +0.151 HD
BRANCH   7  13
ATOM     13  C   UNL     1      -1.117  -2.350   0.291  0.00  0.00    +0.106 C 
BRANCH  13  14
ATOM     14  C   UNL     1      -1.010  -0.826   0.369  0.00  0.00    +0.018 C 
BRANCH  14  16
ATOM     15  C   UNL     1       0.570   1.103   0.514  0.00  0.00    +0.004 C 
ATOM     16  C   UNL     1       0.464  -0.421   0.436  0.00  0.00    -0.002 C 
ENDBRANCH  14  16
ENDBRANCH  13  14
ENDBRANCH   7  13
ENDBRANCH   1  10
BRANCH   1  17
ATOM     17  C   UNL     1      -3.860  -6.332  -1.339  0.00  0.00    +0.237 C 
ATOM     18  O   UNL     1      -3.464  -7.478  -1.373  0.00  0.00    -0.273 OA
ATOM     19  N   UNL     1      -3.702  -5.532  -2.411  0.00  0.00    -0.308 N 
ATOM     20  H   UNL     1      -4.083  -4.640  -2.411  0.00  0.00    +0.149 HD
BRANCH  19  21
ATOM     21  C   UNL     1      -2.955  -6.009  -3.578  0.00  0.00    +0.159 C 
BRANCH  21  22
ATOM     22  C   UNL     1      -2.924  -4.931  -4.630  0.00  0.00    +0.051 A 
ATOM     23  C   UNL     1      -3.785  -4.816  -5.665  0.00  0.00    +0.115 A 
ATOM     24  N   UNL     1      -3.413  -3.709  -6.379  0.00  0.00    -0.308 N 
ATOM     25  C   UNL     1      -3.916  -3.124  -7.505  0.00  0.00    +0.093 A 
ATOM     26  C   UNL     1      -3.347  -2.012  -8.014  0.00  0.00    +0.021 A 
ATOM     27  C   UNL     1      -2.225  -1.440  -7.391  0.00  0.00    -0.046 A 
ATOM     28  C   UNL     1      -1.713  -2.014  -6.269  0.00  0.00    +0.048 A 
ATOM     29  C   UNL     1      -2.319  -3.175  -5.749  0.00  0.00    +0.116 A 
ATOM     30  N   UNL     1      -2.046  -3.927  -4.692  0.00  0.00    -0.342 N 
ATOM     31  C   UNL     1      -1.591  -0.199  -7.964  0.00  0.00    +0.044 C 
ATOM     32  H   UNL     1      -1.322  -3.774  -4.065  0.00  0.00    +0.167 HD
ENDBRANCH  21  22
ENDBRANCH  19  21
ENDBRANCH   1  17
TORSDOF 7
