REMARK  Name = ZINC09441132
REMARK  10 active torsions:
REMARK  status: ('A' for Active; 'I' for Inactive)
REMARK    1  A    between atoms: C_1  and  C_2
REMARK    2  A    between atoms: C_3  and  C_20
REMARK    3  A    between atoms: C_4  and  C_10
REMARK    4  A    between atoms: C_15  and  O_16
REMARK    5  A    between atoms: O_16  and  C_17
REMARK    6  A    between atoms: N_22  and  C_23
REMARK    7  A    between atoms: C_25  and  O_31
REMARK    8  A    between atoms: C_28  and  O_29
REMARK    9  A    between atoms: O_29  and  C_30
REMARK   10  A    between atoms: O_31  and  C_32
REMARK                            x       y       z     vdW  Elec       q    Type
REMARK                         _______ _______ _______ _____ _____    ______ ____
ROOT
ATOM      1  C   UNL     1      -3.020   3.673   7.710  0.00  0.00    +0.061 C 
ATOM      2  C   UNL     1      -4.461   3.359   7.401  0.00  0.00    +0.017 C 
ATOM      3  C   UNL     1      -4.768   2.699   6.265  0.00  0.00    +0.056 C 
ATOM      4  C   UNL     1      -6.230   2.410   5.989  0.00  0.00    +0.143 C 
ATOM      5  N   UNL     1      -7.201   2.866   6.998  0.00  0.00    -0.315 N 
ATOM      6  C   UNL     1      -6.740   3.515   8.085  0.00  0.00    +0.135 C 
ATOM      7  S   UNL     1      -7.859   4.057   9.263  0.00  0.00    -0.019 S 
ATOM      8  N   UNL     1      -5.435   3.749   8.275  0.00  0.00    -0.300 N 
ATOM      9  H   UNL     1      -8.151   2.707   6.880  0.00  0.00    +0.149 HD
ATOM     10  H   UNL     1      -5.167   4.221   9.079  0.00  0.00    +0.154 HD
ENDROOT
BRANCH   4  11
ATOM     11  C   UNL     1      -6.389   0.919   5.840  0.00  0.00    +0.019 A 
ATOM     12  C   UNL     1      -6.828   0.160   6.908  0.00  0.00    +0.009 A 
ATOM     13  C   UNL     1      -6.975  -1.208   6.771  0.00  0.00    +0.001 A 
ATOM     14  C   UNL     1      -6.682  -1.820   5.566  0.00  0.00    +0.004 A 
ATOM     15  C   UNL     1      -6.243  -1.066   4.496  0.00  0.00    +0.046 A 
ATOM     16  C   UNL     1      -6.099   0.308   4.629  0.00  0.00    +0.132 A 
BRANCH  16  17
ATOM     17  O   UNL     1      -5.673   1.053   3.575  0.00  0.00    -0.434 OA
BRANCH  17  18
ATOM     18  C   UNL     1      -5.473   0.370   2.337  0.00  0.00    +0.541 C 
ATOM     19  F   UNL     1      -4.497  -0.620   2.502  0.00  0.00    -0.166 F 
ATOM     20  F   UNL     1      -6.673  -0.222   1.931  0.00  0.00    -0.166 F 
ENDBRANCH  17  18
ENDBRANCH  16  17
ENDBRANCH   4  11
BRANCH   3  21
ATOM     21  C   UNL     1      -3.758   2.295   5.357  0.00  0.00    +0.248 C 
ATOM     22  O   UNL     1      -3.534   2.958   4.361  0.00  0.00    -0.270 OA
ATOM     23  N   UNL     1      -3.046   1.176   5.597  0.00  0.00    -0.279 N 
ATOM     24  H   UNL     1      -3.179   0.684   6.422  0.00  0.00    +0.155 HD
BRANCH  23  25
ATOM     25  C   UNL     1      -2.114   0.724   4.654  0.00  0.00    +0.079 A 
ATOM     26  C   UNL     1      -2.186   1.163   3.340  0.00  0.00    +0.072 A 
ATOM     27  C   UNL     1      -1.262   0.714   2.409  0.00  0.00    +0.122 A 
ATOM     28  C   UNL     1      -0.270  -0.178   2.789  0.00  0.00    +0.049 A 
ATOM     29  C   UNL     1      -0.193  -0.612   4.099  0.00  0.00    +0.051 A 
ATOM     30  C   UNL     1      -1.113  -0.167   5.034  0.00  0.00    +0.141 A 
BRANCH  30  31
ATOM     31  O   UNL     1      -1.040  -0.600   6.322  0.00  0.00    -0.493 OA
ATOM     32  C   UNL     1       0.076  -1.424   6.667  0.00  0.00    +0.277 C 
ENDBRANCH  30  31
BRANCH  27  33
ATOM     33  O   UNL     1      -1.332   1.144   1.121  0.00  0.00    -0.495 OA
ATOM     34  C   UNL     1      -0.348   0.641   0.215  0.00  0.00    +0.277 C 
ENDBRANCH  27  33
ENDBRANCH  23  25
ENDBRANCH   3  21
TORSDOF 7
