REMARK  Name = ZINC06449849
REMARK  7 active torsions:
REMARK  status: ('A' for Active; 'I' for Inactive)
REMARK    1  A    between atoms: C_1  and  C_2
REMARK    2  A    between atoms: C_5  and  C_9
REMARK    3  A    between atoms: C_12  and  C_14
REMARK    4  A    between atoms: C_15  and  C_16
REMARK    5  A    between atoms: N_18  and  C_19
REMARK    6  A    between atoms: C_22  and  S_25
REMARK    7  A    between atoms: S_25  and  N_28
REMARK                            x       y       z     vdW  Elec       q    Type
REMARK                         _______ _______ _______ _____ _____    ______ ____
ROOT
ATOM      1  C   UNL     1       0.113  -8.359  -3.839  0.00  0.00    +0.241 C 
ATOM      2  O   UNL     1       0.136  -9.489  -3.384  0.00  0.00    -0.270 OA
ATOM      3  N   UNL     1       0.108  -8.169  -5.173  0.00  0.00    -0.282 N 
ATOM      4  H   UNL     1       0.022  -7.274  -5.536  0.00  0.00    +0.155 HD
ENDROOT
BRANCH   3   5
ATOM      5  C   UNL     1       0.228  -9.264  -6.035  0.00  0.00    +0.034 A 
ATOM      6  C   UNL     1      -0.352 -10.480  -5.700  0.00  0.00    +0.025 A 
ATOM      7  C   UNL     1      -0.232 -11.559  -6.554  0.00  0.00    +0.030 A 
ATOM      8  C   UNL     1       0.465 -11.429  -7.741  0.00  0.00    +0.105 A 
ATOM      9  C   UNL     1       1.044 -10.219  -8.078  0.00  0.00    +0.030 A 
ATOM     10  C   UNL     1       0.923  -9.135  -7.231  0.00  0.00    +0.025 A 
BRANCH   8  11
ATOM     11  S   UNL     1       0.616 -12.808  -8.828  0.00  0.00    +0.056 S 
ATOM     12  O   UNL     1       1.777 -12.581  -9.614  0.00  0.00    -0.153 OA
ATOM     13  O   UNL     1       0.452 -13.973  -8.030  0.00  0.00    -0.153 OA
BRANCH  11  14
ATOM     14  N   UNL     1      -0.675 -12.759  -9.864  0.00  0.00    -0.204 NA
ATOM     15  H   UNL     1      -1.331 -12.049  -9.788  0.00  0.00    +0.144 HD
ATOM     16  H   UNL     1      -0.775 -13.441 -10.547  0.00  0.00    +0.144 HD
ENDBRANCH  11  14
ENDBRANCH   8  11
ENDBRANCH   3   5
BRANCH   1  18
ATOM     17  C   UNL     1       0.095  -7.437  -1.622  0.00  0.00    +0.051 C 
ATOM     18  C   UNL     1       0.090  -7.246  -2.967  0.00  0.00    +0.071 C 
BRANCH  17  22
ATOM     19  C   UNL     1       0.031  -4.250  -0.023  0.00  0.00    +0.136 A 
ATOM     20  C   UNL     1       0.047  -5.053   1.083  0.00  0.00    +0.050 A 
ATOM     21  C   UNL     1       0.074  -6.375   0.631  0.00  0.00    +0.050 A 
ATOM     22  C   UNL     1       0.072  -6.324  -0.750  0.00  0.00    +0.129 A 
ATOM     23  O   UNL     1       0.040  -5.027  -1.121  0.00  0.00    -0.455 OA
BRANCH  19  28
ATOM     24  C   UNL     1      -0.087   1.502   0.009  0.00  0.00    +0.045 C 
ATOM     25  C   UNL     1      -0.056  -0.004   0.001  0.00  0.00    -0.032 A 
ATOM     26  C   UNL     1      -0.048  -0.687  -1.203  0.00  0.00    +0.005 A 
ATOM     27  C   UNL     1      -0.020  -2.066  -1.218  0.00  0.00    +0.012 A 
ATOM     28  C   UNL     1       0.001  -2.774  -0.014  0.00  0.00    +0.019 A 
ATOM     29  C   UNL     1      -0.007  -2.080   1.198  0.00  0.00    +0.031 A 
ATOM     30  C   UNL     1      -0.030  -0.700   1.198  0.00  0.00    +0.045 A 
ATOM     31 CL   UNL     1      -0.033   0.166   2.703  0.00  0.00    -0.083 Cl
ENDBRANCH  19  28
ENDBRANCH  17  22
ENDBRANCH   1  18
TORSDOF 6
