REMARK  Name = ZINC63372888
REMARK  10 active torsions:
REMARK  status: ('A' for Active; 'I' for Inactive)
REMARK    1  A    between atoms: C_1  and  C_2
REMARK    2  A    between atoms: C_2  and  C_3
REMARK    3  A    between atoms: C_2  and  C_4
REMARK    4  A    between atoms: C_4  and  C_5
REMARK    5  A    between atoms: C_5  and  C_7
REMARK    6  A    between atoms: C_5  and  N_19
REMARK    7  A    between atoms: N_9  and  C_10
REMARK    8  A    between atoms: C_10  and  C_11
REMARK    9  A    between atoms: C_11  and  C_12
REMARK   10  A    between atoms: C_22  and  C_38
REMARK                            x       y       z     vdW  Elec       q    Type
REMARK                         _______ _______ _______ _____ _____    ______ ____
ROOT
ATOM      1  N   UNL     1      -0.290   1.103   2.662  0.00  0.00    -0.212 N 
ATOM      2  C   UNL     1      -1.457   1.776   2.585  0.00  0.00    +0.249 C 
ATOM      3  O   UNL     1      -2.549   1.322   2.319  0.00  0.00    -0.273 OA
ATOM      4  C   UNL     1      -1.118   3.216   2.900  0.00  0.00    +0.136 C 
ATOM      5  C   UNL     1      -1.498   4.127   1.734  0.00  0.00    +0.139 C 
ATOM      6  C   UNL     1      -0.205   4.635   1.113  0.00  0.00    -0.034 C 
ATOM      7  C   UNL     1      -0.255   4.301  -0.174  0.00  0.00    -0.001 A 
ATOM      8  C   UNL     1       0.665   4.574  -1.290  0.00  0.00    +0.010 A 
ATOM      9  C   UNL     1       0.306   4.067  -2.499  0.00  0.00    +0.001 A 
ATOM     10  C   UNL     1      -0.861   3.326  -2.707  0.00  0.00    +0.002 A 
ATOM     11  C   UNL     1      -1.766   3.032  -1.740  0.00  0.00    +0.026 A 
ATOM     12  C   UNL     1      -1.500   3.515  -0.425  0.00  0.00    +0.043 A 
ATOM     13  N   UNL     1      -2.205   3.398   0.678  0.00  0.00    -0.375 N 
ATOM     14  C   UNL     1       0.893   5.306   1.900  0.00  0.00    +0.052 C 
ATOM     15  C   UNL     1       1.209   4.393   3.102  0.00  0.00    +0.115 C 
ATOM     16  N   UNL     1       0.356   3.205   3.001  0.00  0.00    -0.269 N 
ATOM     17  C   UNL     1       0.735   1.920   2.941  0.00  0.00    +0.313 C 
ATOM     18  O   UNL     1       1.876   1.541   3.114  0.00  0.00    -0.252 OA
ATOM     19  C   UNL     1      -1.764   3.667   4.211  0.00  0.00    +0.044 C 
ATOM     20  H   UNL     1      -3.040   2.915   0.784  0.00  0.00    +0.160 HD
ENDROOT
BRANCH   1  21
ATOM     21  C   UNL     1      -0.161  -0.344   2.472  0.00  0.00    +0.171 C 
BRANCH  21  22
ATOM     22  C   UNL     1       0.278  -0.983   3.764  0.00  0.00    +0.234 C 
ATOM     23  O   UNL     1       0.465  -0.298   4.747  0.00  0.00    -0.274 OA
ATOM     24  N   UNL     1       0.464  -2.317   3.827  0.00  0.00    -0.313 N 
ATOM     25  H   UNL     1       0.315  -2.865   3.041  0.00  0.00    +0.149 HD
BRANCH  24  26
ATOM     26  C   UNL     1       0.891  -2.938   5.083  0.00  0.00    +0.109 C 
BRANCH  26  27
ATOM     27  C   UNL     1       1.026  -4.449   4.884  0.00  0.00    +0.054 C 
BRANCH  27  28
ATOM     28  C   UNL     1       1.465  -5.089   6.176  0.00  0.00    -0.046 A 
ATOM     29  C   UNL     1       2.812  -5.232   6.453  0.00  0.00    +0.006 A 
ATOM     30  C   UNL     1       3.216  -5.818   7.638  0.00  0.00    +0.038 A 
ATOM     31  C   UNL     1       2.271  -6.261   8.547  0.00  0.00    +0.123 A 
ATOM     32  C   UNL     1       0.922  -6.117   8.269  0.00  0.00    +0.038 A 
ATOM     33  C   UNL     1       0.521  -5.526   7.086  0.00  0.00    +0.006 A 
ATOM     34  F   UNL     1       2.664  -6.835   9.706  0.00  0.00    -0.205 F 
ENDBRANCH  27  28
ENDBRANCH  26  27
ENDBRANCH  24  26
ENDBRANCH  21  22
BRANCH  21  35
ATOM     35  C   UNL     1       0.879  -0.624   1.385  0.00  0.00    +0.035 C 
BRANCH  35  37
ATOM     36  C   UNL     1       1.486  -0.215  -1.004  0.00  0.00    +0.007 C 
ATOM     37  C   UNL     1       0.393  -0.048   0.053  0.00  0.00    -0.015 C 
ATOM     38  C   UNL     1      -0.867  -0.792  -0.394  0.00  0.00    +0.007 C 
ENDBRANCH  35  37
ENDBRANCH  21  35
ENDBRANCH   1  21
TORSDOF 7
