REMARK  Name = ZINC44932939
REMARK  5 active torsions:
REMARK  status: ('A' for Active; 'I' for Inactive)
REMARK    1  A    between atoms: C_1  and  C_2
REMARK    2  A    between atoms: C_2  and  C_4
REMARK    3  A    between atoms: C_2  and  N_9
REMARK    4  A    between atoms: C_10  and  C_12
REMARK    5  A    between atoms: C_12  and  C_18
REMARK                            x       y       z     vdW  Elec       q    Type
REMARK                         _______ _______ _______ _____ _____    ______ ____
ROOT
ATOM      1  N   UNL     1      -1.372  -0.511   0.012  0.00  0.00    -0.304 N 
ATOM      2  C   UNL     1      -2.051  -0.643  -1.145  0.00  0.00    +0.234 C 
ATOM      3  O   UNL     1      -1.524  -0.341  -2.194  0.00  0.00    -0.274 OA
ATOM      4  H   UNL     1      -1.794  -0.752   0.852  0.00  0.00    +0.149 HD
ENDROOT
BRANCH   2   5
ATOM      5  C   UNL     1      -3.465  -1.164  -1.134  0.00  0.00    +0.133 C 
ATOM      6  C   UNL     1      -3.485  -2.571  -0.532  0.00  0.00    +0.031 C 
ATOM      7  C   UNL     1      -4.920  -3.100  -0.521  0.00  0.00    +0.002 C 
ATOM      8  C   UNL     1      -5.456  -3.151  -1.953  0.00  0.00    +0.000 C 
ATOM      9  C   UNL     1      -5.436  -1.745  -2.555  0.00  0.00    +0.002 C 
ATOM     10  C   UNL     1      -4.000  -1.215  -2.566  0.00  0.00    +0.031 C 
BRANCH   5  11
ATOM     11  C   UNL     1      -4.311  -0.272  -0.325  0.00  0.00    +0.079 C 
ATOM     12  N   UNL     1      -4.964   0.417   0.299  0.00  0.00    -0.195 NA
ENDBRANCH   5  11
ENDBRANCH   2   5
BRANCH   1  14
ATOM     13  C   UNL     1      -0.019   1.526   0.010  0.00  0.00    +0.036 C 
ATOM     14  C   UNL     1       0.002  -0.004   0.002  0.00  0.00    +0.142 C 
BRANCH  14  15
ATOM     15  C   UNL     1       0.731  -0.503   1.223  0.00  0.00    +0.196 A 
ATOM     16  N   UNL     1       1.955  -1.010   1.260  0.00  0.00    -0.109 NA
ATOM     17  N   UNL     1       2.212  -1.317   2.486  0.00  0.00    -0.021 NA
ATOM     18  N   UNL     1       1.194  -1.020   3.215  0.00  0.00    -0.021 NA
ATOM     19  N   UNL     1       0.274  -0.515   2.466  0.00  0.00    -0.109 NA
ENDBRANCH  14  15
ENDBRANCH   1  14
TORSDOF 4
