REMARK  Name = ZINC11840228
REMARK  10 active torsions:
REMARK  status: ('A' for Active; 'I' for Inactive)
REMARK    1  A    between atoms: C_1  and  C_2
REMARK    2  A    between atoms: C_10  and  C_13
REMARK    3  A    between atoms: C_18  and  C_19
REMARK    4  A    between atoms: C_18  and  N_61
REMARK    5  A    between atoms: N_21  and  C_22
REMARK    6  A    between atoms: C_22  and  C_24
REMARK    7  A    between atoms: C_22  and  C_25
REMARK    8  A    between atoms: C_26  and  C_32
REMARK    9  A    between atoms: N_28  and  C_31
REMARK   10  A    between atoms: C_29  and  C_30
REMARK                            x       y       z     vdW  Elec       q    Type
REMARK                         _______ _______ _______ _____ _____    ______ ____
ROOT
ATOM      1  C   UNL     1       1.470   4.227   4.815  0.00  0.00    +0.044 C 
ATOM      2  C   UNL     1       1.328   2.936   4.051  0.00  0.00    -0.050 A 
ATOM      3  C   UNL     1       1.439   1.727   4.712  0.00  0.00    +0.007 A 
ATOM      4  C   UNL     1       1.300   0.540   4.019  0.00  0.00    +0.046 A 
ATOM      5  C   UNL     1       1.049   0.567   2.654  0.00  0.00    +0.123 A 
ATOM      6  C   UNL     1       0.959   1.778   1.994  0.00  0.00    -0.022 A 
ATOM      7  C   UNL     1       1.086   2.963   2.688  0.00  0.00    +0.008 A 
ATOM      8  C   UNL     1       0.749   1.793   0.492  0.00  0.00    -0.038 C 
ATOM      9  C   UNL     1      -0.649  -0.169   0.137  0.00  0.00    -0.028 C 
ATOM     10  C   UNL     1      -0.438  -0.840   1.477  0.00  0.00    +0.188 C 
ATOM     11  O   UNL     1       0.887  -0.596   1.964  0.00  0.00    -0.486 OA
ATOM     12  N   UNL     1      -0.625   1.306   0.221  0.00  0.00    +0.391 N 
ATOM     13  H   UNL     1      -1.237   1.603   0.990  0.00  0.00    -0.080 HD
ENDROOT
BRANCH  10  14
ATOM     14  C   UNL     1      -0.644  -2.325   1.326  0.00  0.00    -0.002 A 
ATOM     15  C   UNL     1      -1.871  -2.896   1.610  0.00  0.00    +0.015 A 
ATOM     16  C   UNL     1      -2.024  -4.234   1.459  0.00  0.00    +0.045 A 
ATOM     17  S   UNL     1      -0.400  -4.732   0.912  0.00  0.00    -0.105 S 
ATOM     18  C   UNL     1       0.372  -3.123   0.915  0.00  0.00    +0.052 A 
ENDBRANCH  10  14
BRANCH  12  19
ATOM     19  C   UNL     1      -1.124   1.887  -1.036  0.00  0.00    +0.019 C 
BRANCH  19  20
ATOM     20  C   UNL     1      -1.285   3.373  -0.846  0.00  0.00    +0.197 C 
ATOM     21  O   UNL     1      -0.989   3.884   0.214  0.00  0.00    -0.278 OA
ATOM     22  N   UNL     1      -1.757   4.134  -1.852  0.00  0.00    -0.310 N 
ATOM     23  H   UNL     1      -1.994   3.726  -2.700  0.00  0.00    +0.149 HD
BRANCH  22  24
ATOM     24  C   UNL     1      -1.913   5.579  -1.667  0.00  0.00    +0.104 C 
ATOM     25  C   UNL     1      -3.160   5.854  -0.824  0.00  0.00    +0.033 C 
BRANCH  24  26
ATOM     26  C   UNL     1      -2.060   6.245  -3.011  0.00  0.00    +0.016 A 
ATOM     27  C   UNL     1      -2.920   5.845  -4.039  0.00  0.00    +0.065 A 
ATOM     28  N   UNL     1      -2.765   6.666  -5.045  0.00  0.00    -0.176 NA
ATOM     29  N   UNL     1      -1.799   7.616  -4.689  0.00  0.00    -0.271 N 
ATOM     30  C   UNL     1      -1.386   7.340  -3.435  0.00  0.00    +0.041 A 
ATOM     31  C   UNL     1      -0.357   8.109  -2.648  0.00  0.00    +0.065 C 
ATOM     32  C   UNL     1      -1.326   8.720  -5.529  0.00  0.00    +0.172 C 
ATOM     33  C   UNL     1      -3.863   4.670  -3.994  0.00  0.00    +0.068 C 
ENDBRANCH  24  26
ENDBRANCH  22  24
ENDBRANCH  19  20
ENDBRANCH  12  19
TORSDOF 5
