REMARK  Name = ZINC03621852
REMARK  15 active torsions:
REMARK  status: ('A' for Active; 'I' for Inactive)
REMARK    1  A    between atoms: C_1  and  C_2
REMARK    2  A    between atoms: C_2  and  C_3
REMARK    3  A    between atoms: C_2  and  C_4
REMARK    4  A    between atoms: C_7  and  N_10
REMARK    5  A    between atoms: C_11  and  C_13
REMARK    6  A    between atoms: C_17  and  O_39
REMARK    7  A    between atoms: C_18  and  O_37
REMARK    8  A    between atoms: N_23  and  C_36
REMARK    9  A    between atoms: C_24  and  C_26
REMARK   10  A    between atoms: C_29  and  O_34
REMARK   11  A    between atoms: C_30  and  O_32
REMARK   12  A    between atoms: O_32  and  C_33
REMARK   13  A    between atoms: O_34  and  C_35
REMARK   14  A    between atoms: O_37  and  C_38
REMARK   15  A    between atoms: O_39  and  C_40
REMARK                            x       y       z     vdW  Elec       q    Type
REMARK                         _______ _______ _______ _____ _____    ______ ____
ROOT
ATOM      1  C   UNL     1      -1.826  -0.842   1.440  0.00  0.00    +0.131 C 
ATOM      2  C   UNL     1      -2.287   0.521   1.884  0.00  0.00    -0.018 A 
ATOM      3  C   UNL     1      -2.164   0.908   3.200  0.00  0.00    +0.054 A 
ATOM      4  C   UNL     1      -2.606   2.162   3.599  0.00  0.00    +0.162 A 
ATOM      5  C   UNL     1      -3.177   3.034   2.673  0.00  0.00    +0.162 A 
ATOM      6  C   UNL     1      -3.298   2.654   1.349  0.00  0.00    +0.062 A 
ATOM      7  C   UNL     1      -2.846   1.396   0.949  0.00  0.00    +0.045 A 
ATOM      8  C   UNL     1      -2.929   0.977  -0.464  0.00  0.00    +0.247 C 
ATOM      9  O   UNL     1      -3.609   1.606  -1.252  0.00  0.00    -0.270 OA
ATOM     10  N   UNL     1      -2.245  -0.107  -0.872  0.00  0.00    -0.292 N 
ATOM     11  C   UNL     1      -1.292  -0.775   0.011  0.00  0.00    +0.122 C 
ATOM     12  C   UNL     1      -2.460  -0.626  -2.225  0.00  0.00    +0.133 C 
ENDROOT
BRANCH  11  13
ATOM     13  C   UNL     1       0.008  -0.013   0.004  0.00  0.00    -0.022 A 
ATOM     14  C   UNL     1      -0.003   1.370   0.017  0.00  0.00    +0.009 A 
ATOM     15  C   UNL     1       1.187   2.074   0.010  0.00  0.00    +0.050 A 
ATOM     16  C   UNL     1       2.394   1.394  -0.010  0.00  0.00    +0.162 A 
ATOM     17  C   UNL     1       2.405   0.002  -0.023  0.00  0.00    +0.162 A 
ATOM     18  C   UNL     1       1.209  -0.697  -0.016  0.00  0.00    +0.055 A 
BRANCH  17  19
ATOM     19  O   UNL     1       3.587  -0.670  -0.043  0.00  0.00    -0.491 OA
ATOM     20  C   UNL     1       3.522  -2.097  -0.056  0.00  0.00    +0.277 C 
ENDBRANCH  17  19
BRANCH  16  21
ATOM     21  O   UNL     1       3.565   2.085  -0.016  0.00  0.00    -0.491 OA
ATOM     22  C   UNL     1       3.477   3.511  -0.002  0.00  0.00    +0.277 C 
ENDBRANCH  16  21
ENDBRANCH  11  13
BRANCH   1  24
ATOM     23  N   UNL     1      -3.620  -2.026   2.663  0.00  0.00    -0.285 N 
ATOM     24  C   UNL     1      -2.984  -1.804   1.496  0.00  0.00    +0.227 C 
ATOM     25  O   UNL     1      -3.345  -2.378   0.490  0.00  0.00    -0.275 OA
ATOM     26  H   UNL     1      -3.246  -1.565   3.589  0.00  0.00    +0.155 HD
BRANCH  23  30
ATOM     27  C   UNL     1      -6.999  -4.461   2.765  0.00  0.00    -0.045 A 
ATOM     28  C   UNL     1      -5.966  -4.751   1.893  0.00  0.00    +0.006 A 
ATOM     29  C   UNL     1      -4.844  -3.946   1.857  0.00  0.00    +0.023 A 
ATOM     30  C   UNL     1      -4.755  -2.844   2.697  0.00  0.00    +0.033 A 
ATOM     31  C   UNL     1      -5.792  -2.558   3.575  0.00  0.00    +0.023 A 
ATOM     32  C   UNL     1      -6.913  -3.364   3.603  0.00  0.00    +0.006 A 
BRANCH  27  34
ATOM     33  C   UNL     1      -8.382  -5.933   4.204  0.00  0.00    +0.012 C 
ATOM     34  C   UNL     1      -8.221  -5.342   2.803  0.00  0.00    +0.013 C 
ATOM     35  C   UNL     1      -9.459  -4.512   2.455  0.00  0.00    +0.012 C 
ENDBRANCH  27  34
ENDBRANCH  23  30
ENDBRANCH   1  24
BRANCH   5  36
ATOM     36  O   UNL     1      -3.615   4.258   3.071  0.00  0.00    -0.491 OA
ATOM     37  C   UNL     1      -4.190   5.099   2.069  0.00  0.00    +0.277 C 
ENDBRANCH   5  36
BRANCH   4  38
ATOM     38  O   UNL     1      -2.482   2.541   4.897  0.00  0.00    -0.491 OA
ATOM     39  C   UNL     1      -1.888   1.601   5.794  0.00  0.00    +0.277 C 
ENDBRANCH   4  38
TORSDOF 8
