REMARK  Name = ZINC14094992
REMARK  9 active torsions:
REMARK  status: ('A' for Active; 'I' for Inactive)
REMARK    1  A    between atoms: C_1  and  C_2
REMARK    2  A    between atoms: C_2  and  N_3
REMARK    3  A    between atoms: C_5  and  C_14
REMARK    4  A    between atoms: C_14  and  N_62
REMARK    5  A    between atoms: C_15  and  N_62
REMARK    6  A    between atoms: C_16  and  C_17
REMARK    7  A    between atoms: C_16  and  N_62
REMARK    8  A    between atoms: N_19  and  C_20
REMARK    9  A    between atoms: C_25  and  N_26
REMARK                            x       y       z     vdW  Elec       q    Type
REMARK                         _______ _______ _______ _____ _____    ______ ____
ROOT
ATOM      1  C   UNL     1       4.349   0.743   3.818  0.00  0.00    +0.019 C 
ENDROOT
BRANCH   1   2
ATOM      2  C   UNL     1       3.648   2.054   3.575  0.00  0.00    +0.201 C 
ATOM      3  O   UNL     1       3.697   2.932   4.410  0.00  0.00    -0.278 OA
ATOM      4  N   UNL     1       2.967   2.252   2.429  0.00  0.00    -0.286 N 
ATOM      5  H   UNL     1       2.869   1.527   1.791  0.00  0.00    +0.155 HD
BRANCH   4   6
ATOM      6  C   UNL     1       2.401   3.505   2.157  0.00  0.00    +0.055 A 
ATOM      7  C   UNL     1       2.046   4.348   3.200  0.00  0.00    +0.025 A 
ATOM      8  C   UNL     1       1.482   5.581   2.930  0.00  0.00    +0.002 A 
ATOM      9  C   UNL     1       1.276   5.981   1.622  0.00  0.00    +0.002 A 
ATOM     10  C   UNL     1       1.632   5.149   0.577  0.00  0.00    +0.025 A 
ATOM     11  C   UNL     1       2.198   3.910   0.838  0.00  0.00    +0.051 A 
BRANCH  11  12
ATOM     12  N   UNL     1       2.558   3.067  -0.218  0.00  0.00    -0.328 N 
ATOM     13  C   UNL     1       4.020   2.845  -0.244  0.00  0.00    +0.105 C 
ATOM     14  C   UNL     1       4.431   2.718  -1.723  0.00  0.00    +0.020 C 
ATOM     15  C   UNL     1       3.123   2.912  -2.524  0.00  0.00    +0.020 C 
ATOM     16  C   UNL     1       2.217   3.679  -1.528  0.00  0.00    +0.105 C 
ENDBRANCH  11  12
ENDBRANCH   4   6
ENDBRANCH   1   2
BRANCH   1  18
ATOM     17  C   UNL     1       4.028   0.854   6.215  0.00  0.00    -0.095 C 
ATOM     18  N   UNL     1       5.029   0.801   5.129  0.00  0.00    +0.386 N 
ATOM     19  H   UNL     1       5.608   1.648   5.167  0.00  0.00    -0.081 HD
BRANCH  18  20
ATOM     20  C   UNL     1       5.898  -0.382   5.300  0.00  0.00    -0.032 C 
BRANCH  20  23
ATOM     21  N   UNL     1       9.233  -1.233   3.714  0.00  0.00    -0.324 N 
ATOM     22  C   UNL     1       8.052  -1.432   4.562  0.00  0.00    +0.147 C 
ATOM     23  C   UNL     1       7.174  -0.175   4.482  0.00  0.00    +0.174 C 
ATOM     24  O   UNL     1       7.923   0.919   5.021  0.00  0.00    -0.487 OA
ATOM     25  C   UNL     1       9.218   1.032   4.614  0.00  0.00    +0.142 A 
ATOM     26  C   UNL     1       9.871  -0.016   3.977  0.00  0.00    +0.072 A 
ATOM     27  C   UNL     1      11.196   0.139   3.584  0.00  0.00    +0.027 A 
ATOM     28  C   UNL     1      11.858   1.327   3.823  0.00  0.00    +0.002 A 
ATOM     29  C   UNL     1      11.206   2.369   4.455  0.00  0.00    +0.004 A 
ATOM     30  C   UNL     1       9.889   2.224   4.849  0.00  0.00    +0.047 A 
BRANCH  21  32
ATOM     31  C   UNL     1       9.606  -3.577   3.112  0.00  0.00    +0.024 C 
ATOM     32  C   UNL     1      10.169  -2.357   3.844  0.00  0.00    +0.102 C 
ENDBRANCH  21  32
ENDBRANCH  20  23
ENDBRANCH  18  20
ENDBRANCH   1  18
TORSDOF 7
