REMARK  Name = ZINC19927335
REMARK  5 active torsions:
REMARK  status: ('A' for Active; 'I' for Inactive)
REMARK    1  A    between atoms: C_1  and  C_2
REMARK    2  A    between atoms: C_2  and  C_14
REMARK    3  A    between atoms: N_3  and  N_4
REMARK    4  A    between atoms: C_5  and  C_7
REMARK    5  A    between atoms: C_17  and  N_20
REMARK                            x       y       z     vdW  Elec       q    Type
REMARK                         _______ _______ _______ _____ _____    ______ ____
ROOT
ATOM      1  C   UNL     1      -6.028   3.102   0.047  0.00  0.00    +0.068 C 
ATOM      2  C   UNL     1      -6.013   1.595   0.039  0.00  0.00    +0.063 C 
ATOM      3  N   UNL     1      -4.883   0.957   0.030  0.00  0.00    -0.184 NA
ENDROOT
BRANCH   2   4
ATOM      4  C   UNL     1      -7.283   0.846   0.041  0.00  0.00    -0.002 A 
ATOM      5  C   UNL     1      -8.501   1.530   0.056  0.00  0.00    +0.012 A 
ATOM      6  C   UNL     1      -9.685   0.826   0.052  0.00  0.00    +0.028 A 
ATOM      7  C   UNL     1      -9.669  -0.564   0.044  0.00  0.00    +0.069 A 
ATOM      8  C   UNL     1      -8.460  -1.249   0.035  0.00  0.00    +0.028 A 
ATOM      9  C   UNL     1      -7.271  -0.552   0.033  0.00  0.00    +0.012 A 
BRANCH   7  10
ATOM     10  N   UNL     1     -10.876  -1.276   0.046  0.00  0.00    -0.200 N 
ATOM     11  C   UNL     1     -12.128  -0.769   0.054  0.00  0.00    +0.250 A 
ATOM     12  N   UNL     1     -12.956  -1.781   0.052  0.00  0.00    -0.116 NA
ATOM     13  N   UNL     1     -12.313  -2.893   0.043  0.00  0.00    -0.023 NA
ATOM     14  N   UNL     1     -11.043  -2.672   0.032  0.00  0.00    -0.039 NA
ENDBRANCH   7  10
ENDBRANCH   2   4
BRANCH   3  15
ATOM     15  N   UNL     1      -3.677   1.670   0.029  0.00  0.00    -0.203 N 
ATOM     16  C   UNL     1      -2.503   1.007   0.019  0.00  0.00    +0.263 C 
ATOM     17  O   UNL     1      -2.491  -0.208   0.013  0.00  0.00    -0.268 OA
ATOM     18  H   UNL     1      -3.687   2.769   0.035  0.00  0.00    +0.178 HD
BRANCH  16  19
ATOM     19  C   UNL     1      -1.230   1.759   0.017  0.00  0.00    +0.039 A 
ATOM     20  C   UNL     1      -0.013   1.076   0.008  0.00  0.00    +0.013 A 
ATOM     21  C   UNL     1       1.172   1.783   0.000  0.00  0.00    +0.002 A 
ATOM     22  C   UNL     1       1.155   3.167   0.008  0.00  0.00    +0.014 A 
ATOM     23  C   UNL     1      -0.048   3.850   0.023  0.00  0.00    +0.014 A 
ATOM     24  C   UNL     1      -1.240   3.155   0.031  0.00  0.00    +0.027 A 
ATOM     25  I   UNL     1      -0.060   5.945   0.034  0.00  0.00    -0.044 I 
ENDBRANCH  16  19
ENDBRANCH   3  15
TORSDOF 4
