REMARK  Name = ZINC31054860
REMARK  5 active torsions:
REMARK  status: ('A' for Active; 'I' for Inactive)
REMARK    1  A    between atoms: C_5  and  N_7
REMARK    2  A    between atoms: C_13  and  C_15
REMARK    3  A    between atoms: N_20  and  C_22
REMARK    4  A    between atoms: C_22  and  C_23
REMARK    5  A    between atoms: C_25  and  C_28
REMARK                            x       y       z     vdW  Elec       q    Type
REMARK                         _______ _______ _______ _____ _____    ______ ____
ROOT
ATOM      1  C   UNL     1       4.847  -2.964  -1.445  0.00  0.00    +0.059 C 
ATOM      2  C   UNL     1       3.519  -2.932  -2.206  0.00  0.00    +0.009 C 
ATOM      3  C   UNL     1       3.676  -3.696  -3.524  0.00  0.00    -0.018 C 
ATOM      4  C   UNL     1       4.123  -5.129  -3.228  0.00  0.00    -0.078 C 
ATOM      5  N   UNL     1       5.398  -5.105  -2.501  0.00  0.00    +0.386 N 
ATOM      6  C   UNL     1       5.261  -4.419  -1.210  0.00  0.00    -0.065 C 
ATOM      7  H   UNL     1       6.119  -4.537  -3.107  0.00  0.00    -0.081 HD
ENDROOT
BRANCH   1  14
ATOM      8  N   UNL     1       5.900   1.597   0.319  0.00  0.00    -0.325 N 
ATOM      9  C   UNL     1       5.693   0.730   1.486  0.00  0.00    +0.124 C 
ATOM     10  C   UNL     1       4.518  -0.215   1.214  0.00  0.00    +0.126 C 
ATOM     11  N   UNL     1       4.772  -0.923  -0.050  0.00  0.00    -0.298 N 
ATOM     12  C   UNL     1       5.122  -0.127  -1.236  0.00  0.00    +0.126 C 
ATOM     13  C   UNL     1       6.273   0.815  -0.867  0.00  0.00    +0.124 C 
ATOM     14  C   UNL     1       4.685  -2.267  -0.120  0.00  0.00    +0.217 C 
ATOM     15  O   UNL     1       4.476  -2.914   0.885  0.00  0.00    -0.275 OA
BRANCH   8  20
ATOM     16  C   UNL     1       9.110   3.198   1.127  0.00  0.00    +0.002 A 
ATOM     17  C   UNL     1       8.746   4.532   1.125  0.00  0.00    +0.003 A 
ATOM     18  C   UNL     1       7.438   4.896   0.862  0.00  0.00    +0.040 A 
ATOM     19  C   UNL     1       6.490   3.925   0.594  0.00  0.00    +0.144 A 
ATOM     20  C   UNL     1       6.855   2.583   0.590  0.00  0.00    +0.065 A 
ATOM     21  C   UNL     1       8.170   2.223   0.855  0.00  0.00    +0.026 A 
ATOM     22  F   UNL     1       5.212   4.279   0.337  0.00  0.00    -0.204 F 
ENDBRANCH   8  20
ENDBRANCH   1  14
BRANCH   5  23
ATOM     23  C   UNL     1       5.928  -6.464  -2.321  0.00  0.00    +0.022 C 
BRANCH  23  24
ATOM     24  C   UNL     1       6.286  -7.045  -3.664  0.00  0.00    +0.211 A 
ATOM     25  N   UNL     1       7.443  -6.949  -4.270  0.00  0.00    -0.193 NA
ATOM     26  C   UNL     1       7.300  -7.620  -5.435  0.00  0.00    +0.203 A 
ATOM     27  N   UNL     1       6.074  -8.072  -5.472  0.00  0.00    -0.056 NA
ATOM     28  O   UNL     1       5.480  -7.750  -4.465  0.00  0.00    -0.340 OA
BRANCH  26  29
ATOM     29  C   UNL     1       8.339  -7.805  -6.479  0.00  0.00    +0.041 A 
ATOM     30  C   UNL     1       9.609  -7.259  -6.305  0.00  0.00    +0.014 A 
ATOM     31  C   UNL     1      10.573  -7.438  -7.275  0.00  0.00    +0.021 A 
ATOM     32  C   UNL     1      10.278  -8.149  -8.427  0.00  0.00    +0.042 A 
ATOM     33  C   UNL     1       9.016  -8.688  -8.607  0.00  0.00    +0.040 A 
ATOM     34  C   UNL     1       8.045  -8.520  -7.639  0.00  0.00    +0.053 A 
ATOM     35 CL   UNL     1       6.463  -9.196  -7.867  0.00  0.00    -0.083 Cl
ATOM     36 CL   UNL     1      11.494  -8.365  -9.646  0.00  0.00    -0.083 Cl
ENDBRANCH  26  29
ENDBRANCH  23  24
ENDBRANCH   5  23
TORSDOF 5
