REMARK  Name = ZINC03114038
REMARK  4 active torsions:
REMARK  status: ('A' for Active; 'I' for Inactive)
REMARK    1  A    between atoms: C_9  and  O_30
REMARK    2  A    between atoms: C_10  and  C_11
REMARK    3  A    between atoms: N_12  and  C_13
REMARK    4  A    between atoms: C_20  and  C_22
REMARK                            x       y       z     vdW  Elec       q    Type
REMARK                         _______ _______ _______ _____ _____    ______ ____
ROOT
ATOM      1  C   UNL     1       3.703  -0.602  -0.034  0.00  0.00    +0.066 A 
ATOM      2  C   UNL     1       4.719  -0.184  -0.904  0.00  0.00    +0.031 A 
ATOM      3  C   UNL     1       5.931  -0.835  -0.921  0.00  0.00    +0.050 A 
ATOM      4  C   UNL     1       6.151  -1.919  -0.082  0.00  0.00    +0.156 A 
ATOM      5  C   UNL     1       5.138  -2.351   0.791  0.00  0.00    +0.112 A 
ATOM      6  C   UNL     1       3.912  -1.687   0.812  0.00  0.00    +0.059 A 
ATOM      7  N   UNL     1       5.639  -3.414   1.473  0.00  0.00    -0.209 NA
ATOM      8  C   UNL     1       6.863  -3.636   1.067  0.00  0.00    +0.230 A 
ATOM      9  O   UNL     1       7.205  -2.742   0.120  0.00  0.00    -0.435 OA
ENDROOT
BRANCH   8  10
ATOM     10  C   UNL     1       7.742  -4.710   1.575  0.00  0.00    +0.057 A 
ATOM     11  C   UNL     1       9.034  -4.856   1.069  0.00  0.00    +0.034 A 
ATOM     12  C   UNL     1       9.850  -5.861   1.547  0.00  0.00    +0.042 A 
ATOM     13  C   UNL     1       9.389  -6.725   2.527  0.00  0.00    +0.021 A 
ATOM     14  C   UNL     1       8.109  -6.585   3.033  0.00  0.00    +0.022 A 
ATOM     15  C   UNL     1       7.284  -5.580   2.567  0.00  0.00    +0.053 A 
ATOM     16 CL   UNL     1       5.681  -5.403   3.208  0.00  0.00    -0.083 Cl
ATOM     17 CL   UNL     1      11.458  -6.045   0.919  0.00  0.00    -0.084 Cl
ENDBRANCH   8  10
BRANCH   1  19
ATOM     18  C   UNL     1       2.472   1.361  -0.013  0.00  0.00    +0.123 C 
ATOM     19  N   UNL     1       2.503   0.055  -0.020  0.00  0.00    -0.255 NA
BRANCH  18  29
ATOM     20  C   UNL     1       0.967   6.290   0.024  0.00  0.00    +0.001 A 
ATOM     21  C   UNL     1       2.208   5.659   0.009  0.00  0.00    +0.001 A 
ATOM     22  C   UNL     1       2.300   4.298   0.002  0.00  0.00    +0.009 A 
ATOM     23  C   UNL     1       1.134   3.525   0.010  0.00  0.00    -0.006 A 
ATOM     24  C   UNL     1      -0.130   4.165   0.025  0.00  0.00    -0.017 A 
ATOM     25  C   UNL     1      -0.187   5.568   0.032  0.00  0.00    +0.008 A 
ATOM     26  C   UNL     1      -1.301   3.386   0.031  0.00  0.00    +0.012 A 
ATOM     27  C   UNL     1      -1.235   2.029   0.019  0.00  0.00    +0.046 A 
ATOM     28  C   UNL     1      -0.016   1.352   0.009  0.00  0.00    +0.126 A 
ATOM     29  C   UNL     1       1.187   2.063   0.002  0.00  0.00    +0.042 A 
BRANCH  28  30
ATOM     30  O   UNL     1       0.002  -0.004   0.002  0.00  0.00    -0.506 OA
ATOM     31  H   UNL     1       0.962  -0.541  -0.005  0.00  0.00    +0.292 HD
ENDBRANCH  28  30
ENDBRANCH  18  29
ENDBRANCH   1  19
TORSDOF 4
