REMARK  Name = ZINC06177946
REMARK  11 active torsions:
REMARK  status: ('A' for Active; 'I' for Inactive)
REMARK    1  A    between atoms: C_1  and  C_2
REMARK    2  A    between atoms: C_4  and  C_39
REMARK    3  A    between atoms: C_9  and  C_14
REMARK    4  A    between atoms: C_14  and  C_16
REMARK    5  A    between atoms: C_14  and  N_68
REMARK    6  A    between atoms: N_20  and  C_21
REMARK    7  A    between atoms: C_21  and  C_22
REMARK    8  A    between atoms: C_22  and  O_23
REMARK    9  A    between atoms: O_23  and  C_24
REMARK   10  A    between atoms: N_27  and  C_30
REMARK   11  A    between atoms: C_33  and  N_36
REMARK                            x       y       z     vdW  Elec       q    Type
REMARK                         _______ _______ _______ _____ _____    ______ ____
ROOT
ATOM      1  C   UNL     1      -2.490   0.996   0.019  0.00  0.00    +0.039 C 
ENDROOT
BRANCH   1  10
ATOM      2  C   UNL     1       2.590   5.302   3.375  0.00  0.00    +0.044 C 
ATOM      3  C   UNL     1       2.104   4.538   2.170  0.00  0.00    -0.050 A 
ATOM      4  C   UNL     1       2.871   4.519   1.013  0.00  0.00    +0.008 A 
ATOM      5  C   UNL     1       2.446   3.827  -0.101  0.00  0.00    -0.026 A 
ATOM      6  C   UNL     1       1.237   3.139  -0.066  0.00  0.00    +0.052 A 
ATOM      7  C   UNL     1       0.463   3.160   1.109  0.00  0.00    -0.001 A 
ATOM      8  C   UNL     1       0.914   3.870   2.227  0.00  0.00    +0.013 A 
ATOM      9  C   UNL     1      -0.808   2.434   1.135  0.00  0.00    +0.017 A 
ATOM     10  C   UNL     1      -1.191   1.759   0.023  0.00  0.00    +0.011 A 
ATOM     11  C   UNL     1      -0.381   1.775  -1.132  0.00  0.00    +0.251 A 
ATOM     12  O   UNL     1      -0.747   1.166  -2.123  0.00  0.00    -0.268 OA
ATOM     13  N   UNL     1       0.788   2.439  -1.166  0.00  0.00    -0.322 N 
ATOM     14  H   UNL     1       1.323   2.425  -1.975  0.00  0.00    +0.169 HD
ATOM     15  C   UNL     1       3.288   3.814  -1.351  0.00  0.00    +0.046 C 
ENDBRANCH   1  10
BRANCH   1  21
ATOM     16  C   UNL     1      -3.576   2.970  -0.869  0.00  0.00    -0.058 C 
ATOM     17  C   UNL     1      -4.426   3.496  -2.028  0.00  0.00    +0.086 C 
ATOM     18  N   UNL     1      -5.709   2.780  -2.056  0.00  0.00    -0.333 N 
ATOM     19  C   UNL     1      -5.498   1.335  -2.222  0.00  0.00    +0.086 C 
ATOM     20  C   UNL     1      -4.649   0.809  -1.063  0.00  0.00    -0.058 C 
ATOM     21  N   UNL     1      -3.354   1.521  -1.060  0.00  0.00    +0.391 N 
ATOM     22  H   UNL     1      -2.888   1.372  -1.963  0.00  0.00    -0.080 HD
BRANCH  18  23
ATOM     23  C   UNL     1      -6.541   3.283  -3.058  0.00  0.00    +0.030 A 
ATOM     24  C   UNL     1      -7.043   2.435  -4.038  0.00  0.00    +0.025 A 
ATOM     25  C   UNL     1      -7.870   2.935  -5.024  0.00  0.00    +0.034 A 
ATOM     26  C   UNL     1      -8.191   4.280  -5.043  0.00  0.00    +0.126 A 
ATOM     27  C   UNL     1      -7.689   5.128  -4.073  0.00  0.00    +0.034 A 
ATOM     28  C   UNL     1      -6.865   4.634  -3.080  0.00  0.00    +0.025 A 
BRANCH  26  29
ATOM     29  N   UNL     1      -9.073   4.814  -6.105  0.00  0.00    +0.056 N 
ATOM     30  O   UNL     1      -9.357   5.998  -6.123  0.00  0.00    -0.126 OA
ATOM     31  O   UNL     1      -9.516   4.068  -6.960  0.00  0.00    -0.126 OA
ENDBRANCH  26  29
ENDBRANCH  18  23
ENDBRANCH   1  21
BRANCH   1  32
ATOM     32  C   UNL     1      -3.167   1.147   1.357  0.00  0.00    +0.143 A 
ATOM     33  N   UNL     1      -3.792   2.210   1.802  0.00  0.00    -0.115 NA
ATOM     34  N   UNL     1      -4.234   1.946   2.983  0.00  0.00    -0.023 NA
ATOM     35  N   UNL     1      -3.900   0.746   3.306  0.00  0.00    -0.044 NA
ATOM     36  N   UNL     1      -3.241   0.220   2.330  0.00  0.00    -0.228 N 
BRANCH  36  37
ATOM     37  C   UNL     1      -2.679  -1.132   2.288  0.00  0.00    +0.175 C 
BRANCH  37  38
ATOM     38  C   UNL     1      -1.252  -1.108   2.839  0.00  0.00    +0.183 C 
BRANCH  38  39
ATOM     39  O   UNL     1      -0.703  -2.427   2.798  0.00  0.00    -0.381 OA
ATOM     40  C   UNL     1       0.634  -2.516   3.293  0.00  0.00    +0.194 C 
ENDBRANCH  38  39
ENDBRANCH  37  38
ENDBRANCH  36  37
ENDBRANCH   1  32
TORSDOF 8
