REMARK  Name = ZINC22790355
REMARK  13 active torsions:
REMARK  status: ('A' for Active; 'I' for Inactive)
REMARK    1  A    between atoms: C_1  and  C_2
REMARK    2  A    between atoms: C_6  and  C_40
REMARK    3  A    between atoms: C_8  and  O_11
REMARK    4  A    between atoms: O_11  and  C_12
REMARK    5  A    between atoms: C_12  and  C_13
REMARK    6  A    between atoms: C_13  and  C_15
REMARK    7  A    between atoms: C_13  and  O_39
REMARK    8  A    between atoms: C_15  and  N_16
REMARK    9  A    between atoms: N_19  and  C_22
REMARK   10  A    between atoms: C_22  and  C_23
REMARK   11  A    between atoms: C_23  and  N_24
REMARK   12  A    between atoms: C_40  and  C_41
REMARK   13  A    between atoms: C_40  and  C_42
REMARK                            x       y       z     vdW  Elec       q    Type
REMARK                         _______ _______ _______ _____ _____    ______ ____
ROOT
ATOM      1  N   UNL     1      -0.516  -0.684   1.907  0.00  0.00    -0.303 NA
ATOM      2  C   UNL     1      -1.710  -0.218   1.190  0.00  0.00    +0.066 C 
ATOM      3  C   UNL     1      -1.862   1.292   1.385  0.00  0.00    -0.063 C 
ATOM      4  N   UNL     1      -0.656   1.972   0.891  0.00  0.00    +0.382 N 
ATOM      5  C   UNL     1       0.538   1.505   1.609  0.00  0.00    -0.063 C 
ATOM      6  C   UNL     1       0.690  -0.005   1.413  0.00  0.00    +0.066 C 
ATOM      7  H   UNL     1      -0.535   1.718  -0.172  0.00  0.00    -0.082 HD
ENDROOT
BRANCH   1   8
ATOM      8  C   UNL     1      -0.377  -2.143   1.806  0.00  0.00    +0.117 C 
BRANCH   8   9
ATOM      9  C   UNL     1       0.926  -2.580   2.479  0.00  0.00    +0.154 C 
BRANCH   9  10
ATOM     10  O   UNL     1       0.913  -2.176   3.849  0.00  0.00    -0.388 OA
ATOM     11  H   UNL     1       0.824  -1.111   4.109  0.00  0.00    +0.210 HD
ENDBRANCH   9  10
BRANCH   9  12
ATOM     12  C   UNL     1       1.058  -4.102   2.396  0.00  0.00    +0.192 C 
BRANCH  12  13
ATOM     13  O   UNL     1       2.327  -4.499   2.920  0.00  0.00    -0.374 OA
BRANCH  13  19
ATOM     14  C   UNL     1       2.567  -4.413   5.407  0.00  0.00    +0.007 C 
ATOM     15  C   UNL     1       2.808  -5.923   5.374  0.00  0.00    -0.012 C 
ATOM     16  C   UNL     1       4.306  -6.197   5.218  0.00  0.00    +0.004 C 
ATOM     17  C   UNL     1       4.806  -5.572   3.914  0.00  0.00    +0.006 C 
ATOM     18  C   UNL     1       4.050  -6.184   2.733  0.00  0.00    +0.020 C 
ATOM     19  C   UNL     1       2.552  -5.910   2.889  0.00  0.00    +0.122 C 
ATOM     20  C   UNL     1       2.053  -6.535   4.193  0.00  0.00    +0.035 C 
BRANCH  18  21
ATOM     21  C   UNL     1       4.550  -5.559   1.429  0.00  0.00    -0.012 C 
ATOM     22  C   UNL     1       6.047  -5.832   1.273  0.00  0.00    +0.007 C 
ATOM     23  C   UNL     1       3.794  -6.170   0.248  0.00  0.00    +0.007 C 
ENDBRANCH  18  21
ENDBRANCH  13  19
ENDBRANCH  12  13
ENDBRANCH   9  12
ENDBRANCH   8   9
ENDBRANCH   1   8
BRANCH   4  24
ATOM     24  C   UNL     1      -0.795   3.430   0.993  0.00  0.00    -0.059 C 
BRANCH  24  25
ATOM     25  C   UNL     1       0.555   4.092   0.709  0.00  0.00    +0.098 C 
BRANCH  25  26
ATOM     26  N   UNL     1       0.417   5.547   0.810  0.00  0.00    -0.236 N 
ATOM     27  C   UNL     1       0.093   6.246  -0.295  0.00  0.00    +0.254 C 
ATOM     28  O   UNL     1      -0.077   5.665  -1.349  0.00  0.00    -0.270 OA
ATOM     29  C   UNL     1      -0.059   7.707  -0.232  0.00  0.00    +0.046 A 
ATOM     30  C   UNL     1      -0.395   8.465  -1.344  0.00  0.00    +0.014 A 
ATOM     31  C   UNL     1      -0.523   9.845  -1.235  0.00  0.00    +0.001 A 
ATOM     32  C   UNL     1      -0.325  10.491  -0.049  0.00  0.00    +0.008 A 
ATOM     33  C   UNL     1       0.017   9.759   1.102  0.00  0.00    -0.016 A 
ATOM     34  C   UNL     1       0.150   8.358   1.005  0.00  0.00    +0.006 A 
ATOM     35  C   UNL     1       0.493   7.595   2.144  0.00  0.00    +0.046 A 
ATOM     36  C   UNL     1       0.697   8.243   3.353  0.00  0.00    +0.014 A 
ATOM     37  C   UNL     1       0.563   9.624   3.436  0.00  0.00    +0.001 A 
ATOM     38  C   UNL     1       0.232  10.377   2.346  0.00  0.00    +0.008 A 
ATOM     39  C   UNL     1       0.623   6.137   2.003  0.00  0.00    +0.254 C 
ATOM     40  O   UNL     1       0.918   5.460   2.969  0.00  0.00    -0.270 OA
ENDBRANCH  25  26
ENDBRANCH  24  25
ENDBRANCH   4  24
TORSDOF 10
