REMARK  Name = ZINC00922233
REMARK  13 active torsions:
REMARK  status: ('A' for Active; 'I' for Inactive)
REMARK    1  A    between atoms: C_1  and  C_2
REMARK    2  A    between atoms: C_2  and  N_3
REMARK    3  A    between atoms: N_3  and  C_4
REMARK    4  A    between atoms: N_3  and  S_6
REMARK    5  A    between atoms: C_4  and  C_5
REMARK    6  A    between atoms: S_6  and  C_9
REMARK    7  A    between atoms: C_12  and  C_15
REMARK    8  A    between atoms: C_18  and  S_20
REMARK    9  A    between atoms: S_20  and  C_21
REMARK   10  A    between atoms: C_21  and  C_22
REMARK   11  A    between atoms: N_24  and  C_25
REMARK   12  A    between atoms: C_30  and  O_31
REMARK   13  A    between atoms: O_31  and  C_32
REMARK                            x       y       z     vdW  Elec       q    Type
REMARK                         _______ _______ _______ _____ _____    ______ ____
ROOT
ATOM      1  C   UNL     1      -3.339   2.962   4.815  0.00  0.00    +0.249 A 
ATOM      2  N   UNL     1      -4.516   2.544   5.210  0.00  0.00    -0.106 NA
ATOM      3  N   UNL     1      -4.836   3.138   6.305  0.00  0.00    -0.101 NA
ATOM      4  C   UNL     1      -3.873   3.960   6.653  0.00  0.00    +0.278 A 
ATOM      5  O   UNL     1      -2.904   3.863   5.723  0.00  0.00    -0.411 OA
ENDROOT
BRANCH   1   9
ATOM      6  C   UNL     1      -1.262   1.701   1.332  0.00  0.00    +0.106 A 
ATOM      7  C   UNL     1      -0.689   2.637   2.174  0.00  0.00    +0.029 A 
ATOM      8  C   UNL     1      -1.360   3.055   3.304  0.00  0.00    +0.015 A 
ATOM      9  C   UNL     1      -2.616   2.523   3.603  0.00  0.00    +0.039 A 
ATOM     10  C   UNL     1      -3.186   1.575   2.752  0.00  0.00    +0.015 A 
ATOM     11  C   UNL     1      -2.506   1.169   1.622  0.00  0.00    +0.029 A 
BRANCH   6  12
ATOM     12  S   UNL     1      -0.400   1.178  -0.113  0.00  0.00    +0.061 S 
ATOM     13  O   UNL     1      -0.903  -0.110  -0.442  0.00  0.00    -0.153 OA
ATOM     14  O   UNL     1       0.980   1.418   0.127  0.00  0.00    -0.153 OA
BRANCH  12  15
ATOM     15  N   UNL     1      -0.849   2.190  -1.345  0.00  0.00    -0.177 NA
BRANCH  15  17
ATOM     16  C   UNL     1       0.956   3.152  -2.686  0.00  0.00    +0.022 C 
ATOM     17  C   UNL     1      -0.088   3.416  -1.599  0.00  0.00    +0.106 C 
ENDBRANCH  15  17
BRANCH  15  18
ATOM     18  C   UNL     1      -2.006   1.860  -2.180  0.00  0.00    +0.106 C 
ATOM     19  C   UNL     1      -3.247   2.568  -1.634  0.00  0.00    +0.022 C 
ENDBRANCH  15  18
ENDBRANCH  12  15
ENDBRANCH   6  12
ENDBRANCH   1   9
BRANCH   4  20
ATOM     20  S   UNL     1      -3.850   4.995   8.079  0.00  0.00    -0.056 S 
BRANCH  20  21
ATOM     21  C   UNL     1      -5.450   4.564   8.806  0.00  0.00    +0.175 C 
BRANCH  21  22
ATOM     22  C   UNL     1      -5.654   5.351  10.075  0.00  0.00    +0.228 C 
ATOM     23  O   UNL     1      -4.801   6.127  10.451  0.00  0.00    -0.275 OA
ATOM     24  N   UNL     1      -6.784   5.193  10.792  0.00  0.00    -0.282 N 
ATOM     25  H   UNL     1      -7.476   4.589  10.480  0.00  0.00    +0.155 HD
BRANCH  24  26
ATOM     26  C   UNL     1      -6.960   5.901  11.988  0.00  0.00    +0.076 A 
ATOM     27  C   UNL     1      -6.241   7.065  12.219  0.00  0.00    +0.027 A 
ATOM     28  C   UNL     1      -6.416   7.762  13.400  0.00  0.00    +0.002 A 
ATOM     29  C   UNL     1      -7.307   7.302  14.353  0.00  0.00    +0.004 A 
ATOM     30  C   UNL     1      -8.027   6.144  14.130  0.00  0.00    +0.048 A 
ATOM     31  C   UNL     1      -7.861   5.441  12.946  0.00  0.00    +0.150 A 
BRANCH  31  32
ATOM     32  O   UNL     1      -8.572   4.305  12.723  0.00  0.00    -0.454 OA
BRANCH  32  33
ATOM     33  C   UNL     1      -9.510   3.949  13.639  0.00  0.00    +0.129 A 
ATOM     34  C   UNL     1      -9.268   2.894  14.508  0.00  0.00    +0.046 A 
ATOM     35  C   UNL     1     -10.222   2.537  15.441  0.00  0.00    +0.004 A 
ATOM     36  C   UNL     1     -11.421   3.223  15.504  0.00  0.00    +0.000 A 
ATOM     37  C   UNL     1     -11.666   4.271  14.636  0.00  0.00    +0.004 A 
ATOM     38  C   UNL     1     -10.714   4.635  13.704  0.00  0.00    +0.046 A 
ENDBRANCH  32  33
ENDBRANCH  31  32
ENDBRANCH  24  26
ENDBRANCH  21  22
ENDBRANCH  20  21
ENDBRANCH   4  20
TORSDOF 11
