REMARK  Name = ZINC13776532
REMARK  15 active torsions:
REMARK  status: ('A' for Active; 'I' for Inactive)
REMARK    1  A    between atoms: C_1  and  C_2
REMARK    2  A    between atoms: C_2  and  N_3
REMARK    3  A    between atoms: N_3  and  C_4
REMARK    4  A    between atoms: N_3  and  C_6
REMARK    5  A    between atoms: C_4  and  C_5
REMARK    6  A    between atoms: C_9  and  C_12
REMARK    7  A    between atoms: C_20  and  O_38
REMARK    8  A    between atoms: C_23  and  C_24
REMARK    9  A    between atoms: C_23  and  N_78
REMARK   10  A    between atoms: N_26  and  C_27
REMARK   11  A    between atoms: C_28  and  C_34
REMARK   12  A    between atoms: C_29  and  C_33
REMARK   13  A    between atoms: C_30  and  C_32
REMARK   14  A    between atoms: C_34  and  O_36
REMARK   15  A    between atoms: O_36  and  C_37
REMARK                            x       y       z     vdW  Elec       q    Type
REMARK                         _______ _______ _______ _____ _____    ______ ____
ROOT
ATOM      1  C   UNL     1      -2.196   1.429  -1.205  0.00  0.00    -0.031 C 
ATOM      2  C   UNL     1      -0.753   1.933  -1.234  0.00  0.00    +0.011 C 
ATOM      3  C   UNL     1      -0.044   1.415  -2.486  0.00  0.00    +0.005 C 
ATOM      4  C   UNL     1       1.395   1.936  -2.502  0.00  0.00    +0.000 C 
ATOM      5  C   UNL     1       2.133   1.447  -1.255  0.00  0.00    +0.003 C 
ATOM      6  C   UNL     1       1.417   1.955  -0.001  0.00  0.00    +0.035 C 
ATOM      7  C   UNL     1      -0.017   1.425   0.010  0.00  0.00    +0.066 C 
ATOM      8  C   UNL     1      -0.747   1.919   1.261  0.00  0.00    +0.016 C 
ATOM      9  C   UNL     1      -2.197   1.422   1.222  0.00  0.00    -0.075 C 
ATOM     10  N   UNL     1      -2.859   1.952   0.010  0.00  0.00    +0.390 N 
ATOM     11  H   UNL     1      -2.787   2.977   0.013  0.00  0.00    -0.080 HD
ENDROOT
BRANCH   1  15
ATOM     12  C   UNL     1      -4.278   2.865  -4.650  0.00  0.00    +0.030 A 
ATOM     13  C   UNL     1      -3.786   1.566  -4.625  0.00  0.00    +0.023 A 
ATOM     14  C   UNL     1      -3.114   1.105  -3.510  0.00  0.00    +0.004 A 
ATOM     15  C   UNL     1      -2.930   1.935  -2.420  0.00  0.00    -0.060 A 
ATOM     16  C   UNL     1      -3.424   3.227  -2.439  0.00  0.00    +0.004 A 
ATOM     17  C   UNL     1      -4.092   3.696  -3.553  0.00  0.00    +0.023 A 
BRANCH  12  18
ATOM     18  N   UNL     1      -4.959   3.334  -5.776  0.00  0.00    -0.330 N 
BRANCH  18  20
ATOM     19  C   UNL     1      -4.411   5.642  -6.370  0.00  0.00    +0.024 C 
ATOM     20  C   UNL     1      -5.477   4.704  -5.800  0.00  0.00    +0.102 C 
ENDBRANCH  18  20
BRANCH  18  21
ATOM     21  C   UNL     1      -5.155   2.456  -6.932  0.00  0.00    +0.102 C 
ATOM     22  C   UNL     1      -6.469   1.689  -6.773  0.00  0.00    +0.024 C 
ENDBRANCH  18  21
ENDBRANCH  12  18
ENDBRANCH   1  15
BRANCH   7  23
ATOM     23  O   UNL     1       0.002  -0.004   0.002  0.00  0.00    -0.388 OA
ATOM     24  H   UNL     1       0.456  -0.395   0.761  0.00  0.00    +0.210 HD
ENDBRANCH   7  23
BRANCH  10  25
ATOM     25  C   UNL     1      -4.286   1.573   0.009  0.00  0.00    +0.020 C 
BRANCH  25  26
ATOM     26  C   UNL     1      -4.981   2.296   1.134  0.00  0.00    +0.201 C 
ATOM     27  O   UNL     1      -4.349   3.030   1.865  0.00  0.00    -0.278 OA
ATOM     28  N   UNL     1      -6.304   2.128   1.329  0.00  0.00    -0.281 N 
ATOM     29  H   UNL     1      -6.809   1.542   0.744  0.00  0.00    +0.155 HD
BRANCH  28  30
ATOM     30  C   UNL     1      -6.942   2.794   2.364  0.00  0.00    +0.086 A 
ATOM     31  C   UNL     1      -8.286   2.749   2.720  0.00  0.00    +0.091 A 
ATOM     32  C   UNL     1      -8.683   3.551   3.853  0.00  0.00    -0.025 A 
ATOM     33  C   UNL     1      -7.724   4.269   4.464  0.00  0.00    -0.008 A 
ATOM     34  S   UNL     1      -6.259   3.875   3.530  0.00  0.00    -0.078 S 
ATOM     35  C   UNL     1      -7.855   5.183   5.655  0.00  0.00    +0.052 C 
ATOM     36  C   UNL     1     -10.112   3.582   4.332  0.00  0.00    +0.045 C 
BRANCH  31  37
ATOM     37  C   UNL     1      -9.250   1.929   1.983  0.00  0.00    +0.342 C 
ATOM     38  O   UNL     1      -9.453   0.778   2.320  0.00  0.00    -0.245 OA
BRANCH  37  39
ATOM     39  O   UNL     1      -9.914   2.451   0.931  0.00  0.00    -0.464 OA
ATOM     40  C   UNL     1     -10.854   1.581   0.248  0.00  0.00    +0.280 C 
ENDBRANCH  37  39
ENDBRANCH  31  37
ENDBRANCH  28  30
ENDBRANCH  25  26
ENDBRANCH  10  25
TORSDOF 10
