REMARK  Name = ZINC13632919
REMARK  6 active torsions:
REMARK  status: ('A' for Active; 'I' for Inactive)
REMARK    1  A    between atoms: C_4  and  C_7
REMARK    2  A    between atoms: C_12  and  S_30
REMARK    3  A    between atoms: C_20  and  S_25
REMARK    4  A    between atoms: S_25  and  N_28
REMARK    5  A    between atoms: S_30  and  C_31
REMARK    6  A    between atoms: C_36  and  N_37
REMARK                            x       y       z     vdW  Elec       q    Type
REMARK                         _______ _______ _______ _____ _____    ______ ____
ROOT
ATOM      1  C   UNL     1       3.606   1.798  -0.427  0.00  0.00    +0.104 C 
ATOM      2  C   UNL     1       3.671   3.129   0.310  0.00  0.00    +0.024 C 
ATOM      3  C   UNL     1       3.634   2.913   1.832  0.00  0.00    +0.022 C 
ATOM      4  C   UNL     1       2.804   4.072   2.414  0.00  0.00    +0.070 C 
ATOM      5  C   UNL     1       2.378   4.951   1.219  0.00  0.00    +0.101 C 
ATOM      6  C   UNL     1       2.434   3.990   0.001  0.00  0.00    +0.045 C 
ATOM      7  C   UNL     1       1.171   3.171   0.007  0.00  0.00    -0.020 A 
ATOM      8  C   UNL     1      -0.045   3.839   0.022  0.00  0.00    +0.034 A 
ATOM      9  C   UNL     1      -1.231   3.133   0.030  0.00  0.00    +0.105 A 
ATOM     10  C   UNL     1      -1.217   1.750   0.017  0.00  0.00    +0.030 A 
ATOM     11  C   UNL     1      -0.013   1.076   0.008  0.00  0.00    +0.025 A 
ATOM     12  C   UNL     1       1.182   1.787   0.000  0.00  0.00    +0.031 A 
ATOM     13  N   UNL     1       2.392   1.084  -0.014  0.00  0.00    -0.336 N 
ATOM     14 CL   UNL     1       3.534   6.318   0.998  0.00  0.00    -0.120 Cl
ATOM     15  H   UNL     1       2.427   0.149   0.241  0.00  0.00    +0.147 HD
ENDROOT
BRANCH   1  19
ATOM     16  C   UNL     1       7.046  -0.541   0.544  0.00  0.00    +0.000 A 
ATOM     17  C   UNL     1       7.000   0.160  -0.646  0.00  0.00    +0.000 A 
ATOM     18  C   UNL     1       5.887   0.917  -0.961  0.00  0.00    +0.005 A 
ATOM     19  C   UNL     1       4.820   0.973  -0.084  0.00  0.00    -0.027 A 
ATOM     20  C   UNL     1       4.868   0.276   1.109  0.00  0.00    +0.005 A 
ATOM     21  C   UNL     1       5.979  -0.484   1.421  0.00  0.00    +0.000 A 
ENDBRANCH   1  19
BRANCH   9  22
ATOM     22  S   UNL     1      -2.767   3.995   0.051  0.00  0.00    +0.056 S 
ATOM     23  O   UNL     1      -3.725   3.105   0.606  0.00  0.00    -0.153 OA
ATOM     24  O   UNL     1      -2.506   5.277   0.606  0.00  0.00    -0.153 OA
BRANCH  22  25
ATOM     25  N   UNL     1      -3.210   4.244  -1.526  0.00  0.00    -0.204 NA
ATOM     26  H   UNL     1      -2.643   3.925  -2.245  0.00  0.00    +0.144 HD
ATOM     27  H   UNL     1      -4.037   4.708  -1.730  0.00  0.00    +0.144 HD
ENDBRANCH  22  25
ENDBRANCH   9  22
BRANCH   4  28
ATOM     28  S   UNL     1       3.811   5.041   3.571  0.00  0.00    -0.118 S 
BRANCH  28  29
ATOM     29  C   UNL     1       2.690   6.240   4.212  0.00  0.00    +0.038 A 
ATOM     30  C   UNL     1       1.369   6.260   3.779  0.00  0.00    +0.017 A 
ATOM     31  C   UNL     1       0.492   7.197   4.288  0.00  0.00    +0.001 A 
ATOM     32  C   UNL     1       0.930   8.123   5.218  0.00  0.00    +0.002 A 
ATOM     33  C   UNL     1       2.245   8.110   5.646  0.00  0.00    +0.034 A 
ATOM     34  C   UNL     1       3.126   7.171   5.146  0.00  0.00    +0.140 A 
BRANCH  34  35
ATOM     35  N   UNL     1       4.533   7.158   5.605  0.00  0.00    +0.058 N 
ATOM     36  O   UNL     1       4.914   7.975   6.424  0.00  0.00    -0.126 OA
ATOM     37  O   UNL     1       5.310   6.330   5.164  0.00  0.00    -0.126 OA
ENDBRANCH  34  35
ENDBRANCH  28  29
ENDBRANCH   4  28
TORSDOF 6
