REMARK  Name = ZINC40392448
REMARK  13 active torsions:
REMARK  status: ('A' for Active; 'I' for Inactive)
REMARK    1  A    between atoms: C_1  and  C_2
REMARK    2  A    between atoms: C_2  and  N_3
REMARK    3  A    between atoms: C_4  and  C_25
REMARK    4  A    between atoms: C_5  and  C_20
REMARK    5  A    between atoms: C_6  and  C_11
REMARK    6  A    between atoms: C_14  and  C_17
REMARK    7  A    between atoms: C_17  and  C_18
REMARK    8  A    between atoms: C_17  and  C_19
REMARK    9  A    between atoms: C_20  and  O_22
REMARK   10  A    between atoms: O_22  and  C_23
REMARK   11  A    between atoms: C_23  and  C_24
REMARK   12  A    between atoms: C_25  and  N_26
REMARK   13  A    between atoms: C_32  and  C_34
REMARK                            x       y       z     vdW  Elec       q    Type
REMARK                         _______ _______ _______ _____ _____    ______ ____
ROOT
ATOM      1  N   UNL     1      -1.179  -0.433   0.186  0.00  0.00    -0.258 N 
ATOM      2  C   UNL     1      -1.807  -0.858   1.321  0.00  0.00    +0.041 C 
ATOM      3  C   UNL     1      -3.009  -1.471   1.264  0.00  0.00    +0.080 C 
ATOM      4  C   UNL     1      -3.635  -1.670  -0.101  0.00  0.00    +0.144 C 
ATOM      5  N   UNL     1      -2.876  -1.175  -1.262  0.00  0.00    -0.288 N 
ATOM      6  C   UNL     1      -1.688  -0.579  -1.044  0.00  0.00    +0.307 C 
ATOM      7  O   UNL     1      -1.055  -0.163  -1.995  0.00  0.00    -0.252 OA
ATOM      8  H   UNL     1      -3.225  -1.273  -2.161  0.00  0.00    +0.151 HD
ENDROOT
BRANCH   4   9
ATOM      9  C   UNL     1      -3.869  -3.146  -0.294  0.00  0.00    -0.022 A 
ATOM     10  C   UNL     1      -2.821  -3.969  -0.666  0.00  0.00    +0.006 A 
ATOM     11  C   UNL     1      -3.035  -5.323  -0.843  0.00  0.00    +0.004 A 
ATOM     12  C   UNL     1      -4.296  -5.855  -0.649  0.00  0.00    -0.045 A 
ATOM     13  C   UNL     1      -5.343  -5.033  -0.277  0.00  0.00    +0.004 A 
ATOM     14  C   UNL     1      -5.128  -3.679  -0.095  0.00  0.00    +0.006 A 
BRANCH  12  15
ATOM     15  C   UNL     1      -4.529  -7.331  -0.843  0.00  0.00    +0.013 C 
ATOM     16  C   UNL     1      -5.033  -7.944   0.465  0.00  0.00    +0.012 C 
ATOM     17  C   UNL     1      -5.574  -7.542  -1.941  0.00  0.00    +0.012 C 
ENDBRANCH  12  15
ENDBRANCH   4   9
BRANCH   1  19
ATOM     18  C   UNL     1      -0.074   1.740   0.385  0.00  0.00    +0.025 C 
ATOM     19  C   UNL     1       0.124   0.224   0.322  0.00  0.00    +0.111 C 
ENDBRANCH   1  19
BRANCH   3  20
ATOM     20  C   UNL     1      -3.661  -1.913   2.439  0.00  0.00    +0.339 C 
ATOM     21  O   UNL     1      -3.168  -1.690   3.529  0.00  0.00    -0.245 OA
BRANCH  20  22
ATOM     22  O   UNL     1      -4.830  -2.581   2.352  0.00  0.00    -0.462 OA
BRANCH  22  23
ATOM     23  C   UNL     1      -5.433  -2.997   3.579  0.00  0.00    +0.229 C 
ATOM     24  C   UNL     1      -6.741  -3.733   3.280  0.00  0.00    +0.048 C 
ENDBRANCH  22  23
ENDBRANCH  20  22
ENDBRANCH   3  20
BRANCH   2  25
ATOM     25  C   UNL     1      -1.149  -0.640   2.659  0.00  0.00    +0.136 C 
BRANCH  25  26
ATOM     26  N   UNL     1      -0.477  -1.877   3.082  0.00  0.00    -0.294 NA
ATOM     27  C   UNL     1       0.578  -2.253   2.132  0.00  0.00    +0.104 C 
ATOM     28  C   UNL     1       1.129  -3.633   2.506  0.00  0.00    +0.123 C 
ATOM     29  N   UNL     1       1.543  -3.604   3.917  0.00  0.00    -0.293 N 
ATOM     30  C   UNL     1       0.583  -3.107   4.915  0.00  0.00    +0.123 C 
ATOM     31  C   UNL     1       0.054  -1.747   4.445  0.00  0.00    +0.104 C 
ATOM     32  C   UNL     1       2.770  -4.022   4.287  0.00  0.00    +0.282 C 
ATOM     33  O   UNL     1       3.592  -4.319   3.440  0.00  0.00    -0.267 OA
BRANCH  32  34
ATOM     34  C   UNL     1       3.115  -4.119   5.709  0.00  0.00    +0.189 A 
ATOM     35  C   UNL     1       4.352  -4.390   6.218  0.00  0.00    +0.054 A 
ATOM     36  C   UNL     1       4.223  -4.386   7.616  0.00  0.00    +0.042 A 
ATOM     37  C   UNL     1       2.929  -4.115   7.895  0.00  0.00    +0.196 A 
ATOM     38  O   UNL     1       2.265  -3.950   6.744  0.00  0.00    -0.458 OA
ENDBRANCH  32  34
ENDBRANCH  25  26
ENDBRANCH   2  25
TORSDOF 9
