REMARK  Name = ZINC34746680
REMARK  6 active torsions:
REMARK  status: ('A' for Active; 'I' for Inactive)
REMARK    1  A    between atoms: C_1  and  C_2
REMARK    2  A    between atoms: C_5  and  C_8
REMARK    3  A    between atoms: C_22  and  C_24
REMARK    4  A    between atoms: C_24  and  N_25
REMARK    5  A    between atoms: N_25  and  C_26
REMARK    6  A    between atoms: N_31  and  C_32
REMARK                            x       y       z     vdW  Elec       q    Type
REMARK                         _______ _______ _______ _____ _____    ______ ____
ROOT
ATOM      1  C   UNL     1      -0.281  -4.230  -2.519  0.00  0.00    +0.159 C 
ATOM      2  C   UNL     1       1.049  -4.721  -3.038  0.00  0.00    +0.049 A 
ATOM      3  C   UNL     1       1.499  -4.790  -4.296  0.00  0.00    +0.025 A 
ATOM      4  C   UNL     1       2.808  -5.317  -4.247  0.00  0.00    +0.020 A 
ATOM      5  C   UNL     1       3.105  -5.553  -2.949  0.00  0.00    +0.092 A 
ATOM      6  N   UNL     1       2.035  -5.195  -2.200  0.00  0.00    -0.316 N 
ATOM      7  C   UNL     1       1.842  -5.254  -0.812  0.00  0.00    +0.068 A 
ATOM      8  C   UNL     1       2.889  -5.477   0.061  0.00  0.00    +0.028 A 
ATOM      9  C   UNL     1       2.650  -5.518   1.423  0.00  0.00    +0.002 A 
ATOM     10  C   UNL     1       1.368  -5.335   1.909  0.00  0.00    +0.002 A 
ATOM     11  C   UNL     1       0.315  -5.115   1.041  0.00  0.00    +0.025 A 
ATOM     12  C   UNL     1       0.542  -5.077  -0.326  0.00  0.00    +0.061 A 
ATOM     13  N   UNL     1      -0.521  -4.878  -1.218  0.00  0.00    -0.255 N 
ATOM     14  C   UNL     1      -1.764  -5.280  -0.887  0.00  0.00    +0.238 C 
ATOM     15  O   UNL     1      -1.947  -5.907   0.135  0.00  0.00    -0.273 OA
ENDROOT
BRANCH   1  20
ATOM     16  C   UNL     1      -0.127   1.507  -1.849  0.00  0.00    +0.044 C 
ATOM     17  C   UNL     1      -0.167   0.011  -2.023  0.00  0.00    -0.050 A 
ATOM     18  C   UNL     1      -0.777  -0.539  -3.135  0.00  0.00    +0.004 A 
ATOM     19  C   UNL     1      -0.814  -1.911  -3.295  0.00  0.00    +0.006 A 
ATOM     20  C   UNL     1      -0.240  -2.734  -2.344  0.00  0.00    -0.021 A 
ATOM     21  C   UNL     1       0.372  -2.184  -1.233  0.00  0.00    +0.006 A 
ATOM     22  C   UNL     1       0.412  -0.811  -1.075  0.00  0.00    +0.004 A 
ENDBRANCH   1  20
BRANCH  14  23
ATOM     23  C   UNL     1      -2.928  -4.950  -1.786  0.00  0.00    +0.205 C 
BRANCH  23  24
ATOM     24  N   UNL     1      -4.176  -5.366  -1.143  0.00  0.00    -0.274 N 
ATOM     25  C   UNL     1      -4.660  -6.607  -1.349  0.00  0.00    +0.307 C 
ATOM     26  O   UNL     1      -4.112  -7.349  -2.141  0.00  0.00    -0.252 OA
ATOM     27  N   UNL     1      -5.750  -7.026  -0.677  0.00  0.00    -0.269 N 
ATOM     28  H   UNL     1      -6.247  -6.404  -0.123  0.00  0.00    +0.156 HD
BRANCH  27  29
ATOM     29  C   UNL     1      -6.167  -8.359  -0.778  0.00  0.00    +0.038 A 
ATOM     30  C   UNL     1      -5.227  -9.371  -0.922  0.00  0.00    +0.026 A 
ATOM     31  C   UNL     1      -5.638 -10.687  -1.022  0.00  0.00    +0.043 A 
ATOM     32  C   UNL     1      -6.986 -10.997  -0.978  0.00  0.00    +0.159 A 
ATOM     33  C   UNL     1      -7.927  -9.988  -0.835  0.00  0.00    +0.160 A 
ATOM     34  C   UNL     1      -7.518  -8.671  -0.730  0.00  0.00    +0.064 A 
ATOM     35  F   UNL     1      -9.243 -10.293  -0.793  0.00  0.00    -0.202 F 
ATOM     36  F   UNL     1      -7.386 -12.284  -1.076  0.00  0.00    -0.202 F 
ENDBRANCH  27  29
BRANCH  24  37
ATOM     37  C   UNL     1      -4.899  -4.434  -0.274  0.00  0.00    +0.078 C 
ATOM     38  C   UNL     1      -4.475  -2.964  -0.308  0.00  0.00    +0.024 C 
ATOM     39  C   UNL     1      -4.135  -3.831   0.906  0.00  0.00    +0.024 C 
ENDBRANCH  24  37
ENDBRANCH  23  24
ENDBRANCH  14  23
TORSDOF 5
