REMARK  Name = ZINC35674427
REMARK  12 active torsions:
REMARK  status: ('A' for Active; 'I' for Inactive)
REMARK    1  A    between atoms: C_1  and  C_2
REMARK    2  A    between atoms: C_2  and  C_3
REMARK    3  A    between atoms: C_3  and  C_5
REMARK    4  A    between atoms: C_3  and  N_28
REMARK    5  A    between atoms: C_9  and  O_26
REMARK    6  A    between atoms: C_10  and  O_24
REMARK    7  A    between atoms: N_15  and  C_16
REMARK    8  A    between atoms: C_16  and  C_17
REMARK    9  A    between atoms: C_22  and  C_23
REMARK   10  A    between atoms: O_24  and  C_25
REMARK   11  A    between atoms: O_26  and  C_27
REMARK   12  A    between atoms: C_29  and  C_31
REMARK                            x       y       z     vdW  Elec       q    Type
REMARK                         _______ _______ _______ _____ _____    ______ ____
ROOT
ATOM      1  C   UNL     1       0.698  -2.099  -1.565  0.00  0.00    -0.016 C 
ATOM      2  C   UNL     1       1.599  -2.324  -2.751  0.00  0.00    -0.052 A 
ATOM      3  C   UNL     1       1.227  -1.787  -3.975  0.00  0.00    +0.051 A 
ATOM      4  C   UNL     1       2.023  -1.972  -5.091  0.00  0.00    +0.162 A 
ATOM      5  C   UNL     1       3.204  -2.701  -4.984  0.00  0.00    +0.162 A 
ATOM      6  C   UNL     1       3.571  -3.234  -3.761  0.00  0.00    +0.053 A 
ATOM      7  C   UNL     1       2.770  -3.045  -2.645  0.00  0.00    -0.044 A 
ATOM      8  C   UNL     1       3.213  -3.635  -1.331  0.00  0.00    +0.017 C 
ATOM      9  C   UNL     1       2.037  -3.666  -0.354  0.00  0.00    -0.073 C 
ATOM     10  N   UNL     1       1.427  -2.328  -0.314  0.00  0.00    +0.388 N 
ATOM     11  H   UNL     1       2.148  -1.630  -0.210  0.00  0.00    -0.080 HD
ENDROOT
BRANCH   5  12
ATOM     12  O   UNL     1       3.993  -2.889  -6.076  0.00  0.00    -0.491 OA
ATOM     13  C   UNL     1       5.189  -3.648  -5.889  0.00  0.00    +0.277 C 
ENDBRANCH   5  12
BRANCH   4  14
ATOM     14  O   UNL     1       1.654  -1.443  -6.288  0.00  0.00    -0.491 OA
ATOM     15  C   UNL     1       0.376  -0.807  -6.350  0.00  0.00    +0.277 C 
ENDBRANCH   4  14
BRANCH   1  16
ATOM     16  C   UNL     1       0.181  -0.659  -1.591  0.00  0.00    +0.064 C 
BRANCH  16  17
ATOM     17  N   UNL     1      -0.827  -0.483  -0.543  0.00  0.00    -0.309 N 
ATOM     18  C   UNL     1      -2.056  -1.015  -0.694  0.00  0.00    +0.251 C 
ATOM     19  O   UNL     1      -2.300  -1.720  -1.655  0.00  0.00    -0.270 OA
ATOM     20  H   UNL     1      -0.610   0.016   0.260  0.00  0.00    +0.149 HD
BRANCH  18  21
ATOM     21  C   UNL     1      -3.099  -0.744   0.300  0.00  0.00    +0.074 A 
ATOM     22  C   UNL     1      -4.382  -1.263   0.384  0.00  0.00    +0.021 A 
ATOM     23  C   UNL     1      -5.139  -0.815   1.440  0.00  0.00    +0.008 A 
ATOM     24  C   UNL     1      -4.599   0.078   2.306  0.00  0.00    +0.046 A 
ATOM     25  S   UNL     1      -3.046   0.333   1.720  0.00  0.00    -0.092 S 
ENDBRANCH  18  21
ENDBRANCH  16  17
BRANCH  16  27
ATOM     26  C   UNL     1       0.855   1.746  -1.510  0.00  0.00    +0.005 C 
ATOM     27  C   UNL     1       1.344   0.305  -1.347  0.00  0.00    +0.017 C 
ENDBRANCH  16  27
ENDBRANCH   1  16
BRANCH  10  28
ATOM     28  C   UNL     1       0.495  -2.247   0.819  0.00  0.00    -0.042 C 
BRANCH  28  29
ATOM     29  C   UNL     1       1.201  -2.672   2.081  0.00  0.00    -0.061 A 
ATOM     30  C   UNL     1       1.045  -3.960   2.559  0.00  0.00    +0.002 A 
ATOM     31  C   UNL     1       1.693  -4.350   3.717  0.00  0.00    +0.000 A 
ATOM     32  C   UNL     1       2.496  -3.453   4.395  0.00  0.00    +0.000 A 
ATOM     33  C   UNL     1       2.652  -2.166   3.916  0.00  0.00    +0.003 A 
ATOM     34  C   UNL     1       2.008  -1.777   2.756  0.00  0.00    -0.049 A 
ATOM     35  C   UNL     1       2.183  -0.375   2.231  0.00  0.00    +0.044 C 
ENDBRANCH  28  29
ENDBRANCH  10  28
TORSDOF 8
