REMARK  Name = ZINC42867027
REMARK  5 active torsions:
REMARK  status: ('A' for Active; 'I' for Inactive)
REMARK    1  A    between atoms: C_1  and  C_2
REMARK    2  A    between atoms: C_8  and  C_10
REMARK    3  A    between atoms: C_10  and  N_11
REMARK    4  A    between atoms: C_12  and  C_16
REMARK    5  A    between atoms: C_20  and  N_22
REMARK                            x       y       z     vdW  Elec       q    Type
REMARK                         _______ _______ _______ _____ _____    ______ ____
ROOT
ATOM      1  N   UNL     1       2.850  -0.366   2.474  0.00  0.00    -0.225 N 
ATOM      2  C   UNL     1       2.969   0.368   3.608  0.00  0.00    +0.182 A 
ATOM      3  N   UNL     1       3.643  -0.362   4.471  0.00  0.00    -0.108 NA
ATOM      4  N   UNL     1       3.953  -1.496   3.956  0.00  0.00    -0.023 NA
ATOM      5  N   UNL     1       3.505  -1.579   2.750  0.00  0.00    -0.044 NA
ENDROOT
BRANCH   2   6
ATOM      6  C   UNL     1       2.439   1.732   3.832  0.00  0.00    +0.022 A 
ATOM      7  C   UNL     1       1.408   2.223   3.031  0.00  0.00    +0.013 A 
ATOM      8  C   UNL     1       0.916   3.495   3.241  0.00  0.00    +0.022 A 
ATOM      9  C   UNL     1       1.442   4.287   4.245  0.00  0.00    +0.062 A 
ATOM     10  C   UNL     1       2.470   3.806   5.050  0.00  0.00    +0.044 A 
ATOM     11  C   UNL     1       2.966   2.527   4.848  0.00  0.00    +0.035 A 
ATOM     12 CL   UNL     1       0.818   5.886   4.503  0.00  0.00    -0.082 Cl
BRANCH  10  13
ATOM     13  N   UNL     1       2.999   4.610   6.064  0.00  0.00    -0.357 N 
ATOM     14  H   UNL     1       2.649   5.503   6.206  0.00  0.00    +0.142 HD
ATOM     15  H   UNL     1       3.715   4.274   6.624  0.00  0.00    +0.142 HD
ENDBRANCH  10  13
ENDBRANCH   2   6
BRANCH   1  16
ATOM     16  C   UNL     1       2.180   0.020   1.230  0.00  0.00    +0.151 C 
BRANCH  16  23
ATOM     17  C   UNL     1      -0.009   1.536   0.007  0.00  0.00    +0.008 C 
ATOM     18  C   UNL     1       0.003   0.006   0.003  0.00  0.00    -0.009 C 
ATOM     19  C   UNL     1      -1.435  -0.515   0.016  0.00  0.00    +0.003 C 
ATOM     20  C   UNL     1      -1.423  -2.045   0.012  0.00  0.00    +0.000 C 
ATOM     21  C   UNL     1      -0.685  -2.553   1.252  0.00  0.00    +0.000 C 
ATOM     22  C   UNL     1       0.753  -2.032   1.239  0.00  0.00    +0.005 C 
ATOM     23  C   UNL     1       0.741  -0.502   1.243  0.00  0.00    +0.013 C 
ENDBRANCH  16  23
ENDBRANCH   1  16
TORSDOF 4
