REMARK  Name = ZINC39469670
REMARK  7 active torsions:
REMARK  status: ('A' for Active; 'I' for Inactive)
REMARK    1  A    between atoms: C_1  and  S_2
REMARK    2  A    between atoms: S_2  and  C_3
REMARK    3  A    between atoms: P_12  and  S_28
REMARK    4  A    between atoms: C_20  and  C_21
REMARK    5  A    between atoms: C_26  and  O_27
REMARK    6  A    between atoms: S_28  and  O_31
REMARK    7  A    between atoms: O_31  and  C_32
REMARK                            x       y       z     vdW  Elec       q    Type
REMARK                         _______ _______ _______ _____ _____    ______ ____
ROOT
ATOM      1  C   UNL     1       0.877  -0.427   1.472  0.00  0.00    +0.012 C 
ATOM      2  C   UNL     1       1.333   0.532   2.284  0.00  0.00    -0.008 C 
ATOM      3  C   UNL     1       2.070   0.162   3.543  0.00  0.00    +0.017 C 
ATOM      4  C   UNL     1       1.961   1.281   4.568  0.00  0.00    -0.003 C 
ATOM      5  C   UNL     1       2.107   0.741   5.997  0.00  0.00    -0.020 C 
ATOM      6  C   UNL     1       2.706   1.894   6.817  0.00  0.00    +0.158 C 
ATOM      7  O   UNL     1       2.859   1.505   8.191  0.00  0.00    -0.301 OA
ATOM      8  P   UNL     1       3.630   0.102   8.487  0.00  0.00    +0.431 P 
ATOM      9  O   UNL     1       3.275  -0.407   9.831  0.00  0.00    -0.246 OA
ATOM     10  N   UNL     1       3.089  -0.930   7.322  0.00  0.00    -0.271 NA
ATOM     11  N   UNL     1       2.953  -0.446   6.036  0.00  0.00    +0.398 N 
ATOM     12  C   UNL     1       2.367  -1.575   5.298  0.00  0.00    -0.046 C 
ATOM     13  C   UNL     1       1.469  -1.107   4.143  0.00  0.00    +0.005 C 
ATOM     14  C   UNL     1       1.389  -2.180   3.089  0.00  0.00    -0.015 C 
ATOM     15  C   UNL     1       1.107  -1.849   1.822  0.00  0.00    -0.005 C 
ATOM     16  H   UNL     1       2.880  -1.853   7.536  0.00  0.00    +0.113 HD
ATOM     17  H   UNL     1       3.860  -0.226   5.652  0.00  0.00    -0.055 HD
ENDROOT
BRANCH  15  18
ATOM     18  C   UNL     1       1.032  -2.897   0.776  0.00  0.00    +0.024 A 
ATOM     19  C   UNL     1      -0.077  -3.738   0.707  0.00  0.00    +0.012 A 
ATOM     20  C   UNL     1      -0.142  -4.712  -0.268  0.00  0.00    +0.001 A 
ATOM     21  C   UNL     1       0.890  -4.859  -1.177  0.00  0.00    +0.004 A 
ATOM     22  C   UNL     1       1.995  -4.031  -1.117  0.00  0.00    +0.046 A 
ATOM     23  C   UNL     1       2.071  -3.044  -0.148  0.00  0.00    +0.125 A 
BRANCH  23  24
ATOM     24  O   UNL     1       3.154  -2.225  -0.091  0.00  0.00    -0.506 OA
ATOM     25  H   UNL     1       3.870  -2.558   0.468  0.00  0.00    +0.292 HD
ENDBRANCH  23  24
ENDBRANCH  15  18
BRANCH   8  26
ATOM     26  S   UNL     1       5.727   0.366   8.330  0.00  0.00    +0.209 S 
ATOM     27  O   UNL     1       6.322  -0.858   8.741  0.00  0.00    -0.126 OA
ATOM     28  O   UNL     1       5.970   0.939   7.053  0.00  0.00    -0.126 OA
BRANCH  26  29
ATOM     29  O   UNL     1       6.128   1.412   9.360  0.00  0.00    -0.339 OA
BRANCH  29  30
ATOM     30  C   UNL     1       6.136   0.953  10.639  0.00  0.00    +0.157 A 
ATOM     31  C   UNL     1       4.988   1.034  11.414  0.00  0.00    +0.048 A 
ATOM     32  C   UNL     1       4.998   0.566  12.714  0.00  0.00    +0.004 A 
ATOM     33  C   UNL     1       6.153   0.019  13.243  0.00  0.00    +0.000 A 
ATOM     34  C   UNL     1       7.298  -0.062  12.474  0.00  0.00    +0.004 A 
ATOM     35  C   UNL     1       7.291   0.399  11.171  0.00  0.00    +0.048 A 
ENDBRANCH  29  30
ENDBRANCH  26  29
ENDBRANCH   8  26
BRANCH   1  37
ATOM     36  C   UNL     1      -0.022   1.810   0.012  0.00  0.00    +0.090 C 
ATOM     37  S   UNL     1       0.002  -0.004   0.002  0.00  0.00    -0.128 S 
ENDBRANCH   1  37
TORSDOF 6
