REMARK  Name = ZINC52468536
REMARK  10 active torsions:
REMARK  status: ('A' for Active; 'I' for Inactive)
REMARK    1  A    between atoms: C_1  and  C_2
REMARK    2  A    between atoms: C_2  and  O_3
REMARK    3  A    between atoms: O_3  and  C_4
REMARK    4  A    between atoms: C_4  and  C_5
REMARK    5  A    between atoms: C_10  and  N_11
REMARK    6  A    between atoms: N_14  and  C_15
REMARK    7  A    between atoms: C_15  and  C_17
REMARK    8  A    between atoms: C_15  and  C_18
REMARK    9  A    between atoms: C_21  and  S_24
REMARK   10  A    between atoms: S_24  and  N_27
REMARK                            x       y       z     vdW  Elec       q    Type
REMARK                         _______ _______ _______ _____ _____    ______ ____
ROOT
ATOM      1  N   UNL     1      -2.226  -4.657  -0.002  0.00  0.00    -0.269 N 
ATOM      2  C   UNL     1      -2.557  -5.960   0.096  0.00  0.00    +0.304 C 
ATOM      3  O   UNL     1      -3.726  -6.291   0.106  0.00  0.00    -0.252 OA
ATOM      4  N   UNL     1      -1.591  -6.896   0.183  0.00  0.00    -0.293 N 
ATOM      5  H   UNL     1      -1.294  -4.397  -0.075  0.00  0.00    +0.156 HD
ATOM      6  H   UNL     1      -0.657  -6.632   0.176  0.00  0.00    +0.151 HD
ENDROOT
BRANCH   1  12
ATOM      7  C   UNL     1      -2.996  -2.450   0.607  0.00  0.00    -0.001 A 
ATOM      8  C   UNL     1      -3.984  -1.485   0.604  0.00  0.00    +0.008 A 
ATOM      9  C   UNL     1      -5.203  -1.743   0.005  0.00  0.00    +0.000 A 
ATOM     10  C   UNL     1      -5.438  -2.968  -0.592  0.00  0.00    +0.002 A 
ATOM     11  C   UNL     1      -4.455  -3.937  -0.593  0.00  0.00    +0.024 A 
ATOM     12  C   UNL     1      -3.227  -3.679   0.002  0.00  0.00    +0.040 A 
BRANCH   7  13
ATOM     13  C   UNL     1      -1.668  -2.168   1.260  0.00  0.00    +0.196 C 
BRANCH  13  14
ATOM     14  O   UNL     1      -1.676  -0.848   1.806  0.00  0.00    -0.375 OA
BRANCH  14  16
ATOM     15  C   UNL     1      -0.578   0.947   2.995  0.00  0.00    +0.034 C 
ATOM     16  C   UNL     1      -0.456  -0.478   2.451  0.00  0.00    +0.157 C 
ENDBRANCH  14  16
ENDBRANCH  13  14
ENDBRANCH   7  13
ENDBRANCH   1  12
BRANCH   4  17
ATOM     17  C   UNL     1      -1.950  -8.312   0.290  0.00  0.00    +0.102 C 
ATOM     18  C   UNL     1      -2.177  -8.887  -1.110  0.00  0.00    +0.033 C 
BRANCH  17  19
ATOM     19  C   UNL     1      -0.834  -9.064   0.967  0.00  0.00    -0.027 A 
ATOM     20  C   UNL     1       0.482  -8.761   0.673  0.00  0.00    +0.007 A 
ATOM     21  C   UNL     1       1.507  -9.451   1.294  0.00  0.00    +0.029 A 
ATOM     22  C   UNL     1       1.215 -10.444   2.210  0.00  0.00    +0.105 A 
ATOM     23  C   UNL     1      -0.102 -10.747   2.506  0.00  0.00    +0.029 A 
ATOM     24  C   UNL     1      -1.125 -10.054   1.887  0.00  0.00    +0.007 A 
BRANCH  22  25
ATOM     25  S   UNL     1       2.520 -11.324   3.001  0.00  0.00    +0.056 S 
ATOM     26  O   UNL     1       1.979 -12.573   3.408  0.00  0.00    -0.153 OA
ATOM     27  O   UNL     1       3.652 -11.226   2.148  0.00  0.00    -0.153 OA
BRANCH  25  28
ATOM     28  N   UNL     1       2.898 -10.498   4.386  0.00  0.00    -0.204 NA
ATOM     29  H   UNL     1       3.240 -10.977   5.158  0.00  0.00    +0.144 HD
ATOM     30  H   UNL     1       2.779  -9.537   4.425  0.00  0.00    +0.144 HD
ENDBRANCH  25  28
ENDBRANCH  22  25
ENDBRANCH  17  19
ENDBRANCH   4  17
TORSDOF 8
