REMARK  Name = ZINC38806360
REMARK  12 active torsions:
REMARK  status: ('A' for Active; 'I' for Inactive)
REMARK    1  A    between atoms: C_1  and  C_2
REMARK    2  A    between atoms: C_2  and  O_3
REMARK    3  A    between atoms: O_3  and  C_4
REMARK    4  A    between atoms: C_4  and  C_6
REMARK    5  A    between atoms: C_10  and  N_11
REMARK    6  A    between atoms: C_12  and  C_14
REMARK    7  A    between atoms: C_15  and  C_20
REMARK    8  A    between atoms: C_17  and  C_19
REMARK    9  A    between atoms: C_21  and  C_27
REMARK   10  A    between atoms: C_21  and  C_28
REMARK   11  A    between atoms: C_23  and  C_25
REMARK   12  A    between atoms: C_23  and  C_26
REMARK                            x       y       z     vdW  Elec       q    Type
REMARK                         _______ _______ _______ _____ _____    ______ ____
ROOT
ATOM      1  C   UNL     1       1.449  -2.344  -2.516  0.00  0.00    +0.091 A 
ATOM      2  C   UNL     1       2.869  -2.617  -2.533  0.00  0.00    -0.024 A 
ATOM      3  C   UNL     1       3.334  -3.113  -3.703  0.00  0.00    -0.016 A 
ATOM      4  S   UNL     1       1.904  -3.216  -4.737  0.00  0.00    -0.079 S 
ATOM      5  C   UNL     1       0.741  -2.622  -3.681  0.00  0.00    +0.087 A 
ATOM      6  C   UNL     1       4.749  -3.470  -4.013  0.00  0.00    -0.041 C 
ATOM      7  N   UNL     1       5.607  -3.420  -2.830  0.00  0.00    +0.389 N 
ATOM      8  C   UNL     1       4.941  -3.483  -1.537  0.00  0.00    -0.069 C 
ATOM      9  C   UNL     1       3.854  -2.412  -1.392  0.00  0.00    +0.024 C 
ATOM     10  C   UNL     1       4.329  -4.865  -1.298  0.00  0.00    -0.010 C 
ATOM     11  C   UNL     1       5.992  -3.236  -0.438  0.00  0.00    -0.010 C 
ATOM     12  C   UNL     1       4.796  -4.870  -4.642  0.00  0.00    -0.005 C 
ATOM     13  C   UNL     1       5.284  -2.467  -5.053  0.00  0.00    -0.005 C 
ATOM     14  H   UNL     1       6.281  -4.186  -2.885  0.00  0.00    -0.084 HD
ATOM     15  H   UNL     1       6.162  -2.562  -2.867  0.00  0.00    -0.084 HD
ENDROOT
BRANCH   5  16
ATOM     16  N   UNL     1      -0.612  -2.447  -3.914  0.00  0.00    -0.275 N 
ATOM     17  C   UNL     1      -1.137  -2.771  -5.112  0.00  0.00    +0.257 C 
ATOM     18  O   UNL     1      -0.422  -3.219  -5.989  0.00  0.00    -0.269 OA
ATOM     19  H   UNL     1      -1.183  -2.090  -3.215  0.00  0.00    +0.156 HD
BRANCH  17  20
ATOM     20  C   UNL     1      -2.571  -2.585  -5.359  0.00  0.00    +0.097 A 
ATOM     21  C   UNL     1      -3.317  -2.853  -6.498  0.00  0.00    +0.058 A 
ATOM     22  N   UNL     1      -4.597  -2.583  -6.429  0.00  0.00    -0.249 NA
ATOM     23  C   UNL     1      -5.140  -2.086  -5.342  0.00  0.00    +0.076 A 
ATOM     24  S   UNL     1      -3.845  -1.959  -4.276  0.00  0.00    -0.068 S 
ATOM     25  C   UNL     1      -6.583  -1.723  -5.103  0.00  0.00    +0.073 C 
ATOM     26  C   UNL     1      -2.690  -3.422  -7.744  0.00  0.00    +0.067 C 
ENDBRANCH  17  20
ENDBRANCH   5  16
BRANCH   1  27
ATOM     27  C   UNL     1       0.776  -1.800  -1.335  0.00  0.00    +0.342 C 
ATOM     28  O   UNL     1       0.312  -2.552  -0.499  0.00  0.00    -0.245 OA
BRANCH  27  29
ATOM     29  O   UNL     1       0.671  -0.465  -1.174  0.00  0.00    -0.461 OA
BRANCH  29  31
ATOM     30  C   UNL     1      -0.019   1.526   0.010  0.00  0.00    +0.048 C 
ATOM     31  C   UNL     1       0.002  -0.004   0.002  0.00  0.00    +0.229 C 
ENDBRANCH  29  31
ENDBRANCH  27  29
ENDBRANCH   1  27
TORSDOF 5
