REMARK  Name = ZINC33587267
REMARK  14 active torsions:
REMARK  status: ('A' for Active; 'I' for Inactive)
REMARK    1  A    between atoms: C_1  and  C_2
REMARK    2  A    between atoms: C_2  and  O_3
REMARK    3  A    between atoms: O_3  and  C_4
REMARK    4  A    between atoms: C_4  and  C_6
REMARK    5  A    between atoms: C_7  and  C_40
REMARK    6  A    between atoms: C_11  and  C_20
REMARK    7  A    between atoms: C_12  and  O_19
REMARK    8  A    between atoms: C_20  and  C_22
REMARK    9  A    between atoms: C_20  and  N_29
REMARK   10  A    between atoms: C_25  and  C_28
REMARK   11  A    between atoms: C_32  and  C_35
REMARK   12  A    between atoms: C_35  and  O_37
REMARK   13  A    between atoms: O_37  and  C_38
REMARK   14  A    between atoms: C_38  and  C_39
REMARK                            x       y       z     vdW  Elec       q    Type
REMARK                         _______ _______ _______ _____ _____    ______ ____
ROOT
ATOM      1  C   UNL     1      -0.818  -2.116   2.280  0.00  0.00    +0.108 A 
ATOM      2  C   UNL     1      -1.542  -3.134   2.824  0.00  0.00    +0.117 A 
ATOM      3  O   UNL     1      -2.728  -3.218   2.214  0.00  0.00    -0.459 OA
ATOM      4  C   UNL     1      -2.853  -2.281   1.253  0.00  0.00    +0.144 A 
ATOM      5  C   UNL     1      -1.677  -1.534   1.228  0.00  0.00    +0.040 A 
ATOM      6  C   UNL     1      -1.514  -0.477   0.321  0.00  0.00    -0.003 A 
ATOM      7  C   UNL     1      -2.505  -0.153  -0.554  0.00  0.00    +0.127 A 
ATOM      8  C   UNL     1      -3.710  -0.891  -0.562  0.00  0.00    +0.027 A 
ATOM      9  C   UNL     1      -3.888  -1.961   0.348  0.00  0.00    +0.029 A 
ATOM     10  C   UNL     1      -5.090  -2.685   0.335  0.00  0.00    +0.012 A 
ATOM     11  C   UNL     1      -6.069  -2.352  -0.551  0.00  0.00    +0.001 A 
ATOM     12  C   UNL     1      -5.895  -1.300  -1.446  0.00  0.00    +0.001 A 
ATOM     13  C   UNL     1      -4.742  -0.576  -1.461  0.00  0.00    +0.012 A 
ATOM     14  C   UNL     1      -1.075  -4.029   3.944  0.00  0.00    +0.087 C 
ENDROOT
BRANCH   1  15
ATOM     15  C   UNL     1       0.534  -1.686   2.659  0.00  0.00    +0.343 C 
ATOM     16  O   UNL     1       0.684  -0.841   3.521  0.00  0.00    -0.245 OA
BRANCH  15  17
ATOM     17  O   UNL     1       1.609  -2.228   2.053  0.00  0.00    -0.461 OA
BRANCH  17  19
ATOM     18  C   UNL     1       4.003  -2.480   1.684  0.00  0.00    +0.048 C 
ATOM     19  C   UNL     1       2.915  -1.756   2.478  0.00  0.00    +0.229 C 
ENDBRANCH  17  19
ENDBRANCH  15  17
ENDBRANCH   1  15
BRANCH   7  20
ATOM     20  O   UNL     1      -2.334   0.877  -1.424  0.00  0.00    -0.506 OA
ATOM     21  H   UNL     1      -3.135   1.139  -2.131  0.00  0.00    +0.292 HD
ENDBRANCH   7  20
BRANCH   6  22
ATOM     22  C   UNL     1      -0.230   0.313   0.319  0.00  0.00    -0.002 C 
BRANCH  22  23
ATOM     23  C   UNL     1       0.570  -0.032  -0.911  0.00  0.00    -0.057 A 
ATOM     24  C   UNL     1       0.355   0.657  -2.090  0.00  0.00    +0.002 A 
ATOM     25  C   UNL     1       1.092   0.344  -3.217  0.00  0.00    +0.003 A 
ATOM     26  C   UNL     1       2.036  -0.664  -3.168  0.00  0.00    -0.050 A 
ATOM     27  C   UNL     1       2.247  -1.357  -1.990  0.00  0.00    +0.003 A 
ATOM     28  C   UNL     1       1.514  -1.040  -0.862  0.00  0.00    +0.002 A 
ATOM     29  C   UNL     1       2.836  -1.008  -4.398  0.00  0.00    +0.044 C 
ENDBRANCH  22  23
BRANCH  22  30
ATOM     30  N   UNL     1      -0.539   1.749   0.316  0.00  0.00    +0.387 N 
ATOM     31  C   UNL     1       0.690   2.551   0.379  0.00  0.00    -0.077 C 
ATOM     32  C   UNL     1       0.341   4.034   0.228  0.00  0.00    -0.004 C 
ATOM     33  C   UNL     1      -0.618   4.444   1.349  0.00  0.00    +0.094 C 
ATOM     34  C   UNL     1      -1.867   3.561   1.291  0.00  0.00    -0.004 C 
ATOM     35  C   UNL     1      -1.454   2.093   1.411  0.00  0.00    -0.077 C 
ATOM     36  H   UNL     1      -1.046   1.986  -0.631  0.00  0.00    -0.080 HD
BRANCH  33  37
ATOM     37  C   UNL     1      -1.012   5.888   1.173  0.00  0.00    +0.310 C 
ATOM     38  O   UNL     1      -2.174   6.182   1.016  0.00  0.00    -0.251 OA
BRANCH  37  39
ATOM     39  O   UNL     1      -0.074   6.847   1.189  0.00  0.00    -0.465 OA
BRANCH  39  40
ATOM     40  C   UNL     1      -0.526   8.216   1.013  0.00  0.00    +0.229 C 
ATOM     41  C   UNL     1       0.676   9.161   1.060  0.00  0.00    +0.048 C 
ENDBRANCH  39  40
ENDBRANCH  37  39
ENDBRANCH  33  37
ENDBRANCH  22  30
ENDBRANCH   6  22
TORSDOF 10
