REMARK  Name = ZINC63573482
REMARK  5 active torsions:
REMARK  status: ('A' for Active; 'I' for Inactive)
REMARK    1  A    between atoms: C_1  and  C_2
REMARK    2  A    between atoms: C_5  and  C_8
REMARK    3  A    between atoms: C_15  and  O_20
REMARK    4  A    between atoms: O_20  and  C_21
REMARK    5  A    between atoms: N_27  and  C_28
REMARK                            x       y       z     vdW  Elec       q    Type
REMARK                         _______ _______ _______ _____ _____    ______ ____
ROOT
ATOM      1  C   UNL     1      -0.774  -4.588  -0.410  0.00  0.00    +0.134 C 
ATOM      2  C   UNL     1       0.738  -4.780  -0.566  0.00  0.00    +0.131 C 
ATOM      3  C   UNL     1       1.055  -6.176  -0.045  0.00  0.00    -0.035 C 
ATOM      4  C   UNL     1       1.672  -6.814  -1.032  0.00  0.00    +0.003 A 
ATOM      5  C   UNL     1       2.275  -8.153  -1.110  0.00  0.00    +0.055 A 
ATOM      6  C   UNL     1       2.828  -8.505  -2.304  0.00  0.00    +0.121 A 
ATOM      7  C   UNL     1       2.849  -7.674  -3.433  0.00  0.00    +0.047 A 
ATOM      8  C   UNL     1       2.328  -6.421  -3.470  0.00  0.00    +0.029 A 
ATOM      9  C   UNL     1       1.704  -5.926  -2.235  0.00  0.00    +0.043 A 
ATOM     10  N   UNL     1       1.147  -4.759  -1.972  0.00  0.00    -0.375 N 
ATOM     11  C   UNL     1       0.623  -6.648   1.322  0.00  0.00    +0.052 C 
ATOM     12  C   UNL     1      -0.881  -6.342   1.441  0.00  0.00    +0.114 C 
ATOM     13  N   UNL     1      -1.141  -4.982   0.959  0.00  0.00    -0.276 N 
ATOM     14  C   UNL     1      -1.721  -4.083   1.779  0.00  0.00    +0.307 C 
ATOM     15  O   UNL     1      -2.065  -2.999   1.348  0.00  0.00    -0.252 OA
ATOM     16  N   UNL     1      -1.919  -4.385   3.078  0.00  0.00    -0.267 N 
ATOM     17  H   UNL     1      -1.571  -5.214   3.442  0.00  0.00    +0.156 HD
ATOM     18  H   UNL     1       1.021  -4.020  -2.588  0.00  0.00    +0.160 HD
ENDROOT
BRANCH  16  19
ATOM     19  C   UNL     1      -2.627  -3.501   3.902  0.00  0.00    +0.073 A 
ATOM     20  C   UNL     1      -2.612  -2.139   3.636  0.00  0.00    +0.064 A 
ATOM     21  C   UNL     1      -3.312  -1.268   4.452  0.00  0.00    +0.125 A 
ATOM     22  C   UNL     1      -4.027  -1.754   5.533  0.00  0.00    +0.041 A 
ATOM     23  C   UNL     1      -4.044  -3.111   5.801  0.00  0.00    +0.043 A 
ATOM     24  C   UNL     1      -3.350  -3.986   4.986  0.00  0.00    +0.145 A 
ATOM     25  F   UNL     1      -3.371  -5.312   5.245  0.00  0.00    -0.204 F 
ATOM     26  F   UNL     1      -3.297   0.058   4.194  0.00  0.00    -0.205 F 
ENDBRANCH  16  19
BRANCH   1  31
ATOM     27  C   UNL     1      -2.141   0.957  -1.288  0.00  0.00    +0.044 C 
ATOM     28  C   UNL     1      -1.784  -0.489  -1.059  0.00  0.00    -0.050 A 
ATOM     29  C   UNL     1      -0.677  -0.816  -0.299  0.00  0.00    +0.004 A 
ATOM     30  C   UNL     1      -0.350  -2.143  -0.089  0.00  0.00    +0.006 A 
ATOM     31  C   UNL     1      -1.131  -3.142  -0.638  0.00  0.00    -0.025 A 
ATOM     32  C   UNL     1      -2.240  -2.815  -1.397  0.00  0.00    +0.006 A 
ATOM     33  C   UNL     1      -2.569  -1.488  -1.603  0.00  0.00    +0.004 A 
ENDBRANCH   1  31
BRANCH   6  34
ATOM     34  O   UNL     1       3.393  -9.737  -2.407  0.00  0.00    -0.495 OA
ATOM     35  C   UNL     1       3.967 -10.084  -3.669  0.00  0.00    +0.277 C 
ENDBRANCH   6  34
TORSDOF 3
