REMARK  Name = ZINC14016580
REMARK  9 active torsions:
REMARK  status: ('A' for Active; 'I' for Inactive)
REMARK    1  A    between atoms: C_1  and  C_2
REMARK    2  A    between atoms: C_2  and  O_3
REMARK    3  A    between atoms: O_3  and  C_4
REMARK    4  A    between atoms: C_4  and  C_6
REMARK    5  A    between atoms: C_10  and  N_11
REMARK    6  A    between atoms: C_12  and  C_14
REMARK    7  A    between atoms: N_19  and  S_21
REMARK    8  A    between atoms: S_21  and  C_24
REMARK    9  A    between atoms: C_32  and  C_36
REMARK                            x       y       z     vdW  Elec       q    Type
REMARK                         _______ _______ _______ _____ _____    ______ ____
ROOT
ATOM      1  N   UNL     1      -2.482   5.630   0.943  0.00  0.00    -0.279 N 
ATOM      2  C   UNL     1      -1.876   4.987  -0.075  0.00  0.00    +0.222 C 
ATOM      3  O   UNL     1      -1.463   5.614  -1.027  0.00  0.00    -0.275 OA
ATOM      4  H   UNL     1      -2.813   5.130   1.705  0.00  0.00    +0.155 HD
ENDROOT
BRANCH   1   9
ATOM      5  C   UNL     1      -3.229   7.840   1.839  0.00  0.00    +0.091 A 
ATOM      6  C   UNL     1      -3.254   9.264   1.553  0.00  0.00    -0.021 A 
ATOM      7  C   UNL     1      -2.693   9.625   0.379  0.00  0.00    -0.004 A 
ATOM      8  S   UNL     1      -2.132   8.108  -0.340  0.00  0.00    -0.077 S 
ATOM      9  C   UNL     1      -2.634   7.008   0.900  0.00  0.00    +0.086 A 
ATOM     10  C   UNL     1      -2.578  11.010  -0.179  0.00  0.00    +0.046 C 
ATOM     11  C   UNL     1      -2.858  12.012   0.950  0.00  0.00    -0.009 C 
ATOM     12  C   UNL     1      -4.131  11.583   1.686  0.00  0.00    +0.008 C 
ATOM     13  C   UNL     1      -3.865  10.305   2.484  0.00  0.00    +0.037 C 
ATOM     14  C   UNL     1      -3.054  13.410   0.360  0.00  0.00    +0.008 C 
BRANCH   5  15
ATOM     15  C   UNL     1      -3.807   7.302   3.073  0.00  0.00    +0.342 C 
ATOM     16  O   UNL     1      -3.119   7.196   4.071  0.00  0.00    -0.245 OA
BRANCH  15  17
ATOM     17  O   UNL     1      -5.101   6.925   3.103  0.00  0.00    -0.461 OA
BRANCH  17  19
ATOM     18  C   UNL     1      -7.082   6.029   4.201  0.00  0.00    +0.048 C 
ATOM     19  C   UNL     1      -5.606   6.401   4.360  0.00  0.00    +0.229 C 
ENDBRANCH  17  19
ENDBRANCH  15  17
ENDBRANCH   5  15
ENDBRANCH   1   9
BRANCH   2  20
ATOM     20  C   UNL     1      -1.712   3.490  -0.028  0.00  0.00    +0.091 C 
ATOM     21  C   UNL     1      -0.878   3.105   1.196  0.00  0.00    +0.015 C 
ATOM     22  C   UNL     1      -0.736   1.583   1.264  0.00  0.00    +0.018 C 
ATOM     23  C   UNL     1      -0.013   1.086   0.008  0.00  0.00    +0.109 C 
ATOM     24  N   UNL     1      -0.729   1.575  -1.178  0.00  0.00    -0.176 NA
ATOM     25  C   UNL     1      -0.997   3.015  -1.297  0.00  0.00    +0.122 C 
BRANCH  24  26
ATOM     26  S   UNL     1      -1.224   0.524  -2.358  0.00  0.00    +0.061 S 
ATOM     27  O   UNL     1      -1.350   1.284  -3.552  0.00  0.00    -0.153 OA
ATOM     28  O   UNL     1      -0.381  -0.616  -2.267  0.00  0.00    -0.153 OA
BRANCH  26  29
ATOM     29  C   UNL     1      -2.846  -0.014  -1.929  0.00  0.00    +0.106 A 
ATOM     30  C   UNL     1      -3.016  -1.141  -1.148  0.00  0.00    +0.030 A 
ATOM     31  C   UNL     1      -4.288  -1.561  -0.807  0.00  0.00    +0.022 A 
ATOM     32  C   UNL     1      -5.392  -0.858  -1.257  0.00  0.00    +0.041 A 
ATOM     33  C   UNL     1      -5.221   0.267  -2.043  0.00  0.00    +0.022 A 
ATOM     34  C   UNL     1      -3.948   0.689  -2.379  0.00  0.00    +0.030 A 
ATOM     35 CL   UNL     1      -6.990  -1.388  -0.834  0.00  0.00    -0.084 Cl
ENDBRANCH  26  29
ENDBRANCH  24  26
ENDBRANCH   2  20
TORSDOF 7
