REMARK  Name = ZINC04395325
REMARK  10 active torsions:
REMARK  status: ('A' for Active; 'I' for Inactive)
REMARK    1  A    between atoms: C_1  and  N_2
REMARK    2  A    between atoms: N_2  and  C_3
REMARK    3  A    between atoms: N_2  and  C_4
REMARK    4  A    between atoms: C_7  and  C_10
REMARK    5  A    between atoms: C_14  and  C_17
REMARK    6  A    between atoms: C_17  and  S_18
REMARK    7  A    between atoms: S_18  and  C_19
REMARK    8  A    between atoms: C_20  and  C_34
REMARK    9  A    between atoms: C_21  and  C_30
REMARK   10  A    between atoms: C_23  and  C_25
REMARK                            x       y       z     vdW  Elec       q    Type
REMARK                         _______ _______ _______ _____ _____    ______ ____
ROOT
ATOM      1  S   UNL     1       3.743  -3.819  -7.343  0.00  0.00    -0.102 S 
ENDROOT
BRANCH   1   2
ATOM      2  C   UNL     1       5.057  -3.179  -8.327  0.00  0.00    +0.116 A 
ATOM      3  C   UNL     1       6.310  -3.822  -8.324  0.00  0.00    +0.095 A 
ATOM      4  C   UNL     1       7.345  -3.300  -9.113  0.00  0.00    +0.077 A 
ATOM      5  C   UNL     1       7.094  -2.171  -9.865  0.00  0.00    +0.042 A 
ATOM      6  C   UNL     1       5.825  -1.584  -9.820  0.00  0.00    +0.079 A 
ATOM      7  N   UNL     1       4.858  -2.102  -9.068  0.00  0.00    -0.239 NA
BRANCH   6   8
ATOM      8  C   UNL     1       5.554  -0.378 -10.623  0.00  0.00    +0.038 A 
ATOM      9  C   UNL     1       4.398   0.353 -10.721  0.00  0.00    +0.017 A 
ATOM     10  C   UNL     1       4.380   1.455 -11.544  0.00  0.00    +0.008 A 
ATOM     11  C   UNL     1       5.505   1.786 -12.232  0.00  0.00    +0.046 A 
ATOM     12  S   UNL     1       6.649   0.517 -11.713  0.00  0.00    -0.095 S 
ENDBRANCH   6   8
BRANCH   4  13
ATOM     13  C   UNL     1       8.701  -3.957  -9.139  0.00  0.00    +0.419 C 
ATOM     14  F   UNL     1       9.547  -3.246  -9.997  0.00  0.00    -0.166 F 
ATOM     15  F   UNL     1       9.242  -3.960  -7.849  0.00  0.00    -0.166 F 
ATOM     16  F   UNL     1       8.573  -5.273  -9.595  0.00  0.00    -0.166 F 
ENDBRANCH   4  13
BRANCH   3  17
ATOM     17  C   UNL     1       6.524  -4.992  -7.527  0.00  0.00    +0.102 C 
ATOM     18  N   UNL     1       6.694  -5.920  -6.894  0.00  0.00    -0.191 NA
ENDBRANCH   3  17
ENDBRANCH   1   2
BRANCH   1  19
ATOM     19  C   UNL     1       2.361  -2.692  -7.671  0.00  0.00    +0.105 C 
BRANCH  19  23
ATOM     20  C   UNL     1      -0.006  -2.813  -4.924  0.00  0.00    +0.094 C 
ATOM     21  N   UNL     1      -0.794  -2.072  -5.934  0.00  0.00    +0.401 N 
ATOM     22  C   UNL     1      -0.091  -2.272  -7.222  0.00  0.00    -0.046 C 
ATOM     23  C   UNL     1       1.137  -3.138  -6.868  0.00  0.00    +0.110 C 
ATOM     24  O   UNL     1       1.334  -2.892  -5.455  0.00  0.00    -0.388 OA
ATOM     25  H   UNL     1      -1.730  -2.445  -5.988  0.00  0.00    -0.081 HD
ATOM     26  H   UNL     1      -0.823  -1.090  -5.702  0.00  0.00    -0.081 HD
BRANCH  20  30
ATOM     27  C   UNL     1      -0.002  -0.697  -1.211  0.00  0.00    +0.029 A 
ATOM     28  C   UNL     1      -1.170  -0.794  -1.955  0.00  0.00    +0.023 A 
ATOM     29  C   UNL     1      -1.168  -1.478  -3.155  0.00  0.00    +0.006 A 
ATOM     30  C   UNL     1      -0.005  -2.066  -3.615  0.00  0.00    -0.036 A 
ATOM     31  C   UNL     1       1.161  -1.972  -2.876  0.00  0.00    +0.006 A 
ATOM     32  C   UNL     1       1.167  -1.285  -1.679  0.00  0.00    +0.023 A 
BRANCH  27  34
ATOM     33  C   UNL     1       1.235   0.101   0.784  0.00  0.00    +0.129 C 
ATOM     34  N   UNL     1      -0.000  -0.006   0.003  0.00  0.00    -0.336 N 
ATOM     35  C   UNL     1      -1.234   0.613   0.495  0.00  0.00    +0.129 C 
ENDBRANCH  27  34
ENDBRANCH  20  30
ENDBRANCH  19  23
ENDBRANCH   1  19
TORSDOF 8
