REMARK  Name = ZINC63383752
REMARK  7 active torsions:
REMARK  status: ('A' for Active; 'I' for Inactive)
REMARK    1  A    between atoms: C_1  and  O_2
REMARK    2  A    between atoms: O_2  and  C_3
REMARK    3  A    between atoms: C_3  and  C_4
REMARK    4  A    between atoms: C_4  and  C_5
REMARK    5  A    between atoms: C_5  and  N_6
REMARK    6  A    between atoms: C_11  and  C_29
REMARK    7  A    between atoms: C_29  and  C_30
REMARK                            x       y       z     vdW  Elec       q    Type
REMARK                         _______ _______ _______ _____ _____    ______ ____
ROOT
ATOM      1  N   UNL     1      -2.408  -4.226   0.002  0.00  0.00    -0.241 N 
ATOM      2  C   UNL     1      -2.346  -4.940  -1.128  0.00  0.00    +0.227 C 
ATOM      3  O   UNL     1      -2.393  -4.482  -2.249  0.00  0.00    -0.275 OA
ATOM      4  C   UNL     1      -2.208  -6.407  -0.788  0.00  0.00    +0.107 C 
ATOM      5  C   UNL     1      -3.503  -7.144  -1.194  0.00  0.00    +0.072 C 
ATOM      6  N   UNL     1      -3.830  -8.008  -0.028  0.00  0.00    -0.295 NA
ATOM      7  C   UNL     1      -3.492  -7.177   1.143  0.00  0.00    +0.136 C 
ATOM      8  C   UNL     1      -2.197  -6.416   0.766  0.00  0.00    +0.122 C 
ATOM      9  C   UNL     1      -2.330  -4.953   1.123  0.00  0.00    +0.228 C 
ATOM     10  O   UNL     1      -2.363  -4.508   2.250  0.00  0.00    -0.275 OA
ATOM     11  C   UNL     1      -4.612  -6.239   1.493  0.00  0.00    +0.005 A 
ATOM     12  C   UNL     1      -5.258  -5.235   0.806  0.00  0.00    +0.027 A 
ATOM     13  C   UNL     1      -6.284  -4.530   1.413  0.00  0.00    +0.041 A 
ATOM     14  C   UNL     1      -6.657  -4.837   2.710  0.00  0.00    +0.022 A 
ATOM     15  C   UNL     1      -6.011  -5.840   3.401  0.00  0.00    +0.025 A 
ATOM     16  C   UNL     1      -4.978  -6.555   2.798  0.00  0.00    +0.039 A 
ATOM     17  N   UNL     1      -4.186  -7.598   3.283  0.00  0.00    -0.283 N 
ATOM     18  C   UNL     1      -3.288  -8.019   2.372  0.00  0.00    +0.243 C 
ATOM     19  O   UNL     1      -2.473  -8.906   2.515  0.00  0.00    -0.273 OA
ATOM     20 CL   UNL     1      -7.100  -3.265   0.548  0.00  0.00    -0.084 Cl
ATOM     21  H   UNL     1      -4.808  -8.256  -0.025  0.00  0.00    +0.124 HD
ATOM     22  H   UNL     1      -4.271  -7.974   4.173  0.00  0.00    +0.155 HD
ENDROOT
BRANCH   1  23
ATOM     23  C   UNL     1      -2.543  -2.768   0.011  0.00  0.00    +0.118 C 
BRANCH  23  24
ATOM     24  C   UNL     1      -1.154  -2.126   0.002  0.00  0.00    +0.047 C 
BRANCH  24  25
ATOM     25  C   UNL     1      -1.295  -0.603   0.011  0.00  0.00    +0.161 C 
BRANCH  25  27
ATOM     26  C   UNL     1      -0.017   1.425   0.010  0.00  0.00    +0.193 C 
ATOM     27  O   UNL     1       0.002  -0.004   0.002  0.00  0.00    -0.383 OA
ENDBRANCH  25  27
ENDBRANCH  24  25
ENDBRANCH  23  24
ENDBRANCH   1  23
BRANCH   5  28
ATOM     28  C   UNL     1      -3.262  -7.997  -2.441  0.00  0.00    +0.052 C 
BRANCH  28  29
ATOM     29  C   UNL     1      -4.563  -8.609  -2.890  0.00  0.00    -0.040 C 
ATOM     30  C   UNL     1      -5.407  -8.127  -3.831  0.00  0.00    -0.001 A 
ATOM     31  C   UNL     1      -5.367  -6.933  -4.684  0.00  0.00    +0.010 A 
ATOM     32  C   UNL     1      -6.382  -6.712  -5.550  0.00  0.00    +0.001 A 
ATOM     33  C   UNL     1      -7.468  -7.591  -5.652  0.00  0.00    +0.002 A 
ATOM     34  C   UNL     1      -7.576  -8.708  -4.902  0.00  0.00    +0.026 A 
ATOM     35  C   UNL     1      -6.565  -9.040  -3.959  0.00  0.00    +0.043 A 
ATOM     36  N   UNL     1      -6.442 -10.048  -3.129  0.00  0.00    -0.380 N 
ATOM     37  C   UNL     1      -5.188  -9.891  -2.385  0.00  0.00    +0.144 C 
ATOM     38  H   UNL     1      -7.074 -10.777  -3.027  0.00  0.00    +0.160 HD
ENDBRANCH  28  29
ENDBRANCH   5  28
TORSDOF 6
