REMARK  Name = ZINC21237243
REMARK  5 active torsions:
REMARK  status: ('A' for Active; 'I' for Inactive)
REMARK    1  A    between atoms: C_1  and  N_2
REMARK    2  A    between atoms: N_2  and  C_3
REMARK    3  A    between atoms: N_2  and  C_4
REMARK    4  A    between atoms: C_7  and  C_10
REMARK    5  A    between atoms: C_15  and  C_25
REMARK                            x       y       z     vdW  Elec       q    Type
REMARK                         _______ _______ _______ _____ _____    ______ ____
ROOT
ATOM      1  C   UNL     1       3.341   1.959   4.167  0.00  0.00    +0.032 C 
ATOM      2  C   UNL     1       3.914   0.671   3.580  0.00  0.00    +0.059 C 
ATOM      3  C   UNL     1       3.360   0.444   2.184  0.00  0.00    +0.017 C 
ATOM      4  C   UNL     1       3.055   1.488   1.392  0.00  0.00    +0.036 C 
ATOM      5  C   UNL     1       2.512   1.403  -0.014  0.00  0.00    +0.138 C 
ATOM      6  N   UNL     1       2.565   0.082  -0.602  0.00  0.00    -0.331 N 
ATOM      7  C   UNL     1       1.817  -0.969  -0.074  0.00  0.00    +0.049 A 
ATOM      8  C   UNL     1       0.759  -1.526  -0.774  0.00  0.00    +0.025 A 
ATOM      9  C   UNL     1      -0.027  -2.489  -0.164  0.00  0.00    +0.002 A 
ATOM     10  C   UNL     1       0.241  -2.894   1.131  0.00  0.00    +0.002 A 
ATOM     11  C   UNL     1       1.312  -2.355   1.824  0.00  0.00    +0.025 A 
ATOM     12  C   UNL     1       2.109  -1.405   1.209  0.00  0.00    +0.052 A 
ATOM     13  N   UNL     1       3.227  -0.859   1.828  0.00  0.00    -0.316 N 
ATOM     14  C   UNL     1       3.234   2.811   1.859  0.00  0.00    +0.163 C 
ATOM     15  O   UNL     1       2.969   3.736   1.117  0.00  0.00    -0.292 OA
ATOM     16  C   UNL     1       3.740   3.113   3.238  0.00  0.00    +0.088 C 
ATOM     17  H   UNL     1       3.202  -0.104  -1.479  0.00  0.00    +0.147 HD
ATOM     18  H   UNL     1       4.043  -1.569   2.026  0.00  0.00    +0.152 HD
ENDROOT
BRANCH   5  19
ATOM     19  C   UNL     1       1.076   1.861   0.002  0.00  0.00    +0.002 A 
ATOM     20  C   UNL     1       0.289   1.986   1.082  0.00  0.00    +0.089 A 
ATOM     21  N   UNL     1      -0.952   2.422   0.708  0.00  0.00    -0.360 N 
ATOM     22  H   UNL     1      -1.734   2.575   1.466  0.00  0.00    +0.165 HD
ATOM     23  C   UNL     1      -0.993   2.602  -0.657  0.00  0.00    +0.047 A 
ATOM     24  C   UNL     1       0.274   2.255  -1.159  0.00  0.00    +0.005 A 
ATOM     25  C   UNL     1       0.526   2.335  -2.530  0.00  0.00    +0.010 A 
ATOM     26  C   UNL     1      -0.462   2.751  -3.378  0.00  0.00    +0.001 A 
ATOM     27  C   UNL     1      -1.713   3.095  -2.888  0.00  0.00    +0.002 A 
ATOM     28  C   UNL     1      -1.983   3.023  -1.538  0.00  0.00    +0.026 A 
ENDBRANCH   5  19
BRANCH   1  32
ATOM     29  C   UNL     1       4.951   2.615   8.071  0.00  0.00    +0.029 A 
ATOM     30  C   UNL     1       3.580   2.474   7.898  0.00  0.00    +0.023 A 
ATOM     31  C   UNL     1       3.063   2.263   6.635  0.00  0.00    +0.006 A 
ATOM     32  C   UNL     1       3.909   2.191   5.543  0.00  0.00    -0.043 A 
ATOM     33  C   UNL     1       5.275   2.324   5.713  0.00  0.00    +0.006 A 
ATOM     34  C   UNL     1       5.798   2.541   6.972  0.00  0.00    +0.023 A 
BRANCH  29  36
ATOM     35  C   UNL     1       4.583   2.907  10.505  0.00  0.00    +0.129 C 
ATOM     36  N   UNL     1       5.478   2.829   9.347  0.00  0.00    -0.336 N 
ATOM     37  C   UNL     1       6.924   2.977   9.527  0.00  0.00    +0.129 C 
ENDBRANCH  29  36
ENDBRANCH   1  32
TORSDOF 3
