REMARK  Name = ZINC12250150
REMARK  13 active torsions:
REMARK  status: ('A' for Active; 'I' for Inactive)
REMARK    1  A    between atoms: C_1  and  C_2
REMARK    2  A    between atoms: C_2  and  C_3
REMARK    3  A    between atoms: C_7  and  C_39
REMARK    4  A    between atoms: C_8  and  N_9
REMARK    5  A    between atoms: C_10  and  C_12
REMARK    6  A    between atoms: C_13  and  C_38
REMARK    7  A    between atoms: C_15  and  S_26
REMARK    8  A    between atoms: C_16  and  C_24
REMARK    9  A    between atoms: C_17  and  C_19
REMARK   10  A    between atoms: S_26  and  C_27
REMARK   11  A    between atoms: C_27  and  C_28
REMARK   12  A    between atoms: N_30  and  C_31
REMARK   13  A    between atoms: C_35  and  C_37
REMARK                            x       y       z     vdW  Elec       q    Type
REMARK                         _______ _______ _______ _____ _____    ______ ____
ROOT
ATOM      1  C   UNL     1       2.316  12.336   1.427  0.00  0.00    +0.047 C 
ATOM      2  C   UNL     1       1.774  11.196   1.885  0.00  0.00    +0.015 C 
ATOM      3  N   UNL     1       2.157   9.982   1.381  0.00  0.00    -0.312 N 
ATOM      4  C   UNL     1       3.333   9.866   0.675  0.00  0.00    +0.080 C 
ATOM      5  C   UNL     1       3.945  10.969   0.167  0.00  0.00    +0.072 C 
ATOM      6  C   UNL     1       3.353  12.339   0.342  0.00  0.00    +0.134 C 
ATOM      7  C   UNL     1       0.730  11.253   2.969  0.00  0.00    +0.061 C 
ATOM      8  H   UNL     1       1.524   9.097   1.540  0.00  0.00    +0.152 HD
ENDROOT
BRANCH   6   9
ATOM      9  C   UNL     1       2.717  12.777  -0.952  0.00  0.00    +0.118 A 
ATOM     10  C   UNL     1       3.069  13.853  -1.677  0.00  0.00    +0.045 A 
ATOM     11  C   UNL     1       2.218  13.883  -2.805  0.00  0.00    +0.041 A 
ATOM     12  C   UNL     1       1.391  12.828  -2.698  0.00  0.00    +0.195 A 
ATOM     13  O   UNL     1       1.698  12.161  -1.573  0.00  0.00    -0.467 OA
ENDBRANCH   6   9
BRANCH   1  15
ATOM     14  N   UNL     1       2.429  14.724   1.538  0.00  0.00    -0.281 N 
ATOM     15  C   UNL     1       1.897  13.569   1.984  0.00  0.00    +0.247 C 
ATOM     16  O   UNL     1       1.057  13.585   2.865  0.00  0.00    -0.270 OA
ATOM     17  H   UNL     1       3.116  14.718   0.679  0.00  0.00    +0.155 HD
BRANCH  14  23
ATOM     18  C   UNL     1       3.113  16.737   2.683  0.00  0.00    -0.026 A 
ATOM     19  C   UNL     1       2.792  17.928   3.304  0.00  0.00    +0.005 A 
ATOM     20  C   UNL     1       1.470  18.318   3.413  0.00  0.00    +0.001 A 
ATOM     21  C   UNL     1       0.465  17.517   2.901  0.00  0.00    +0.005 A 
ATOM     22  C   UNL     1       0.780  16.328   2.274  0.00  0.00    -0.029 A 
ATOM     23  C   UNL     1       2.107  15.931   2.167  0.00  0.00    +0.040 A 
ATOM     24  C   UNL     1      -0.315  15.459   1.711  0.00  0.00    +0.045 C 
BRANCH  18  26
ATOM     25  C   UNL     1       5.104  16.749   1.204  0.00  0.00    +0.009 C 
ATOM     26  C   UNL     1       4.554  16.314   2.564  0.00  0.00    +0.033 C 
ENDBRANCH  18  26
ENDBRANCH  14  23
ENDBRANCH   1  15
BRANCH   5  27
ATOM     27  C   UNL     1       5.175  10.822  -0.551  0.00  0.00    +0.098 C 
ATOM     28  N   UNL     1       6.151  10.705  -1.121  0.00  0.00    -0.191 NA
ENDBRANCH   5  27
BRANCH   4  29
ATOM     29  S   UNL     1       4.054   8.276   0.433  0.00  0.00    -0.100 S 
BRANCH  29  30
ATOM     30  C   UNL     1       2.846   7.247   1.303  0.00  0.00    +0.171 C 
BRANCH  30  31
ATOM     31  C   UNL     1       3.268   5.803   1.226  0.00  0.00    +0.227 C 
ATOM     32  O   UNL     1       4.286   5.499   0.640  0.00  0.00    -0.275 OA
ATOM     33  N   UNL     1       2.515   4.848   1.808  0.00  0.00    -0.285 N 
ATOM     34  H   UNL     1       1.562   5.116   2.286  0.00  0.00    +0.155 HD
BRANCH  33  35
ATOM     35  C   UNL     1       2.946   3.517   1.803  0.00  0.00    +0.034 A 
ATOM     36  C   UNL     1       4.301   3.224   1.886  0.00  0.00    +0.023 A 
ATOM     37  C   UNL     1       4.723   1.909   1.881  0.00  0.00    +0.002 A 
ATOM     38  C   UNL     1       3.799   0.885   1.792  0.00  0.00    +0.003 A 
ATOM     39  C   UNL     1       2.449   1.173   1.704  0.00  0.00    -0.049 A 
ATOM     40  C   UNL     1       2.020   2.486   1.715  0.00  0.00    +0.026 A 
ATOM     41  C   UNL     1       1.445   0.054   1.603  0.00  0.00    +0.044 C 
ENDBRANCH  33  35
ENDBRANCH  30  31
ENDBRANCH  29  30
ENDBRANCH   4  29
TORSDOF 9
