REMARK  Name = ZINC45834944
REMARK  6 active torsions:
REMARK  status: ('A' for Active; 'I' for Inactive)
REMARK    1  A    between atoms: C_1  and  C_2
REMARK    2  A    between atoms: C_2  and  C_4
REMARK    3  A    between atoms: C_2  and  N_14
REMARK    4  A    between atoms: C_7  and  N_10
REMARK    5  A    between atoms: C_15  and  C_17
REMARK    6  A    between atoms: C_17  and  C_18
REMARK                            x       y       z     vdW  Elec       q    Type
REMARK                         _______ _______ _______ _____ _____    ______ ____
ROOT
ATOM      1  C   UNL     1      -0.191   1.534  -0.099  0.00  0.00    +0.033 C 
ATOM      2  C   UNL     1       0.012   0.021  -0.002  0.00  0.00    +0.100 C 
ENDROOT
BRANCH   2   3
ATOM      3  C   UNL     1       0.715  -0.472  -1.241  0.00  0.00    -0.027 A 
ATOM      4  C   UNL     1       2.086  -0.335  -1.357  0.00  0.00    +0.007 A 
ATOM      5  C   UNL     1       2.733  -0.785  -2.491  0.00  0.00    +0.023 A 
ATOM      6  C   UNL     1       2.005  -1.376  -3.515  0.00  0.00    +0.035 A 
ATOM      7  C   UNL     1       0.628  -1.513  -3.396  0.00  0.00    +0.023 A 
ATOM      8  C   UNL     1      -0.012  -1.065  -2.257  0.00  0.00    +0.007 A 
BRANCH   6   9
ATOM      9  N   UNL     1       2.658  -1.833  -4.666  0.00  0.00    -0.270 N 
ATOM     10  C   UNL     1       3.907  -2.331  -4.579  0.00  0.00    +0.301 C 
ATOM     11  O   UNL     1       4.431  -2.473  -3.491  0.00  0.00    -0.253 OA
ATOM     12  N   UNL     1       4.576  -2.671  -5.699  0.00  0.00    -0.313 N 
ATOM     13  H   UNL     1       2.211  -1.792  -5.526  0.00  0.00    +0.156 HD
ATOM     14  H   UNL     1       4.158  -2.558  -6.567  0.00  0.00    +0.146 HD
ATOM     15  H   UNL     1       5.475  -3.030  -5.636  0.00  0.00    +0.146 HD
ENDBRANCH   6   9
ENDBRANCH   2   3
BRANCH   2  16
ATOM     16  N   UNL     1       0.826  -0.288   1.176  0.00  0.00    -0.308 N 
ATOM     17  C   UNL     1       0.241  -0.420   2.383  0.00  0.00    +0.218 C 
ATOM     18  O   UNL     1      -0.959  -0.283   2.494  0.00  0.00    -0.275 OA
ATOM     19  H   UNL     1       1.785  -0.398   1.088  0.00  0.00    +0.149 HD
BRANCH  17  20
ATOM     20  C   UNL     1       1.077  -0.738   3.596  0.00  0.00    +0.130 C 
BRANCH  20  21
ATOM     21  C   UNL     1       0.189  -0.831   4.809  0.00  0.00    -0.038 A 
ATOM     22  C   UNL     1      -0.072   0.296   5.566  0.00  0.00    +0.004 A 
ATOM     23  C   UNL     1      -0.884   0.202   6.677  0.00  0.00    +0.004 A 
ATOM     24  C   UNL     1      -1.444  -1.016   7.042  0.00  0.00    -0.044 A 
ATOM     25  C   UNL     1      -1.188  -2.137   6.285  0.00  0.00    -0.044 A 
ATOM     26  C   UNL     1      -0.371  -2.040   5.166  0.00  0.00    +0.008 A 
ATOM     27  C   UNL     1      -1.773  -3.486   6.612  0.00  0.00    +0.035 C 
ATOM     28  C   UNL     1      -2.271  -3.521   8.055  0.00  0.00    +0.005 C 
ATOM     29  C   UNL     1      -3.180  -2.307   8.283  0.00  0.00    +0.005 C 
ATOM     30  C   UNL     1      -2.314  -1.048   8.271  0.00  0.00    +0.035 C 
ENDBRANCH  20  21
ENDBRANCH  17  20
ENDBRANCH   2  16
TORSDOF 5
