REMARK  Name = ZINC31047197
REMARK  8 active torsions:
REMARK  status: ('A' for Active; 'I' for Inactive)
REMARK    1  A    between atoms: C_1  and  C_2
REMARK    2  A    between atoms: C_9  and  C_36
REMARK    3  A    between atoms: C_9  and  C_37
REMARK    4  A    between atoms: C_11  and  N_13
REMARK    5  A    between atoms: C_14  and  C_16
REMARK    6  A    between atoms: N_21  and  C_23
REMARK    7  A    between atoms: C_23  and  C_24
REMARK    8  A    between atoms: C_26  and  C_29
REMARK                            x       y       z     vdW  Elec       q    Type
REMARK                         _______ _______ _______ _____ _____    ______ ____
ROOT
ATOM      1  C   UNL     1       3.768   9.004  -2.853  0.00  0.00    +0.058 C 
ATOM      2  C   UNL     1       2.521   8.926  -3.738  0.00  0.00    +0.009 C 
ATOM      3  C   UNL     1       1.920   7.522  -3.637  0.00  0.00    -0.018 C 
ATOM      4  C   UNL     1       1.594   7.215  -2.174  0.00  0.00    -0.078 C 
ATOM      5  N   UNL     1       2.820   7.302  -1.369  0.00  0.00    +0.386 N 
ATOM      6  C   UNL     1       3.389   8.655  -1.413  0.00  0.00    -0.065 C 
ATOM      7  H   UNL     1       3.558   6.614  -1.808  0.00  0.00    -0.081 HD
ENDROOT
BRANCH   1   9
ATOM      8  N   UNL     1       4.738  10.925  -4.074  0.00  0.00    -0.308 N 
ATOM      9  C   UNL     1       4.333  10.400  -2.900  0.00  0.00    +0.215 C 
ATOM     10  O   UNL     1       4.424  11.053  -1.882  0.00  0.00    -0.276 OA
ATOM     11  H   UNL     1       4.656  10.333  -4.998  0.00  0.00    +0.149 HD
BRANCH   8  22
ATOM     12  C   UNL     1      10.908  12.054  -2.769  0.00  0.00    +0.044 C 
ATOM     13  C   UNL     1       9.446  12.119  -3.130  0.00  0.00    -0.047 A 
ATOM     14  C   UNL     1       8.526  11.365  -2.425  0.00  0.00    +0.004 A 
ATOM     15  C   UNL     1       7.186  11.426  -2.755  0.00  0.00    +0.009 A 
ATOM     16  C   UNL     1       6.758  12.239  -3.792  0.00  0.00    +0.015 A 
ATOM     17  C   UNL     1       7.677  12.993  -4.500  0.00  0.00    +0.126 A 
ATOM     18  C   UNL     1       9.026  12.930  -4.163  0.00  0.00    +0.049 A 
ATOM     19  O   UNL     1       7.302  13.800  -5.527  0.00  0.00    -0.486 OA
ATOM     20  C   UNL     1       5.921  14.149  -5.631  0.00  0.00    +0.107 C 
ATOM     21  C   UNL     1       5.088  12.865  -5.521  0.00  0.00    +0.074 C 
ATOM     22  C   UNL     1       5.287  12.282  -4.120  0.00  0.00    +0.110 C 
ATOM     23  C   UNL     1       5.660  14.818  -6.982  0.00  0.00    +0.055 C 
ATOM     24  C   UNL     1       5.543  15.106  -4.500  0.00  0.00    +0.055 C 
ENDBRANCH   8  22
ENDBRANCH   1   9
BRANCH   5  25
ATOM     25  C   UNL     1       2.572   6.879   0.015  0.00  0.00    +0.022 C 
BRANCH  25  26
ATOM     26  C   UNL     1       1.770   5.603   0.015  0.00  0.00    +0.211 A 
ATOM     27  N   UNL     1       2.248   4.384   0.009  0.00  0.00    -0.193 NA
ATOM     28  C   UNL     1       1.167   3.570   0.010  0.00  0.00    +0.202 A 
ATOM     29  N   UNL     1       0.107   4.336   0.024  0.00  0.00    -0.056 NA
ATOM     30  O   UNL     1       0.437   5.504   0.027  0.00  0.00    -0.340 OA
BRANCH  28  31
ATOM     31  C   UNL     1       1.182   2.087   0.002  0.00  0.00    +0.023 A 
ATOM     32  C   UNL     1      -0.017   1.376   0.010  0.00  0.00    +0.013 A 
ATOM     33  C   UNL     1       0.002  -0.004   0.002  0.00  0.00    +0.021 A 
ATOM     34  C   UNL     1       1.209  -0.682  -0.013  0.00  0.00    +0.041 A 
ATOM     35  C   UNL     1       2.402   0.020  -0.020  0.00  0.00    +0.021 A 
ATOM     36  C   UNL     1       2.394   1.399  -0.013  0.00  0.00    +0.013 A 
ATOM     37 CL   UNL     1       1.226  -2.418  -0.021  0.00  0.00    -0.084 Cl
ENDBRANCH  28  31
ENDBRANCH  25  26
ENDBRANCH   5  25
TORSDOF 5
