REMARK  Name = ZINC20227423
REMARK  9 active torsions:
REMARK  status: ('A' for Active; 'I' for Inactive)
REMARK    1  A    between atoms: C_1  and  S_2
REMARK    2  A    between atoms: S_2  and  C_3
REMARK    3  A    between atoms: C_3  and  C_4
REMARK    4  A    between atoms: C_4  and  C_5
REMARK    5  A    between atoms: C_5  and  C_7
REMARK    6  A    between atoms: C_5  and  N_10
REMARK    7  A    between atoms: C_14  and  C_15
REMARK    8  A    between atoms: N_23  and  C_26
REMARK    9  A    between atoms: C_26  and  C_27
REMARK                            x       y       z     vdW  Elec       q    Type
REMARK                         _______ _______ _______ _____ _____    ______ ____
ROOT
ATOM      1  N   UNL     1      -0.072  -0.389   2.561  0.00  0.00    -0.241 N 
ATOM      2  C   UNL     1       1.043  -1.100   2.542  0.00  0.00    +0.259 C 
ATOM      3  O   UNL     1       2.138  -0.574   2.481  0.00  0.00    -0.269 OA
ATOM      4  C   UNL     1       0.887  -2.575   2.600  0.00  0.00    +0.074 C 
ATOM      5  C   UNL     1       1.821  -3.533   2.596  0.00  0.00    +0.011 C 
ATOM      6  S   UNL     1      -0.893  -2.719   2.675  0.00  0.00    -0.061 S 
ATOM      7  C   UNL     1      -1.283  -0.977   2.635  0.00  0.00    +0.121 C 
ATOM      8  S   UNL     1      -2.824  -0.232   2.678  0.00  0.00    -0.027 S 
ENDROOT
BRANCH   5   9
ATOM      9  C   UNL     1       1.414  -4.983   2.663  0.00  0.00    +0.131 C 
ATOM     10  C   UNL     1       2.039  -5.653   3.865  0.00  0.00    -0.010 A 
ATOM     11  C   UNL     1       1.935  -5.431   5.220  0.00  0.00    +0.006 A 
ATOM     12  C   UNL     1       2.643  -6.225   6.106  0.00  0.00    +0.000 A 
ATOM     13  C   UNL     1       3.452  -7.238   5.625  0.00  0.00    +0.002 A 
ATOM     14  C   UNL     1       3.558  -7.463   4.269  0.00  0.00    +0.024 A 
ATOM     15  C   UNL     1       2.848  -6.668   3.371  0.00  0.00    +0.041 A 
ATOM     16  N   UNL     1       2.789  -6.695   1.977  0.00  0.00    -0.259 N 
ATOM     17  C   UNL     1       1.973  -5.746   1.481  0.00  0.00    +0.232 C 
ATOM     18  O   UNL     1       1.731  -5.539   0.311  0.00  0.00    -0.274 OA
BRANCH  16  19
ATOM     19  C   UNL     1       3.528  -7.650   1.147  0.00  0.00    +0.238 C 
BRANCH  19  20
ATOM     20  C   UNL     1       2.687  -8.881   0.927  0.00  0.00    +0.373 C 
ATOM     21  O   UNL     1       1.583  -8.953   1.413  0.00  0.00    -0.245 OA
ATOM     22  O   UNL     1       3.164  -9.897   0.191  0.00  0.00    -0.245 OA
ENDBRANCH  19  20
ENDBRANCH  16  19
ENDBRANCH   5   9
BRANCH   1  23
ATOM     23  C   UNL     1       0.011   1.072   2.506  0.00  0.00    +0.196 C 
BRANCH  23  24
ATOM     24  C   UNL     1      -0.621   1.658   3.743  0.00  0.00    +0.376 C 
ATOM     25  O   UNL     1      -1.092   0.929   4.584  0.00  0.00    -0.244 OA
ATOM     26  O   UNL     1      -0.660   2.989   3.910  0.00  0.00    -0.244 OA
ENDBRANCH  23  24
BRANCH  23  27
ATOM     27  C   UNL     1      -0.729   1.579   1.267  0.00  0.00    +0.045 C 
BRANCH  27  28
ATOM     28  C   UNL     1      -0.013   1.086   0.008  0.00  0.00    +0.071 C 
BRANCH  28  30
ATOM     29  C   UNL     1       0.072   1.024  -2.849  0.00  0.00    +0.084 C 
ATOM     30  S   UNL     1      -0.890   1.687  -1.462  0.00  0.00    -0.164 S 
ENDBRANCH  28  30
ENDBRANCH  27  28
ENDBRANCH  23  27
ENDBRANCH   1  23
TORSDOF 8
