REMARK  Name = ZINC59513341
REMARK  11 active torsions:
REMARK  status: ('A' for Active; 'I' for Inactive)
REMARK    1  A    between atoms: C_1  and  C_2
REMARK    2  A    between atoms: C_2  and  O_3
REMARK    3  A    between atoms: O_3  and  C_4
REMARK    4  A    between atoms: C_4  and  C_6
REMARK    5  A    between atoms: C_10  and  N_11
REMARK    6  A    between atoms: C_12  and  C_14
REMARK    7  A    between atoms: C_14  and  S_15
REMARK    8  A    between atoms: S_15  and  C_16
REMARK    9  A    between atoms: C_18  and  N_30
REMARK   10  A    between atoms: N_22  and  C_23
REMARK   11  A    between atoms: C_27  and  C_29
REMARK                            x       y       z     vdW  Elec       q    Type
REMARK                         _______ _______ _______ _____ _____    ______ ____
ROOT
ATOM      1  N   UNL     1      -0.917   0.913  -5.764  0.00  0.00    -0.279 N 
ATOM      2  C   UNL     1      -1.379   0.007  -6.648  0.00  0.00    +0.228 C 
ATOM      3  O   UNL     1      -0.664  -0.383  -7.546  0.00  0.00    -0.275 OA
ATOM      4  H   UNL     1      -1.489   1.225  -5.045  0.00  0.00    +0.155 HD
ENDROOT
BRANCH   1   9
ATOM      5  C   UNL     1       1.016   2.322  -5.071  0.00  0.00    +0.091 A 
ATOM      6  C   UNL     1       2.393   2.665  -5.405  0.00  0.00    -0.021 A 
ATOM      7  C   UNL     1       2.867   2.025  -6.494  0.00  0.00    -0.004 A 
ATOM      8  S   UNL     1       1.527   1.001  -7.036  0.00  0.00    -0.077 S 
ATOM      9  C   UNL     1       0.377   1.397  -5.880  0.00  0.00    +0.086 A 
ATOM     10  C   UNL     1       4.222   2.159  -7.115  0.00  0.00    +0.043 C 
ATOM     11  C   UNL     1       5.292   2.038  -6.022  0.00  0.00    +0.005 C 
ATOM     12  C   UNL     1       5.571   3.427  -5.457  0.00  0.00    +0.001 C 
ATOM     13  C   UNL     1       4.298   4.271  -5.479  0.00  0.00    +0.005 C 
ATOM     14  C   UNL     1       3.227   3.644  -4.592  0.00  0.00    +0.037 C 
BRANCH   5  15
ATOM     15  C   UNL     1       0.338   2.927  -3.923  0.00  0.00    +0.342 C 
ATOM     16  O   UNL     1       0.405   2.397  -2.829  0.00  0.00    -0.245 OA
BRANCH  15  17
ATOM     17  O   UNL     1      -0.360   4.070  -4.077  0.00  0.00    -0.461 OA
BRANCH  17  19
ATOM     18  C   UNL     1      -1.733   5.893  -3.282  0.00  0.00    +0.048 C 
ATOM     19  C   UNL     1      -0.996   4.604  -2.914  0.00  0.00    +0.229 C 
ENDBRANCH  17  19
ENDBRANCH  15  17
ENDBRANCH   5  15
ENDBRANCH   1   9
BRANCH   2  20
ATOM     20  C   UNL     1      -2.786  -0.520  -6.521  0.00  0.00    +0.173 C 
BRANCH  20  21
ATOM     21  S   UNL     1      -3.106  -1.712  -7.850  0.00  0.00    -0.078 S 
BRANCH  21  22
ATOM     22  C   UNL     1      -4.767  -2.229  -7.567  0.00  0.00    +0.178 A 
ATOM     23  N   UNL     1      -5.438  -1.721  -6.554  0.00  0.00    -0.208 NA
ATOM     24  C   UNL     1      -6.700  -2.087  -6.306  0.00  0.00    +0.124 A 
ATOM     25  C   UNL     1      -7.321  -3.019  -7.126  0.00  0.00    +0.114 A 
ATOM     26  C   UNL     1      -6.604  -3.555  -8.199  0.00  0.00    +0.261 A 
ATOM     27  O   UNL     1      -7.118  -4.376  -8.941  0.00  0.00    -0.267 OA
ATOM     28  N   UNL     1      -5.335  -3.144  -8.405  0.00  0.00    -0.256 N 
BRANCH  28  29
ATOM     29  C   UNL     1      -4.597  -3.663  -9.477  0.00  0.00    +0.052 A 
ATOM     30  C   UNL     1      -3.834  -4.811  -9.306  0.00  0.00    +0.026 A 
ATOM     31  C   UNL     1      -3.109  -5.320 -10.365  0.00  0.00    +0.002 A 
ATOM     32  C   UNL     1      -3.140  -4.688 -11.594  0.00  0.00    +0.003 A 
ATOM     33  C   UNL     1      -3.898  -3.545 -11.768  0.00  0.00    -0.048 A 
ATOM     34  C   UNL     1      -4.631  -3.034 -10.714  0.00  0.00    +0.029 A 
ATOM     35  C   UNL     1      -3.930  -2.859 -13.109  0.00  0.00    +0.044 C 
ENDBRANCH  28  29
BRANCH  24  36
ATOM     36  N   UNL     1      -7.383  -1.540  -5.238  0.00  0.00    -0.343 N 
ATOM     37  H   UNL     1      -6.947  -0.889  -4.665  0.00  0.00    +0.144 HD
ATOM     38  H   UNL     1      -8.298  -1.807  -5.059  0.00  0.00    +0.144 HD
ENDBRANCH  24  36
ENDBRANCH  21  22
ENDBRANCH  20  21
ENDBRANCH   2  20
TORSDOF 9
