REMARK  Name = ZINC39466501
REMARK  8 active torsions:
REMARK  status: ('A' for Active; 'I' for Inactive)
REMARK    1  A    between atoms: C_1  and  C_2
REMARK    2  A    between atoms: C_2  and  C_3
REMARK    3  A    between atoms: C_2  and  S_4
REMARK    4  A    between atoms: S_4  and  C_7
REMARK    5  A    between atoms: C_19  and  C_20
REMARK    6  A    between atoms: C_20  and  C_21
REMARK    7  A    between atoms: P_29  and  C_32
REMARK    8  A    between atoms: C_32  and  C_33
REMARK                            x       y       z     vdW  Elec       q    Type
REMARK                         _______ _______ _______ _____ _____    ______ ____
ROOT
ATOM      1  C   UNL     1       2.398   0.045  -1.449  0.00  0.00    +0.088 C 
ATOM      2  C   UNL     1       3.417  -0.808  -1.526  0.00  0.00    +0.002 C 
ATOM      3  C   UNL     1       4.823  -0.278  -1.612  0.00  0.00    +0.006 C 
ATOM      4  C   UNL     1       5.821  -1.321  -1.130  0.00  0.00    -0.046 C 
ATOM      5  N   UNL     1       5.593  -1.663   0.283  0.00  0.00    +0.397 N 
ATOM      6  C   UNL     1       5.752  -0.475   1.126  0.00  0.00    -0.020 C 
ATOM      7  C   UNL     1       4.747   0.605   0.711  0.00  0.00    -0.003 C 
ATOM      8  C   UNL     1       4.953   0.974  -0.739  0.00  0.00    +0.016 C 
ATOM      9  C   UNL     1       3.866   1.949  -1.123  0.00  0.00    -0.017 C 
ATOM     10  C   UNL     1       2.663   1.494  -1.468  0.00  0.00    -0.022 C 
ATOM     11  C   UNL     1       5.481  -0.791   2.603  0.00  0.00    +0.156 C 
ATOM     12  O   UNL     1       6.430  -1.769   3.067  0.00  0.00    -0.319 OA
ATOM     13  P   UNL     1       6.620  -3.117   2.176  0.00  0.00    +0.262 P 
ATOM     14  O   UNL     1       5.534  -4.080   2.464  0.00  0.00    -0.274 OA
ATOM     15  N   UNL     1       6.541  -2.612   0.602  0.00  0.00    -0.291 NA
ATOM     16  H   UNL     1       7.136  -2.972  -0.075  0.00  0.00    +0.111 HD
ATOM     17  H   UNL     1       4.669  -2.054   0.395  0.00  0.00    -0.055 HD
ENDROOT
BRANCH   1  18
ATOM     18  S   UNL     1       0.745  -0.554  -1.334  0.00  0.00    -0.001 S 
ATOM     19  O   UNL     1       0.847  -1.948  -1.588  0.00  0.00    -0.169 OA
ATOM     20  O   UNL     1      -0.006   0.287  -2.199  0.00  0.00    -0.169 OA
BRANCH  18  22
ATOM     21  C   UNL     1       0.263   1.237   0.676  0.00  0.00    +0.032 C 
ATOM     22  C   UNL     1       0.264  -0.266   0.391  0.00  0.00    +0.130 C 
ATOM     23  C   UNL     1      -1.137  -0.832   0.631  0.00  0.00    +0.032 C 
ENDBRANCH  18  22
ENDBRANCH   1  18
BRANCH  10  24
ATOM     24  C   UNL     1       1.575   2.456  -1.869  0.00  0.00    +0.071 C 
BRANCH  24  25
ATOM     25  C   UNL     1       1.692   2.762  -3.340  0.00  0.00    -0.043 A 
ATOM     26  C   UNL     1       2.575   3.732  -3.776  0.00  0.00    +0.004 A 
ATOM     27  C   UNL     1       2.684   4.013  -5.125  0.00  0.00    +0.000 A 
ATOM     28  C   UNL     1       1.909   3.323  -6.039  0.00  0.00    +0.000 A 
ATOM     29  C   UNL     1       1.027   2.352  -5.603  0.00  0.00    +0.000 A 
ATOM     30  C   UNL     1       0.922   2.069  -4.255  0.00  0.00    +0.004 A 
ENDBRANCH  24  25
ENDBRANCH  10  24
BRANCH  13  31
ATOM     31  C   UNL     1       8.242  -3.876   2.516  0.00  0.00    +0.147 C 
BRANCH  31  32
ATOM     32  C   UNL     1       8.333  -4.234   3.977  0.00  0.00    -0.037 A 
ATOM     33  C   UNL     1       8.826  -3.315   4.885  0.00  0.00    +0.004 A 
ATOM     34  C   UNL     1       8.909  -3.644   6.225  0.00  0.00    +0.000 A 
ATOM     35  C   UNL     1       8.500  -4.891   6.657  0.00  0.00    +0.000 A 
ATOM     36  C   UNL     1       8.007  -5.810   5.750  0.00  0.00    +0.000 A 
ATOM     37  C   UNL     1       7.919  -5.480   4.410  0.00  0.00    +0.004 A 
ENDBRANCH  31  32
ENDBRANCH  13  31
TORSDOF 6
