REMARK  Name = ZINC40114558
REMARK  8 active torsions:
REMARK  status: ('A' for Active; 'I' for Inactive)
REMARK    1  A    between atoms: C_1  and  N_2
REMARK    2  A    between atoms: N_2  and  C_3
REMARK    3  A    between atoms: N_2  and  C_9
REMARK    4  A    between atoms: C_14  and  N_15
REMARK    5  A    between atoms: C_16  and  C_18
REMARK    6  A    between atoms: C_18  and  C_19
REMARK    7  A    between atoms: C_19  and  C_20
REMARK    8  A    between atoms: C_23  and  C_25
REMARK                            x       y       z     vdW  Elec       q    Type
REMARK                         _______ _______ _______ _____ _____    ______ ____
ROOT
ATOM      1  N   UNL     1      -2.422  -0.731  -1.193  0.00  0.00    -0.284 N 
ATOM      2  C   UNL     1      -3.587  -0.993  -1.818  0.00  0.00    +0.218 C 
ATOM      3  O   UNL     1      -3.589  -1.593  -2.872  0.00  0.00    -0.275 OA
ATOM      4  H   UNL     1      -2.425  -0.323  -0.314  0.00  0.00    +0.155 HD
ENDROOT
BRANCH   1  10
ATOM      5  C   UNL     1      -0.066  -1.273  -1.045  0.00  0.00    +0.055 A 
ATOM      6  C   UNL     1       1.133  -1.593  -1.666  0.00  0.00    +0.025 A 
ATOM      7  C   UNL     1       1.194  -1.685  -3.043  0.00  0.00    +0.002 A 
ATOM      8  C   UNL     1       0.064  -1.458  -3.807  0.00  0.00    +0.002 A 
ATOM      9  C   UNL     1      -1.135  -1.138  -3.196  0.00  0.00    +0.025 A 
ATOM     10  C   UNL     1      -1.207  -1.050  -1.814  0.00  0.00    +0.055 A 
BRANCH   5  12
ATOM     11  C   UNL     1       0.123   0.102   1.011  0.00  0.00    +0.135 C 
ATOM     12  N   UNL     1      -0.131  -1.180   0.350  0.00  0.00    -0.302 N 
BRANCH  12  13
ATOM     13  C   UNL     1      -0.437  -2.310   1.111  0.00  0.00    +0.034 A 
ATOM     14  C   UNL     1      -0.673  -3.529   0.486  0.00  0.00    +0.023 A 
ATOM     15  C   UNL     1      -0.976  -4.644   1.242  0.00  0.00    +0.002 A 
ATOM     16  C   UNL     1      -1.045  -4.549   2.620  0.00  0.00    +0.000 A 
ATOM     17  C   UNL     1      -0.811  -3.338   3.246  0.00  0.00    +0.002 A 
ATOM     18  C   UNL     1      -0.502  -2.220   2.496  0.00  0.00    +0.023 A 
ENDBRANCH  12  13
ENDBRANCH   5  12
ENDBRANCH   1  10
BRANCH   2  19
ATOM     19  C   UNL     1      -4.888  -0.538  -1.208  0.00  0.00    +0.105 C 
BRANCH  19  20
ATOM     20  C   UNL     1      -6.050  -0.958  -2.111  0.00  0.00    +0.105 C 
BRANCH  20  21
ATOM     21  C   UNL     1      -7.350  -0.504  -1.501  0.00  0.00    +0.197 A 
ATOM     22  N   UNL     1      -7.931   0.641  -1.724  0.00  0.00    -0.221 NA
ATOM     23  C   UNL     1      -9.067   0.698  -1.012  0.00  0.00    +0.161 A 
ATOM     24  C   UNL     1      -9.179  -0.468  -0.327  0.00  0.00    +0.158 A 
ATOM     25  O   UNL     1      -8.099  -1.215  -0.647  0.00  0.00    -0.440 OA
BRANCH  24  26
ATOM     26  C   UNL     1     -10.274  -0.850   0.590  0.00  0.00    +0.054 A 
ATOM     27  C   UNL     1     -10.905  -2.087   0.451  0.00  0.00    +0.014 A 
ATOM     28  C   UNL     1     -11.927  -2.438   1.309  0.00  0.00    +0.001 A 
ATOM     29  C   UNL     1     -12.327  -1.567   2.307  0.00  0.00    +0.003 A 
ATOM     30  C   UNL     1     -11.708  -0.339   2.451  0.00  0.00    +0.039 A 
ATOM     31  C   UNL     1     -10.679   0.023   1.603  0.00  0.00    +0.134 A 
ATOM     32  F   UNL     1     -10.070   1.220   1.748  0.00  0.00    -0.205 F 
ENDBRANCH  24  26
ENDBRANCH  20  21
ENDBRANCH  19  20
ENDBRANCH   2  19
TORSDOF 7
