REMARK  Name = ZINC35908333
REMARK  13 active torsions:
REMARK  status: ('A' for Active; 'I' for Inactive)
REMARK    1  A    between atoms: C_1  and  C_2
REMARK    2  A    between atoms: C_2  and  C_3
REMARK    3  A    between atoms: C_12  and  C_13
REMARK    4  A    between atoms: C_13  and  C_15
REMARK    5  A    between atoms: C_13  and  C_31
REMARK    6  A    between atoms: C_15  and  C_16
REMARK    7  A    between atoms: N_18  and  C_19
REMARK    8  A    between atoms: N_18  and  C_24
REMARK    9  A    between atoms: C_19  and  C_20
REMARK   10  A    between atoms: C_20  and  N_21
REMARK   11  A    between atoms: N_21  and  C_22
REMARK   12  A    between atoms: N_21  and  C_23
REMARK   13  A    between atoms: C_24  and  C_25
REMARK                            x       y       z     vdW  Elec       q    Type
REMARK                         _______ _______ _______ _____ _____    ______ ____
ROOT
ATOM      1  C   UNL     1       5.278  -1.492  -3.042  0.00  0.00    +0.061 C 
ENDROOT
BRANCH   1  11
ATOM      2  C   UNL     1       0.707  -0.490  -1.238  0.00  0.00    -0.024 A 
ATOM      3  C   UNL     1      -0.018  -0.817  -2.363  0.00  0.00    +0.005 A 
ATOM      4  C   UNL     1       0.620  -1.265  -3.511  0.00  0.00    +0.001 A 
ATOM      5  C   UNL     1       1.980  -1.391  -3.545  0.00  0.00    +0.010 A 
ATOM      6  C   UNL     1       2.735  -1.065  -2.417  0.00  0.00    +0.004 A 
ATOM      7  C   UNL     1       2.094  -0.605  -1.252  0.00  0.00    +0.050 A 
ATOM      8  N   UNL     1       3.075  -0.360  -0.318  0.00  0.00    -0.360 N 
ATOM      9  H   UNL     1       2.919  -0.035   0.582  0.00  0.00    +0.165 HD
ATOM     10  C   UNL     1       4.304  -0.641  -0.850  0.00  0.00    +0.088 A 
ATOM     11  C   UNL     1       4.167  -1.079  -2.112  0.00  0.00    -0.014 A 
BRANCH   2  13
ATOM     12  C   UNL     1      -0.019   1.526   0.010  0.00  0.00    +0.009 C 
ATOM     13  C   UNL     1       0.002  -0.004   0.002  0.00  0.00    +0.034 C 
ENDBRANCH   2  13
ENDBRANCH   1  11
BRANCH   1  14
ATOM     14  C   UNL     1       6.029  -2.654  -2.444  0.00  0.00    -0.021 A 
ATOM     15  C   UNL     1       6.649  -2.518  -1.216  0.00  0.00    +0.005 A 
ATOM     16  C   UNL     1       7.337  -3.583  -0.667  0.00  0.00    +0.000 A 
ATOM     17  C   UNL     1       7.406  -4.786  -1.346  0.00  0.00    +0.001 A 
ATOM     18  C   UNL     1       6.787  -4.923  -2.574  0.00  0.00    +0.020 A 
ATOM     19  C   UNL     1       6.093  -3.859  -3.121  0.00  0.00    +0.045 A 
ATOM     20 CL   UNL     1       5.309  -4.032  -4.660  0.00  0.00    -0.083 Cl
ENDBRANCH   1  14
BRANCH   1  21
ATOM     21  C   UNL     1       6.237  -0.317  -3.246  0.00  0.00    +0.109 C 
BRANCH  21  22
ATOM     22  C   UNL     1       7.277  -0.689  -4.271  0.00  0.00    +0.217 C 
ATOM     23  O   UNL     1       7.255  -1.786  -4.787  0.00  0.00    -0.276 OA
ATOM     24  N   UNL     1       8.233   0.197  -4.613  0.00  0.00    -0.299 N 
BRANCH  24  25
ATOM     25  C   UNL     1       8.260   1.523  -3.990  0.00  0.00    +0.089 C 
BRANCH  25  26
ATOM     26  C   UNL     1       9.118   1.474  -2.724  0.00  0.00    -0.060 C 
BRANCH  26  27
ATOM     27  N   UNL     1       9.146   2.803  -2.099  0.00  0.00    +0.377 N 
ATOM     28  C   UNL     1       7.796   3.155  -1.640  0.00  0.00    -0.097 C 
ATOM     29  C   UNL     1      10.064   2.787  -0.953  0.00  0.00    -0.097 C 
ATOM     30  H   UNL     1       9.460   3.485  -2.773  0.00  0.00    -0.083 HD
ENDBRANCH  26  27
ENDBRANCH  25  26
ENDBRANCH  24  25
BRANCH  24  31
ATOM     31  C   UNL     1       9.245  -0.165  -5.609  0.00  0.00    +0.142 C 
BRANCH  31  32
ATOM     32  C   UNL     1       8.755   0.214  -6.983  0.00  0.00    -0.030 A 
ATOM     33  C   UNL     1       8.023  -0.690  -7.729  0.00  0.00    +0.005 A 
ATOM     34  C   UNL     1       7.574  -0.343  -8.990  0.00  0.00    +0.000 A 
ATOM     35  C   UNL     1       7.857   0.909  -9.504  0.00  0.00    +0.000 A 
ATOM     36  C   UNL     1       8.588   1.813  -8.757  0.00  0.00    +0.000 A 
ATOM     37  C   UNL     1       9.034   1.468  -7.495  0.00  0.00    +0.005 A 
ENDBRANCH  31  32
ENDBRANCH  24  31
ENDBRANCH  21  22
ENDBRANCH   1  21
TORSDOF 10
