REMARK  Name = ZINC22059519
REMARK  6 active torsions:
REMARK  status: ('A' for Active; 'I' for Inactive)
REMARK    1  A    between atoms: C_1  and  C_2
REMARK    2  A    between atoms: C_2  and  C_25
REMARK    3  A    between atoms: N_5  and  C_9
REMARK    4  A    between atoms: C_9  and  C_10
REMARK    5  A    between atoms: N_12  and  C_13
REMARK    6  A    between atoms: C_18  and  N_19
REMARK                            x       y       z     vdW  Elec       q    Type
REMARK                         _______ _______ _______ _____ _____    ______ ____
ROOT
ATOM      1  C   UNL     1      -3.340   3.540   1.305  0.00  0.00    +0.047 C 
ATOM      2  C   UNL     1      -2.543   3.904   0.050  0.00  0.00    +0.136 C 
ATOM      3  C   UNL     1      -3.341   3.587  -1.199  0.00  0.00    +0.251 C 
ATOM      4  O   UNL     1      -3.744   2.500  -1.554  0.00  0.00    -0.272 OA
ATOM      5  N   UNL     1      -3.510   4.764  -1.832  0.00  0.00    -0.215 N 
ATOM      6  C   UNL     1      -2.936   5.771  -1.163  0.00  0.00    +0.310 C 
ATOM      7  O   UNL     1      -2.955   6.927  -1.537  0.00  0.00    -0.252 OA
ATOM      8  N   UNL     1      -2.336   5.360  -0.028  0.00  0.00    -0.281 N 
ATOM      9  H   UNL     1      -1.776   5.879   0.765  0.00  0.00    +0.152 HD
ENDROOT
BRANCH   2  10
ATOM     10  C   UNL     1      -1.222   3.179   0.034  0.00  0.00    +0.003 A 
ATOM     11  C   UNL     1      -0.040   3.896   0.028  0.00  0.00    +0.009 A 
ATOM     12  C   UNL     1       1.172   3.231   0.013  0.00  0.00    +0.020 A 
ATOM     13  C   UNL     1       1.202   1.848   0.005  0.00  0.00    +0.042 A 
ATOM     14  C   UNL     1       0.020   1.130   0.012  0.00  0.00    +0.040 A 
ATOM     15  C   UNL     1      -1.192   1.796   0.021  0.00  0.00    +0.048 A 
ATOM     16 CL   UNL     1      -2.677   0.895   0.021  0.00  0.00    -0.083 Cl
ATOM     17 CL   UNL     1       2.725   1.013  -0.013  0.00  0.00    -0.083 Cl
ENDBRANCH   2  10
BRANCH   5  18
ATOM     18  C   UNL     1      -4.234   4.923  -3.096  0.00  0.00    +0.214 C 
BRANCH  18  19
ATOM     19  C   UNL     1      -5.690   5.189  -2.811  0.00  0.00    +0.235 C 
ATOM     20  O   UNL     1      -6.083   5.242  -1.665  0.00  0.00    -0.274 OA
ATOM     21  N   UNL     1      -6.554   5.370  -3.829  0.00  0.00    -0.283 N 
ATOM     22  H   UNL     1      -6.185   5.395  -4.865  0.00  0.00    +0.155 HD
BRANCH  21  23
ATOM     23  C   UNL     1      -7.921   5.525  -3.568  0.00  0.00    +0.055 A 
ATOM     24  C   UNL     1      -8.340   6.188  -2.424  0.00  0.00    +0.025 A 
ATOM     25  C   UNL     1      -9.690   6.343  -2.171  0.00  0.00    +0.002 A 
ATOM     26  C   UNL     1     -10.626   5.831  -3.051  0.00  0.00    +0.002 A 
ATOM     27  C   UNL     1     -10.218   5.164  -4.191  0.00  0.00    +0.025 A 
ATOM     28  C   UNL     1      -8.865   5.008  -4.455  0.00  0.00    +0.057 A 
BRANCH  28  29
ATOM     29  N   UNL     1      -8.449   4.332  -5.609  0.00  0.00    -0.270 N 
ATOM     30  C   UNL     1      -8.201   4.979  -6.903  0.00  0.00    +0.114 C 
ATOM     31  C   UNL     1      -8.199   3.835  -7.942  0.00  0.00    +0.029 C 
ATOM     32  C   UNL     1      -7.798   2.621  -7.073  0.00  0.00    +0.098 C 
ATOM     33  C   UNL     1      -8.219   3.009  -5.673  0.00  0.00    +0.220 C 
ATOM     34  O   UNL     1      -8.336   2.239  -4.743  0.00  0.00    -0.275 OA
ENDBRANCH  28  29
ENDBRANCH  21  23
ENDBRANCH  18  19
ENDBRANCH   5  18
TORSDOF 5
