REMARK  Name = ZINC04673636
REMARK  3 active torsions:
REMARK  status: ('A' for Active; 'I' for Inactive)
REMARK    1  A    between atoms: C_13  and  C_21
REMARK    2  A    between atoms: C_15  and  C_17
REMARK    3  A    between atoms: N_22  and  C_23
REMARK                            x       y       z     vdW  Elec       q    Type
REMARK                         _______ _______ _______ _____ _____    ______ ____
ROOT
ATOM      1  C   UNL     1      -0.017   1.366   0.010  0.00  0.00    +0.002 A 
ATOM      2  C   UNL     1       1.157   2.107   0.002  0.00  0.00    +0.001 A 
ATOM      3  C   UNL     1       2.373   1.450  -0.013  0.00  0.00    +0.017 A 
ATOM      4  C   UNL     1       2.401   0.078  -0.020  0.00  0.00    +0.041 A 
ATOM      5  C   UNL     1       1.228  -0.710  -0.013  0.00  0.00    +0.080 A 
ATOM      6  C   UNL     1       0.002  -0.004   0.002  0.00  0.00    +0.029 A 
ATOM      7  N   UNL     1       1.420  -2.046  -0.022  0.00  0.00    -0.223 NA
ATOM      8  C   UNL     1       2.616  -2.587  -0.037  0.00  0.00    +0.189 A 
ATOM      9  S   UNL     1       3.683  -1.153  -0.039  0.00  0.00    -0.050 S 
ATOM     10  N   UNL     1       2.963  -3.930  -0.047  0.00  0.00    -0.135 N 
ATOM     11  C   UNL     1       4.232  -4.390  -0.056  0.00  0.00    +0.255 C 
ATOM     12  O   UNL     1       5.254  -3.737  -0.057  0.00  0.00    -0.272 OA
ATOM     13  C   UNL     1       4.102  -5.901  -0.066  0.00  0.00    +0.172 C 
ATOM     14  C   UNL     1       2.604  -6.128  -0.060  0.00  0.00    +0.157 C 
ATOM     15  N   UNL     1       2.050  -4.979  -0.043  0.00  0.00    -0.170 NA
ENDROOT
BRANCH  14  16
ATOM     16  C   UNL     1       1.902  -7.461  -0.065  0.00  0.00    +0.433 C 
ATOM     17  F   UNL     1       0.517  -7.258  -0.057  0.00  0.00    -0.165 F 
ATOM     18  F   UNL     1       2.262  -8.174  -1.214  0.00  0.00    -0.165 F 
ATOM     19  F   UNL     1       2.273  -8.189   1.071  0.00  0.00    -0.165 F 
ENDBRANCH  14  16
BRANCH  13  20
ATOM     20  C   UNL     1       4.737  -6.496   1.165  0.00  0.00    +0.097 C 
ATOM     21  N   UNL     1       5.685  -7.346   1.048  0.00  0.00    -0.291 NA
BRANCH  21  22
ATOM     22  C   UNL     1       6.302  -7.924   2.245  0.00  0.00    +0.105 C 
ATOM     23  C   UNL     1       7.821  -7.651   2.241  0.00  0.00    +0.027 C 
ATOM     24  C   UNL     1       8.440  -8.940   2.835  0.00  0.00    +0.002 C 
ATOM     25  C   UNL     1       7.551 -10.056   2.233  0.00  0.00    +0.002 C 
ATOM     26  C   UNL     1       6.131  -9.453   2.240  0.00  0.00    +0.027 C 
ENDBRANCH  21  22
ENDBRANCH  13  20
TORSDOF 3
