REMARK  Name = ZINC09493825
REMARK  12 active torsions:
REMARK  status: ('A' for Active; 'I' for Inactive)
REMARK    1  A    between atoms: C_1  and  C_2
REMARK    2  A    between atoms: C_5  and  S_8
REMARK    3  A    between atoms: S_8  and  N_11
REMARK    4  A    between atoms: N_11  and  C_12
REMARK    5  A    between atoms: N_11  and  C_13
REMARK    6  A    between atoms: C_13  and  C_14
REMARK    7  A    between atoms: N_16  and  C_17
REMARK    8  A    between atoms: C_17  and  C_18
REMARK    9  A    between atoms: C_18  and  C_20
REMARK   10  A    between atoms: C_18  and  N_62
REMARK   11  A    between atoms: C_23  and  O_26
REMARK   12  A    between atoms: O_26  and  C_27
REMARK                            x       y       z     vdW  Elec       q    Type
REMARK                         _______ _______ _______ _____ _____    ______ ____
ROOT
ATOM      1  C   UNL     1       2.881  -4.543  -2.299  0.00  0.00    +0.229 C 
ATOM      2  O   UNL     1       2.098  -5.341  -1.829  0.00  0.00    -0.274 OA
ATOM      3  N   UNL     1       4.038  -4.972  -2.841  0.00  0.00    -0.315 N 
ATOM      4  H   UNL     1       4.664  -4.334  -3.217  0.00  0.00    +0.149 HD
ENDROOT
BRANCH   1   5
ATOM      5  C   UNL     1       2.560  -3.071  -2.277  0.00  0.00    +0.204 C 
BRANCH   5   6
ATOM      6  N   UNL     1       1.257  -2.864  -1.641  0.00  0.00    -0.171 NA
ATOM      7  C   UNL     1       0.029  -2.977  -2.432  0.00  0.00    +0.132 C 
BRANCH   6   8
ATOM      8  S   UNL     1       1.172  -2.503  -0.026  0.00  0.00    +0.061 S 
ATOM      9  O   UNL     1       2.366  -2.998   0.564  0.00  0.00    -0.153 OA
ATOM     10  O   UNL     1      -0.118  -2.906   0.412  0.00  0.00    -0.153 OA
BRANCH   8  15
ATOM     11  C   UNL     1       1.364   3.506   0.473  0.00  0.00    +0.044 C 
ATOM     12  C   UNL     1       1.316   2.005   0.349  0.00  0.00    -0.050 A 
ATOM     13  C   UNL     1       0.100   1.361   0.218  0.00  0.00    +0.005 A 
ATOM     14  C   UNL     1       0.056  -0.016   0.103  0.00  0.00    +0.029 A 
ATOM     15  C   UNL     1       1.228  -0.748   0.119  0.00  0.00    +0.105 A 
ATOM     16  C   UNL     1       2.444  -0.104   0.249  0.00  0.00    +0.029 A 
ATOM     17  C   UNL     1       2.488   1.273   0.363  0.00  0.00    +0.005 A 
ENDBRANCH   8  15
ENDBRANCH   6   8
ENDBRANCH   5   6
ENDBRANCH   1   5
BRANCH   3  18
ATOM     18  C   UNL     1       4.350  -6.404  -2.862  0.00  0.00    +0.093 C 
BRANCH  18  19
ATOM     19  C   UNL     1       5.654  -6.630  -3.630  0.00  0.00    -0.020 C 
BRANCH  19  20
ATOM     20  C   UNL     1       6.795  -5.993  -2.881  0.00  0.00    -0.059 A 
ATOM     21  C   UNL     1       7.355  -6.641  -1.795  0.00  0.00    +0.005 A 
ATOM     22  C   UNL     1       8.405  -6.061  -1.110  0.00  0.00    +0.046 A 
ATOM     23  C   UNL     1       8.890  -4.823  -1.504  0.00  0.00    +0.120 A 
ATOM     24  C   UNL     1       8.323  -4.172  -2.590  0.00  0.00    +0.046 A 
ATOM     25  C   UNL     1       7.277  -4.758  -3.276  0.00  0.00    +0.005 A 
BRANCH  23  26
ATOM     26  O   UNL     1       9.919  -4.248  -0.828  0.00  0.00    -0.495 OA
ATOM     27  C   UNL     1      10.454  -4.975   0.280  0.00  0.00    +0.277 C 
ENDBRANCH  23  26
ENDBRANCH  19  20
BRANCH  19  32
ATOM     28  C   UNL     1       4.779  -8.740  -4.473  0.00  0.00    -0.078 C 
ATOM     29  C   UNL     1       5.415 -10.060  -4.977  0.00  0.00    -0.020 C 
ATOM     30  C   UNL     1       6.846  -9.626  -5.371  0.00  0.00    -0.020 C 
ATOM     31  C   UNL     1       7.106  -8.331  -4.579  0.00  0.00    -0.078 C 
ATOM     32  N   UNL     1       5.904  -8.095  -3.778  0.00  0.00    +0.385 N 
ATOM     33  H   UNL     1       6.020  -8.512  -2.847  0.00  0.00    -0.081 HD
ENDBRANCH  19  32
ENDBRANCH  18  19
ENDBRANCH   3  18
TORSDOF 9
