REMARK  Name = ZINC13052137
REMARK  12 active torsions:
REMARK  status: ('A' for Active; 'I' for Inactive)
REMARK    1  A    between atoms: C_1  and  C_2
REMARK    2  A    between atoms: C_2  and  C_4
REMARK    3  A    between atoms: C_2  and  O_35
REMARK    4  A    between atoms: C_4  and  N_5
REMARK    5  A    between atoms: C_11  and  C_33
REMARK    6  A    between atoms: C_15  and  S_16
REMARK    7  A    between atoms: S_16  and  C_17
REMARK    8  A    between atoms: C_17  and  C_18
REMARK    9  A    between atoms: C_18  and  C_20
REMARK   10  A    between atoms: N_22  and  C_29
REMARK   11  A    between atoms: C_29  and  C_30
REMARK   12  A    between atoms: C_30  and  C_31
REMARK                            x       y       z     vdW  Elec       q    Type
REMARK                         _______ _______ _______ _____ _____    ______ ____
ROOT
ATOM      1  N   UNL     1      -0.020   1.094   2.454  0.00  0.00    -0.285 N 
ATOM      2  C   UNL     1       0.969   1.840   2.996  0.00  0.00    +0.262 A 
ATOM      3  O   UNL     1       1.286   2.912   2.516  0.00  0.00    -0.267 OA
ATOM      4  C   UNL     1       1.649   1.308   4.188  0.00  0.00    +0.065 A 
ATOM      5  C   UNL     1       2.681   2.005   4.815  0.00  0.00    +0.016 A 
ATOM      6  C   UNL     1       3.287   1.476   5.919  0.00  0.00    +0.016 A 
ATOM      7  C   UNL     1       2.881   0.236   6.430  0.00  0.00    +0.065 A 
ATOM      8  C   UNL     1       1.856  -0.475   5.821  0.00  0.00    +0.043 A 
ATOM      9  C   UNL     1       1.228   0.056   4.690  0.00  0.00    +0.080 A 
ATOM     10  N   UNL     1       0.225  -0.603   4.064  0.00  0.00    -0.223 NA
ATOM     11  C   UNL     1      -0.368  -0.105   3.007  0.00  0.00    +0.173 A 
ENDROOT
BRANCH   7  12
ATOM     12  C   UNL     1       3.551  -0.319   7.627  0.00  0.00    +0.387 C 
ATOM     13  O   UNL     1       3.203  -1.393   8.073  0.00  0.00    -0.241 OA
ATOM     14  O   UNL     1       4.545   0.367   8.221  0.00  0.00    -0.241 OA
ENDBRANCH   7  12
BRANCH   1  15
ATOM     15  C   UNL     1      -0.729   1.579   1.267  0.00  0.00    +0.158 C 
BRANCH  15  17
ATOM     16  C   UNL     1      -0.753   1.593  -1.232  0.00  0.00    +0.039 C 
ATOM     17  C   UNL     1      -0.013   1.086   0.008  0.00  0.00    +0.131 C 
BRANCH  17  18
ATOM     18  O   UNL     1       1.328   1.580  -0.002  0.00  0.00    -0.390 OA
ATOM     19  H   UNL     1       1.391   2.545   0.002  0.00  0.00    +0.210 HD
ENDBRANCH  17  18
ENDBRANCH  15  17
ENDBRANCH   1  15
BRANCH  11  20
ATOM     20  S   UNL     1      -1.670  -1.029   2.260  0.00  0.00    -0.080 S 
BRANCH  20  21
ATOM     21  C   UNL     1      -1.704  -2.467   3.358  0.00  0.00    +0.157 C 
BRANCH  21  22
ATOM     22  C   UNL     1      -2.775  -3.424   2.900  0.00  0.00    +0.175 C 
ATOM     23  O   UNL     1      -3.449  -3.159   1.926  0.00  0.00    -0.291 OA
BRANCH  22  24
ATOM     24  C   UNL     1      -2.994  -4.633   3.606  0.00  0.00    +0.043 A 
ATOM     25  C   UNL     1      -2.317  -5.074   4.723  0.00  0.00    +0.098 A 
ATOM     26  N   UNL     1      -2.809  -6.267   5.108  0.00  0.00    -0.345 N 
ATOM     27  C   UNL     1      -3.828  -6.669   4.268  0.00  0.00    +0.050 A 
ATOM     28  C   UNL     1      -3.998  -5.670   3.297  0.00  0.00    +0.010 A 
ATOM     29  C   UNL     1      -4.964  -5.816   2.305  0.00  0.00    +0.011 A 
ATOM     30  C   UNL     1      -5.761  -6.940   2.289  0.00  0.00    +0.001 A 
ATOM     31  C   UNL     1      -5.599  -7.926   3.251  0.00  0.00    +0.002 A 
ATOM     32  C   UNL     1      -4.642  -7.796   4.235  0.00  0.00    +0.026 A 
BRANCH  26  33
ATOM     33  C   UNL     1      -2.328  -7.034   6.259  0.00  0.00    +0.136 C 
BRANCH  33  34
ATOM     34  C   UNL     1      -1.289  -8.056   5.793  0.00  0.00    +0.140 C 
BRANCH  34  35
ATOM     35  C   UNL     1      -0.805  -8.827   6.950  0.00  0.00    +0.064 C 
ATOM     36  N   UNL     1      -0.431  -9.421   7.843  0.00  0.00    -0.197 NA
ENDBRANCH  34  35
ENDBRANCH  33  34
ENDBRANCH  26  33
ENDBRANCH  22  24
ENDBRANCH  21  22
ENDBRANCH  20  21
ENDBRANCH  11  20
TORSDOF 11
