REMARK  Name = ZINC01424589
REMARK  6 active torsions:
REMARK  status: ('A' for Active; 'I' for Inactive)
REMARK    1  A    between atoms: C_1  and  C_2
REMARK    2  A    between atoms: C_6  and  N_8
REMARK    3  A    between atoms: C_14  and  C_16
REMARK    4  A    between atoms: C_14  and  C_17
REMARK    5  A    between atoms: C_29  and  C_32
REMARK    6  A    between atoms: C_30  and  N_31
REMARK                            x       y       z     vdW  Elec       q    Type
REMARK                         _______ _______ _______ _____ _____    ______ ____
ROOT
ATOM      1  N   UNL     1      -2.999   6.413   0.070  0.00  0.00    -0.260 N 
ATOM      2  C   UNL     1      -2.431   5.616   1.029  0.00  0.00    +0.026 C 
ATOM      3  C   UNL     1      -2.321   4.284   0.839  0.00  0.00    +0.037 C 
ATOM      4  C   UNL     1      -1.737   3.459   1.816  0.00  0.00    +0.163 C 
ATOM      5  O   UNL     1      -1.667   2.261   1.621  0.00  0.00    -0.292 OA
ATOM      6  C   UNL     1      -1.198   4.030   3.099  0.00  0.00    +0.086 C 
ATOM      7  C   UNL     1      -0.748   5.474   2.851  0.00  0.00    -0.023 C 
ATOM      8  C   UNL     1      -1.937   6.264   2.299  0.00  0.00    +0.058 C 
ATOM      9  C   UNL     1       0.395   5.489   1.834  0.00  0.00    +0.011 C 
ATOM     10  C   UNL     1      -0.281   6.100   4.166  0.00  0.00    +0.011 C 
ATOM     11  C   UNL     1      -2.822   3.642  -0.429  0.00  0.00    +0.141 C 
ATOM     12  C   UNL     1      -1.675   3.241  -1.304  0.00  0.00    +0.001 A 
ATOM     13  C   UNL     1      -0.692   3.989  -1.917  0.00  0.00    +0.045 A 
ATOM     14  C   UNL     1       0.244   3.296  -2.680  0.00  0.00    +0.124 A 
ATOM     15  C   UNL     1       0.187   1.921  -2.814  0.00  0.00    +0.040 A 
ATOM     16  C   UNL     1      -0.799   1.166  -2.200  0.00  0.00    +0.026 A 
ATOM     17  C   UNL     1      -1.747   1.850  -1.437  0.00  0.00    +0.038 A 
ATOM     18  N   UNL     1      -2.820   1.353  -0.717  0.00  0.00    -0.284 N 
ATOM     19  C   UNL     1      -3.509   2.332  -0.096  0.00  0.00    +0.238 C 
ATOM     20  O   UNL     1      -4.494   2.192   0.598  0.00  0.00    -0.274 OA
ATOM     21  F   UNL     1       1.229   3.981  -3.303  0.00  0.00    -0.205 F 
ATOM     22  C   UNL     1      -3.768   4.542  -1.166  0.00  0.00    +0.089 C 
ATOM     23  C   UNL     1      -3.818   5.873  -0.896  0.00  0.00    +0.108 C 
ATOM     24  H   UNL     1      -3.053   0.413  -0.670  0.00  0.00    +0.155 HD
ENDROOT
BRANCH   1  30
ATOM     25  C   UNL     1      -4.222  10.938   1.555  0.00  0.00    +0.044 C 
ATOM     26  C   UNL     1      -3.322  10.006   0.785  0.00  0.00    -0.049 A 
ATOM     27  C   UNL     1      -2.245  10.511   0.079  0.00  0.00    +0.003 A 
ATOM     28  C   UNL     1      -1.418   9.659  -0.628  0.00  0.00    +0.002 A 
ATOM     29  C   UNL     1      -1.665   8.300  -0.634  0.00  0.00    +0.024 A 
ATOM     30  C   UNL     1      -2.746   7.789   0.073  0.00  0.00    +0.040 A 
ATOM     31  C   UNL     1      -3.578   8.649   0.779  0.00  0.00    +0.027 A 
ENDBRANCH   1  30
BRANCH  23  32
ATOM     32  N   UNL     1      -4.687   6.681  -1.589  0.00  0.00    -0.345 N 
ATOM     33  H   UNL     1      -5.201   6.320  -2.329  0.00  0.00    +0.144 HD
ATOM     34  H   UNL     1      -4.788   7.613  -1.339  0.00  0.00    +0.144 HD
ENDBRANCH  23  32
BRANCH  22  35
ATOM     35  C   UNL     1      -4.630   3.991  -2.167  0.00  0.00    +0.100 C 
ATOM     36  N   UNL     1      -5.315   3.554  -2.962  0.00  0.00    -0.191 NA
ENDBRANCH  22  35
TORSDOF 3
