REMARK  Name = ZINC08879937
REMARK  10 active torsions:
REMARK  status: ('A' for Active; 'I' for Inactive)
REMARK    1  A    between atoms: C_1  and  C_2
REMARK    2  A    between atoms: C_2  and  C_3
REMARK    3  A    between atoms: C_3  and  C_4
REMARK    4  A    between atoms: C_4  and  N_5
REMARK    5  A    between atoms: C_9  and  N_18
REMARK    6  A    between atoms: C_19  and  C_21
REMARK    7  A    between atoms: C_24  and  S_27
REMARK    8  A    between atoms: S_27  and  N_30
REMARK    9  A    between atoms: C_32  and  C_39
REMARK   10  A    between atoms: C_35  and  C_38
REMARK                            x       y       z     vdW  Elec       q    Type
REMARK                         _______ _______ _______ _____ _____    ______ ____
ROOT
ATOM      1  N   UNL     1      -1.223   2.106   0.019  0.00  0.00    -0.281 N 
ATOM      2  C   UNL     1      -1.222   3.450   0.128  0.00  0.00    +0.248 C 
ATOM      3  O   UNL     1      -0.170   4.059   0.127  0.00  0.00    -0.270 OA
ATOM      4  H   UNL     1      -2.062   1.626  -0.060  0.00  0.00    +0.155 HD
ENDROOT
BRANCH   1   9
ATOM      5  N   UNL     1       3.487  -0.897  -0.128  0.00  0.00    -0.267 N 
ATOM      6  C   UNL     1       2.472   0.037   0.050  0.00  0.00    +0.045 A 
ATOM      7  C   UNL     1       2.339   1.280   0.644  0.00  0.00    +0.026 A 
ATOM      8  C   UNL     1       1.113   1.938   0.621  0.00  0.00    +0.026 A 
ATOM      9  C   UNL     1      -0.018   1.406   0.021  0.00  0.00    +0.042 A 
ATOM     10  C   UNL     1       0.085   0.139  -0.593  0.00  0.00    +0.006 A 
ATOM     11  C   UNL     1       1.332  -0.487  -0.548  0.00  0.00    +0.017 A 
ATOM     12  C   UNL     1       1.603  -1.745  -1.108  0.00  0.00    +0.047 A 
ATOM     13  C   UNL     1       0.550  -2.385  -1.740  0.00  0.00    +0.014 A 
ATOM     14  C   UNL     1      -0.700  -1.771  -1.793  0.00  0.00    +0.001 A 
ATOM     15  C   UNL     1      -0.954  -0.543  -1.241  0.00  0.00    +0.010 A 
ATOM     16  C   UNL     1       3.020  -1.976  -0.812  0.00  0.00    +0.251 C 
ATOM     17  O   UNL     1       3.666  -2.960  -1.123  0.00  0.00    -0.270 OA
BRANCH   5  18
ATOM     18  C   UNL     1       4.862  -0.741   0.351  0.00  0.00    +0.114 C 
BRANCH  18  19
ATOM     19  C   UNL     1       4.979  -1.318   1.763  0.00  0.00    +0.019 C 
BRANCH  19  21
ATOM     20  C   UNL     1       6.533  -1.732   3.676  0.00  0.00    +0.004 C 
ATOM     21  C   UNL     1       6.416  -1.155   2.264  0.00  0.00    -0.002 C 
ENDBRANCH  19  21
ENDBRANCH  18  19
ENDBRANCH   5  18
ENDBRANCH   1   9
BRANCH   2  22
ATOM     22  C   UNL     1      -2.500   4.182   0.250  0.00  0.00    +0.037 A 
ATOM     23  C   UNL     1      -3.710   3.485   0.246  0.00  0.00    +0.015 A 
ATOM     24  C   UNL     1      -4.899   4.175   0.366  0.00  0.00    +0.029 A 
ATOM     25  C   UNL     1      -4.895   5.554   0.477  0.00  0.00    +0.106 A 
ATOM     26  C   UNL     1      -3.700   6.250   0.476  0.00  0.00    +0.029 A 
ATOM     27  C   UNL     1      -2.503   5.573   0.363  0.00  0.00    +0.015 A 
BRANCH  25  28
ATOM     28  S   UNL     1      -6.419   6.426   0.622  0.00  0.00    +0.061 S 
ATOM     29  O   UNL     1      -7.366   5.506   1.146  0.00  0.00    -0.153 OA
ATOM     30  O   UNL     1      -6.121   7.660   1.260  0.00  0.00    -0.153 OA
BRANCH  28  31
ATOM     31  N   UNL     1      -6.918   6.796  -0.913  0.00  0.00    -0.172 NA
ATOM     32  C   UNL     1      -6.521   8.060  -1.555  0.00  0.00    +0.140 C 
ATOM     33  C   UNL     1      -5.950   7.732  -2.944  0.00  0.00    +0.131 C 
ATOM     34  O   UNL     1      -6.889   6.925  -3.659  0.00  0.00    -0.371 OA
ATOM     35  C   UNL     1      -7.149   5.656  -3.054  0.00  0.00    +0.131 C 
ATOM     36  C   UNL     1      -7.778   5.875  -1.673  0.00  0.00    +0.140 C 
ATOM     37  C   UNL     1      -5.838   4.883  -2.903  0.00  0.00    +0.039 C 
ATOM     38  C   UNL     1      -5.704   9.032  -3.713  0.00  0.00    +0.039 C 
ENDBRANCH  28  31
ENDBRANCH  25  28
ENDBRANCH   2  22
TORSDOF 7
