REMARK  Name = ZINC35575190
REMARK  10 active torsions:
REMARK  status: ('A' for Active; 'I' for Inactive)
REMARK    1  A    between atoms: C_1  and  C_2
REMARK    2  A    between atoms: C_2  and  N_3
REMARK    3  A    between atoms: N_3  and  C_4
REMARK    4  A    between atoms: C_4  and  C_5
REMARK    5  A    between atoms: N_8  and  C_10
REMARK    6  A    between atoms: C_13  and  C_16
REMARK    7  A    between atoms: N_19  and  C_21
REMARK    8  A    between atoms: C_21  and  C_22
REMARK    9  A    between atoms: C_29  and  C_31
REMARK   10  A    between atoms: C_31  and  C_32
REMARK                            x       y       z     vdW  Elec       q    Type
REMARK                         _______ _______ _______ _____ _____    ______ ____
ROOT
ATOM      1  C   UNL     1       2.172  -2.037  -0.724  0.00  0.00    +0.082 A 
ATOM      2  C   UNL     1       2.331  -2.432   0.601  0.00  0.00    -0.018 A 
ATOM      3  C   UNL     1       2.560  -3.772   0.613  0.00  0.00    +0.045 A 
ATOM      4  N   UNL     1       2.541  -4.207  -0.657  0.00  0.00    -0.236 N 
ATOM      5  N   UNL     1       2.292  -3.100  -1.484  0.00  0.00    -0.169 NA
ATOM      6  C   UNL     1       2.790  -4.553   1.884  0.00  0.00    +0.037 C 
ATOM      7  C   UNL     1       3.097  -3.544   3.000  0.00  0.00    -0.072 C 
ATOM      8  N   UNL     1       2.081  -2.484   3.004  0.00  0.00    +0.385 N 
ATOM      9  C   UNL     1       2.272  -1.590   1.850  0.00  0.00    -0.039 C 
ATOM     10  H   UNL     1       1.163  -2.901   2.955  0.00  0.00    -0.081 HD
ENDROOT
BRANCH   4  11
ATOM     11  C   UNL     1       2.732  -5.529  -1.081  0.00  0.00    +0.066 A 
ATOM     12  C   UNL     1       2.143  -6.575  -0.383  0.00  0.00    +0.028 A 
ATOM     13  C   UNL     1       2.333  -7.877  -0.803  0.00  0.00    +0.005 A 
ATOM     14  C   UNL     1       3.108  -8.139  -1.918  0.00  0.00    -0.050 A 
ATOM     15  C   UNL     1       3.696  -7.100  -2.615  0.00  0.00    +0.005 A 
ATOM     16  C   UNL     1       3.505  -5.795  -2.203  0.00  0.00    +0.028 A 
ATOM     17  C   UNL     1       3.313  -9.561  -2.374  0.00  0.00    +0.044 C 
ENDBRANCH   4  11
BRANCH   1  18
ATOM     18  C   UNL     1       1.901  -0.634  -1.202  0.00  0.00    +0.165 C 
BRANCH  18  19
ATOM     19  N   UNL     1       3.164   0.004  -1.585  0.00  0.00    -0.296 N 
ATOM     20  C   UNL     1       3.820   0.783  -0.703  0.00  0.00    +0.216 C 
ATOM     21  O   UNL     1       3.365   0.957   0.408  0.00  0.00    -0.276 OA
BRANCH  19  23
ATOM     22  C   UNL     1       3.166   0.863  -3.875  0.00  0.00    +0.024 C 
ATOM     23  C   UNL     1       3.713  -0.206  -2.927  0.00  0.00    +0.105 C 
ENDBRANCH  19  23
BRANCH  20  24
ATOM     24  C   UNL     1       5.118   1.439  -1.096  0.00  0.00    +0.099 C 
BRANCH  24  25
ATOM     25  C   UNL     1       5.651   2.261   0.079  0.00  0.00    -0.002 C 
ATOM     26  C   UNL     1       6.138   1.330   1.216  0.00  0.00    +0.004 C 
ATOM     27  C   UNL     1       7.146   2.223   1.981  0.00  0.00    +0.000 C 
ATOM     28  C   UNL     1       7.865   3.018   0.871  0.00  0.00    +0.000 C 
ATOM     29  C   UNL     1       6.914   3.043  -0.338  0.00  0.00    +0.004 C 
ENDBRANCH  24  25
ENDBRANCH  20  24
ENDBRANCH  18  19
ENDBRANCH   1  18
BRANCH   8  30
ATOM     30  C   UNL     1       2.193  -1.707   4.245  0.00  0.00    -0.043 C 
BRANCH  30  31
ATOM     31  C   UNL     1       1.857  -2.587   5.421  0.00  0.00    -0.064 A 
ATOM     32  C   UNL     1       0.551  -2.680   5.864  0.00  0.00    +0.004 A 
ATOM     33  C   UNL     1       0.241  -3.488   6.942  0.00  0.00    +0.038 A 
ATOM     34  C   UNL     1       1.241  -4.204   7.579  0.00  0.00    +0.123 A 
ATOM     35  C   UNL     1       2.549  -4.109   7.135  0.00  0.00    +0.038 A 
ATOM     36  C   UNL     1       2.855  -3.305   6.053  0.00  0.00    +0.004 A 
ATOM     37  F   UNL     1       0.940  -4.993   8.633  0.00  0.00    -0.205 F 
ENDBRANCH  30  31
ENDBRANCH   8  30
TORSDOF 8
