REMARK  Name = ZINC33051138
REMARK  7 active torsions:
REMARK  status: ('A' for Active; 'I' for Inactive)
REMARK    1  A    between atoms: C_1  and  C_2
REMARK    2  A    between atoms: N_5  and  C_7
REMARK    3  A    between atoms: C_18  and  C_32
REMARK    4  A    between atoms: N_24  and  C_25
REMARK    5  A    between atoms: C_25  and  C_26
REMARK    6  A    between atoms: C_35  and  S_38
REMARK    7  A    between atoms: S_38  and  C_39
REMARK                            x       y       z     vdW  Elec       q    Type
REMARK                         _______ _______ _______ _____ _____    ______ ____
ROOT
ATOM      1  C   UNL     1       2.952   5.894   0.566  0.00  0.00    +0.068 C 
ATOM      2  C   UNL     1       2.658   4.977  -0.593  0.00  0.00    +0.067 A 
ATOM      3  C   UNL     1       3.134   3.678  -0.744  0.00  0.00    +0.035 A 
ATOM      4  C   UNL     1       2.614   3.183  -1.905  0.00  0.00    +0.146 A 
ATOM      5  N   UNL     1       1.883   4.152  -2.486  0.00  0.00    -0.215 N 
ATOM      6  N   UNL     1       1.909   5.267  -1.631  0.00  0.00    -0.169 NA
ATOM      7  N   UNL     1       2.831   1.849  -2.269  0.00  0.00    -0.303 N 
ATOM      8  C   UNL     1       3.173   1.307  -3.461  0.00  0.00    +0.093 A 
ATOM      9  C   UNL     1       3.365  -0.019  -3.275  0.00  0.00    +0.020 A 
ATOM     10  C   UNL     1       3.101  -0.300  -1.916  0.00  0.00    +0.025 A 
ATOM     11  C   UNL     1       2.741   0.852  -1.330  0.00  0.00    +0.050 A 
ATOM     12  C   UNL     1       2.298   1.094   0.084  0.00  0.00    +0.155 C 
ATOM     13  N   UNL     1       3.330   1.819   0.863  0.00  0.00    -0.269 N 
ATOM     14  C   UNL     1       4.053   2.895   0.146  0.00  0.00    +0.151 C 
ATOM     15  C   UNL     1       3.595   1.515   2.149  0.00  0.00    +0.304 C 
ATOM     16  O   UNL     1       2.981   0.624   2.703  0.00  0.00    -0.253 OA
ATOM     17  N   UNL     1       4.542   2.200   2.821  0.00  0.00    -0.295 N 
ATOM     18  H   UNL     1       5.098   3.006   2.319  0.00  0.00    +0.151 HD
ENDROOT
BRANCH   5  19
ATOM     19  C   UNL     1       1.220   4.067  -3.718  0.00  0.00    +0.068 A 
ATOM     20  C   UNL     1       1.239   5.144  -4.594  0.00  0.00    +0.028 A 
ATOM     21  C   UNL     1       0.589   5.054  -5.810  0.00  0.00    +0.002 A 
ATOM     22  C   UNL     1      -0.089   3.898  -6.149  0.00  0.00    +0.000 A 
ATOM     23  C   UNL     1      -0.115   2.826  -5.276  0.00  0.00    +0.002 A 
ATOM     24  C   UNL     1       0.538   2.907  -4.062  0.00  0.00    +0.028 A 
ENDBRANCH   5  19
BRANCH  12  25
ATOM     25  C   UNL     1       1.030   1.908   0.070  0.00  0.00    -0.021 A 
ATOM     26  C   UNL     1       0.837   2.900   1.015  0.00  0.00    +0.007 A 
ATOM     27  C   UNL     1      -0.326   3.644   1.008  0.00  0.00    +0.015 A 
ATOM     28  C   UNL     1      -1.298   3.404   0.044  0.00  0.00    +0.008 A 
ATOM     29  C   UNL     1      -1.100   2.407  -0.903  0.00  0.00    +0.015 A 
ATOM     30  C   UNL     1       0.063   1.663  -0.887  0.00  0.00    +0.007 A 
BRANCH  28  31
ATOM     31  S   UNL     1      -2.780   4.356   0.028  0.00  0.00    -0.129 S 
ATOM     32  C   UNL     1      -2.581   5.502   1.420  0.00  0.00    +0.090 C 
ENDBRANCH  28  31
ENDBRANCH  12  25
BRANCH  17  33
ATOM     33  C   UNL     1       4.831   1.870   4.218  0.00  0.00    +0.141 C 
BRANCH  33  34
ATOM     34  C   UNL     1       5.921   2.775   4.733  0.00  0.00    -0.030 A 
ATOM     35  C   UNL     1       7.246   2.396   4.617  0.00  0.00    +0.005 A 
ATOM     36  C   UNL     1       8.246   3.228   5.085  0.00  0.00    +0.000 A 
ATOM     37  C   UNL     1       7.921   4.434   5.677  0.00  0.00    +0.000 A 
ATOM     38  C   UNL     1       6.596   4.810   5.798  0.00  0.00    +0.000 A 
ATOM     39  C   UNL     1       5.596   3.980   5.326  0.00  0.00    +0.005 A 
ENDBRANCH  33  34
ENDBRANCH  17  33
TORSDOF 5
