REMARK  Name = ZINC12863798
REMARK  9 active torsions:
REMARK  status: ('A' for Active; 'I' for Inactive)
REMARK    1  A    between atoms: C_1  and  C_2
REMARK    2  A    between atoms: C_5  and  C_8
REMARK    3  A    between atoms: C_10  and  C_13
REMARK    4  A    between atoms: C_13  and  N_48
REMARK    5  A    between atoms: C_14  and  N_48
REMARK    6  A    between atoms: C_15  and  C_16
REMARK    7  A    between atoms: C_15  and  N_48
REMARK    8  A    between atoms: N_18  and  C_19
REMARK    9  A    between atoms: C_24  and  C_25
REMARK                            x       y       z     vdW  Elec       q    Type
REMARK                         _______ _______ _______ _____ _____    ______ ____
ROOT
ATOM      1  C   UNL     1      -0.025   1.478   0.006  0.00  0.00    -0.095 C 
ATOM      2  N   UNL     1       0.010   0.001  -0.014  0.00  0.00    +0.388 N 
ATOM      3  H   UNL     1       0.527  -0.309  -0.846  0.00  0.00    -0.081 HD
ENDROOT
BRANCH   2   4
ATOM      4  C   UNL     1       0.696  -0.505   1.194  0.00  0.00    +0.003 C 
BRANCH   4   7
ATOM      5  C   UNL     1       3.993   0.909   1.322  0.00  0.00    +0.258 A 
ATOM      6  N   UNL     1       2.706   0.995   1.608  0.00  0.00    -0.194 NA
ATOM      7  C   UNL     1       2.153  -0.127   1.120  0.00  0.00    +0.156 A 
ATOM      8  N   UNL     1       3.102  -0.830   0.577  0.00  0.00    -0.063 NA
ATOM      9  O   UNL     1       4.166  -0.255   0.675  0.00  0.00    -0.333 OA
BRANCH   5  14
ATOM     10  C   UNL     1       8.063   4.773   2.594  0.00  0.00    +0.044 C 
ATOM     11  C   UNL     1       6.997   3.760   2.261  0.00  0.00    -0.050 A 
ATOM     12  C   UNL     1       7.335   2.600   1.587  0.00  0.00    +0.004 A 
ATOM     13  C   UNL     1       6.364   1.670   1.279  0.00  0.00    +0.013 A 
ATOM     14  C   UNL     1       5.038   1.901   1.649  0.00  0.00    +0.039 A 
ATOM     15  C   UNL     1       4.703   3.076   2.324  0.00  0.00    +0.013 A 
ATOM     16  C   UNL     1       5.684   3.996   2.631  0.00  0.00    +0.004 A 
ENDBRANCH   5  14
ENDBRANCH   4   7
ENDBRANCH   2   4
BRANCH   2  17
ATOM     17  C   UNL     1      -1.365  -0.536  -0.076  0.00  0.00    +0.019 C 
BRANCH  17  18
ATOM     18  C   UNL     1      -1.963  -0.188  -1.415  0.00  0.00    +0.201 C 
ATOM     19  O   UNL     1      -1.318   0.451  -2.219  0.00  0.00    -0.278 OA
ATOM     20  N   UNL     1      -3.214  -0.588  -1.719  0.00  0.00    -0.287 N 
ATOM     21  H   UNL     1      -3.700  -1.166  -1.111  0.00  0.00    +0.155 HD
BRANCH  20  22
ATOM     22  C   UNL     1      -3.812  -0.168  -2.913  0.00  0.00    +0.036 A 
ATOM     23  C   UNL     1      -3.396   1.008  -3.524  0.00  0.00    +0.024 A 
ATOM     24  C   UNL     1      -3.987   1.419  -4.702  0.00  0.00    +0.017 A 
ATOM     25  C   UNL     1      -4.993   0.661  -5.274  0.00  0.00    +0.018 A 
ATOM     26  C   UNL     1      -5.410  -0.511  -4.668  0.00  0.00    +0.020 A 
ATOM     27  C   UNL     1      -4.818  -0.930  -3.493  0.00  0.00    -0.028 A 
ATOM     28  C   UNL     1      -5.267  -2.210  -2.836  0.00  0.00    +0.046 C 
ATOM     29 BR   UNL     1      -5.801   1.228  -6.888  0.00  0.00    -0.050 Br
ENDBRANCH  20  22
ENDBRANCH  17  18
ENDBRANCH   2  17
TORSDOF 6
