REMARK  Name = ZINC37423687
REMARK  11 active torsions:
REMARK  status: ('A' for Active; 'I' for Inactive)
REMARK    1  A    between atoms: C_1  and  C_2
REMARK    2  A    between atoms: C_2  and  C_3
REMARK    3  A    between atoms: C_2  and  N_4
REMARK    4  A    between atoms: N_4  and  C_5
REMARK    5  A    between atoms: C_5  and  C_6
REMARK    6  A    between atoms: C_11  and  O_12
REMARK    7  A    between atoms: O_12  and  S_13
REMARK    8  A    between atoms: S_13  and  C_16
REMARK    9  A    between atoms: C_19  and  N_22
REMARK   10  A    between atoms: C_23  and  C_25
REMARK   11  A    between atoms: C_27  and  C_29
REMARK                            x       y       z     vdW  Elec       q    Type
REMARK                         _______ _______ _______ _____ _____    ______ ____
ROOT
ATOM      1  C   UNL     1      -2.196  -2.381   0.786  0.00  0.00    +0.016 A 
ATOM      2  C   UNL     1      -1.414  -3.468   0.444  0.00  0.00    +0.029 A 
ATOM      3  C   UNL     1      -1.362  -4.573   1.275  0.00  0.00    +0.042 A 
ATOM      4  C   UNL     1      -2.092  -4.592   2.451  0.00  0.00    +0.023 A 
ATOM      5  C   UNL     1      -2.875  -3.508   2.796  0.00  0.00    +0.050 A 
ATOM      6  C   UNL     1      -2.924  -2.396   1.967  0.00  0.00    +0.162 A 
ATOM      7 CL   UNL     1      -0.379  -5.937   0.843  0.00  0.00    -0.084 Cl
ENDROOT
BRANCH   1   8
ATOM      8  C   UNL     1      -2.253  -1.178  -0.119  0.00  0.00    +0.147 C 
BRANCH   8   9
ATOM      9  N   UNL     1      -1.364  -0.135   0.399  0.00  0.00    -0.290 N 
ATOM     10  C   UNL     1      -1.835   0.780   1.270  0.00  0.00    +0.254 C 
ATOM     11  O   UNL     1      -3.020   0.802   1.548  0.00  0.00    -0.269 OA
BRANCH  10  12
ATOM     12  C   UNL     1      -0.921   1.748   1.881  0.00  0.00    +0.074 A 
ATOM     13  C   UNL     1      -1.171   2.675   2.882  0.00  0.00    +0.021 A 
ATOM     14  C   UNL     1      -0.102   3.456   3.253  0.00  0.00    +0.008 A 
ATOM     15  C   UNL     1       1.092   3.275   2.636  0.00  0.00    +0.046 A 
ATOM     16  S   UNL     1       0.805   2.036   1.539  0.00  0.00    -0.092 S 
ENDBRANCH  10  12
BRANCH   9  18
ATOM     17  C   UNL     1       0.344   1.297  -0.608  0.00  0.00    +0.028 C 
ATOM     18  C   UNL     1       0.036  -0.086  -0.029  0.00  0.00    +0.071 C 
ATOM     19  C   UNL     1       0.946  -0.351   1.171  0.00  0.00    +0.028 C 
ENDBRANCH   9  18
ENDBRANCH   8   9
ENDBRANCH   1   8
BRANCH   6  20
ATOM     20  O   UNL     1      -3.689  -1.326   2.308  0.00  0.00    -0.342 OA
BRANCH  20  21
ATOM     21  S   UNL     1      -5.118  -1.396   1.790  0.00  0.00    +0.151 S 
ATOM     22  O   UNL     1      -5.707  -0.129   2.049  0.00  0.00    -0.131 OA
ATOM     23  O   UNL     1      -5.050  -1.950   0.483  0.00  0.00    -0.131 OA
BRANCH  21  24
ATOM     24  C   UNL     1      -5.978  -2.565   2.788  0.00  0.00    +0.128 A 
ATOM     25  C   UNL     1      -5.994  -3.900   2.429  0.00  0.00    +0.032 A 
ATOM     26  C   UNL     1      -6.667  -4.819   3.210  0.00  0.00    +0.025 A 
ATOM     27  C   UNL     1      -7.328  -4.401   4.357  0.00  0.00    +0.033 A 
ATOM     28  C   UNL     1      -7.310  -3.060   4.716  0.00  0.00    +0.025 A 
ATOM     29  C   UNL     1      -6.631  -2.146   3.933  0.00  0.00    +0.032 A 
BRANCH  27  30
ATOM     30  N   UNL     1      -8.012  -5.330   5.151  0.00  0.00    -0.286 N 
ATOM     31  C   UNL     1      -7.534  -6.583   5.284  0.00  0.00    +0.214 C 
ATOM     32  O   UNL     1      -6.464  -6.879   4.795  0.00  0.00    -0.276 OA
ATOM     33  C   UNL     1      -8.328  -7.615   6.042  0.00  0.00    +0.109 C 
ATOM     34  H   UNL     1      -8.829  -5.071   5.604  0.00  0.00    +0.155 HD
ENDBRANCH  27  30
ENDBRANCH  21  24
ENDBRANCH  20  21
ENDBRANCH   6  20
TORSDOF 8
