REMARK  Name = ZINC13644347
REMARK  8 active torsions:
REMARK  status: ('A' for Active; 'I' for Inactive)
REMARK    1  A    between atoms: C_1  and  C_2
REMARK    2  A    between atoms: C_2  and  O_3
REMARK    3  A    between atoms: O_3  and  C_4
REMARK    4  A    between atoms: C_4  and  C_6
REMARK    5  A    between atoms: C_10  and  N_11
REMARK    6  A    between atoms: C_12  and  C_14
REMARK    7  A    between atoms: C_20  and  C_23
REMARK    8  A    between atoms: C_29  and  C_33
REMARK                            x       y       z     vdW  Elec       q    Type
REMARK                         _______ _______ _______ _____ _____    ______ ____
ROOT
ATOM      1  N   UNL     1      -1.071  -0.879   0.007  0.00  0.00    -0.274 N 
ATOM      2  C   UNL     1      -2.331  -0.401   0.021  0.00  0.00    +0.269 C 
ATOM      3  O   UNL     1      -2.525   0.799   0.030  0.00  0.00    -0.268 OA
ATOM      4  H   UNL     1      -0.916  -1.837   0.000  0.00  0.00    +0.156 HD
ENDROOT
BRANCH   1   9
ATOM      5  C   UNL     1       1.359  -0.302  -0.012  0.00  0.00    +0.091 A 
ATOM      6  C   UNL     1       2.290   0.814  -0.015  0.00  0.00    -0.021 A 
ATOM      7  C   UNL     1       1.722   2.038  -0.003  0.00  0.00    -0.004 A 
ATOM      8  S   UNL     1      -0.021   1.728   0.011  0.00  0.00    -0.077 S 
ATOM      9  C   UNL     1       0.002  -0.004   0.002  0.00  0.00    +0.087 A 
ATOM     10  C   UNL     1       2.425   3.361  -0.004  0.00  0.00    +0.046 C 
ATOM     11  C   UNL     1       3.891   3.129  -0.398  0.00  0.00    -0.009 C 
ATOM     12  C   UNL     1       4.445   1.964   0.428  0.00  0.00    +0.008 C 
ATOM     13  C   UNL     1       3.806   0.652  -0.029  0.00  0.00    +0.037 C 
ATOM     14  C   UNL     1       4.704   4.394  -0.115  0.00  0.00    +0.008 C 
BRANCH   5  15
ATOM     15  C   UNL     1       1.832  -1.687  -0.025  0.00  0.00    +0.342 C 
ATOM     16  O   UNL     1       2.019  -2.257  -1.083  0.00  0.00    -0.245 OA
BRANCH  15  17
ATOM     17  O   UNL     1       2.062  -2.332   1.138  0.00  0.00    -0.461 OA
BRANCH  17  19
ATOM     18  C   UNL     1       2.733  -4.265   2.458  0.00  0.00    +0.048 C 
ATOM     19  C   UNL     1       2.530  -3.704   1.049  0.00  0.00    +0.229 C 
ENDBRANCH  17  19
ENDBRANCH  15  17
ENDBRANCH   5  15
ENDBRANCH   1   9
BRANCH   2  20
ATOM     20  C   UNL     1      -3.477  -1.335   0.027  0.00  0.00    +0.150 A 
ATOM     21  C   UNL     1      -4.828  -0.970   0.042  0.00  0.00    +0.083 A 
ATOM     22  C   UNL     1      -5.577  -2.137   0.041  0.00  0.00    +0.157 A 
ATOM     23  N   UNL     1      -6.899  -2.359   0.052  0.00  0.00    -0.236 NA
ATOM     24  C   UNL     1      -7.388  -3.579   0.048  0.00  0.00    +0.115 A 
ATOM     25  C   UNL     1      -6.535  -4.683   0.034  0.00  0.00    +0.048 A 
ATOM     26  C   UNL     1      -5.166  -4.478   0.022  0.00  0.00    +0.083 A 
ATOM     27  N   UNL     1      -4.691  -3.185   0.026  0.00  0.00    -0.213 N 
ATOM     28  N   UNL     1      -3.396  -2.656   0.013  0.00  0.00    -0.160 NA
BRANCH  26  29
ATOM     29  C   UNL     1      -4.239  -5.616   0.006  0.00  0.00    +0.038 A 
ATOM     30  C   UNL     1      -4.519  -6.968  -0.088  0.00  0.00    +0.017 A 
ATOM     31  C   UNL     1      -3.469  -7.855  -0.088  0.00  0.00    +0.008 A 
ATOM     32  C   UNL     1      -2.199  -7.381   0.017  0.00  0.00    +0.046 A 
ATOM     33  S   UNL     1      -2.457  -5.617   0.111  0.00  0.00    -0.095 S 
ENDBRANCH  26  29
ENDBRANCH   2  20
TORSDOF 6
