REMARK  Name = ZINC11785009
REMARK  11 active torsions:
REMARK  status: ('A' for Active; 'I' for Inactive)
REMARK    1  A    between atoms: C_1  and  C_2
REMARK    2  A    between atoms: C_2  and  C_3
REMARK    3  A    between atoms: C_2  and  C_4
REMARK    4  A    between atoms: C_4  and  C_5
REMARK    5  A    between atoms: C_7  and  C_11
REMARK    6  A    between atoms: C_11  and  N_72
REMARK    7  A    between atoms: C_23  and  N_28
REMARK    8  A    between atoms: C_25  and  O_27
REMARK    9  A    between atoms: C_29  and  C_31
REMARK   10  A    between atoms: C_31  and  O_32
REMARK   11  A    between atoms: O_32  and  C_33
REMARK                            x       y       z     vdW  Elec       q    Type
REMARK                         _______ _______ _______ _____ _____    ______ ____
ROOT
ATOM      1  C   UNL     1       1.942   0.701   2.242  0.00  0.00    -0.077 C 
ATOM      2  C   UNL     1       1.857   1.990   1.420  0.00  0.00    -0.005 C 
ATOM      3  C   UNL     1       1.418   1.653  -0.003  0.00  0.00    +0.021 C 
ATOM      4  C   UNL     1       2.376   0.641  -0.626  0.00  0.00    -0.005 C 
ATOM      5  C   UNL     1       2.444  -0.605   0.262  0.00  0.00    -0.077 C 
ATOM      6  C   UNL     1       1.354   2.905  -0.845  0.00  0.00    -0.034 A 
ATOM      7  C   UNL     1       2.233   3.969  -0.948  0.00  0.00    +0.004 A 
ATOM      8  C   UNL     1       1.957   5.020  -1.799  0.00  0.00    +0.000 A 
ATOM      9  C   UNL     1       0.799   5.012  -2.553  0.00  0.00    +0.000 A 
ATOM     10  C   UNL     1      -0.081   3.951  -2.453  0.00  0.00    +0.006 A 
ATOM     11  C   UNL     1       0.195   2.896  -1.599  0.00  0.00    -0.021 A 
ATOM     12  C   UNL     1      -0.593   1.635  -1.314  0.00  0.00    +0.133 C 
ATOM     13  C   UNL     1      -0.013   1.086   0.008  0.00  0.00    +0.149 C 
ATOM     14  N   UNL     1       2.919  -0.209   1.606  0.00  0.00    +0.383 N 
ATOM     15  H   UNL     1       3.817   0.281   1.511  0.00  0.00    -0.081 HD
ENDROOT
BRANCH  12  16
ATOM     16  N   UNL     1      -0.406   0.663  -2.394  0.00  0.00    -0.303 N 
ATOM     17  C   UNL     1      -1.230   0.673  -3.460  0.00  0.00    +0.251 C 
ATOM     18  O   UNL     1      -2.127   1.487  -3.525  0.00  0.00    -0.272 OA
ATOM     19  H   UNL     1       0.311   0.012  -2.341  0.00  0.00    +0.149 HD
BRANCH  17  20
ATOM     20  C   UNL     1      -1.038  -0.327  -4.571  0.00  0.00    +0.324 C 
BRANCH  20  21
ATOM     21  O   UNL     1      -2.027  -0.115  -5.579  0.00  0.00    -0.483 OA
BRANCH  21  22
ATOM     22  C   UNL     1      -1.994  -0.939  -6.659  0.00  0.00    +0.121 A 
ATOM     23  C   UNL     1      -1.025  -1.928  -6.750  0.00  0.00    +0.045 A 
ATOM     24  C   UNL     1      -0.996  -2.768  -7.846  0.00  0.00    +0.004 A 
ATOM     25  C   UNL     1      -1.926  -2.617  -8.858  0.00  0.00    +0.000 A 
ATOM     26  C   UNL     1      -2.890  -1.629  -8.773  0.00  0.00    +0.004 A 
ATOM     27  C   UNL     1      -2.926  -0.790  -7.676  0.00  0.00    +0.045 A 
ENDBRANCH  21  22
ENDBRANCH  20  21
ENDBRANCH  17  20
ENDBRANCH  12  16
BRANCH  13  28
ATOM     28  O   UNL     1      -0.746   1.576   1.133  0.00  0.00    -0.389 OA
ATOM     29  H   UNL     1      -1.666   1.281   1.161  0.00  0.00    +0.210 HD
ENDBRANCH  13  28
BRANCH  14  30
ATOM     30  C   UNL     1       3.112  -1.408   2.446  0.00  0.00    -0.021 C 
BRANCH  30  33
ATOM     31  C   UNL     1       6.319  -2.996   1.568  0.00  0.00    +0.036 A 
ATOM     32  C   UNL     1       5.597  -2.121   2.305  0.00  0.00    +0.045 A 
ATOM     33  C   UNL     1       4.263  -2.208   1.892  0.00  0.00    +0.047 A 
ATOM     34  N   UNL     1       4.186  -3.107   0.945  0.00  0.00    -0.181 NA
ATOM     35  N   UNL     1       5.472  -3.615   0.718  0.00  0.00    -0.281 N 
ATOM     36  H   UNL     1       5.719  -4.313   0.046  0.00  0.00    +0.189 HD
BRANCH  31  37
ATOM     37  C   UNL     1       7.802  -3.238   1.676  0.00  0.00    +0.057 C 
BRANCH  37  39
ATOM     38  C   UNL     1       7.471  -5.607   2.396  0.00  0.00    +0.007 C 
ATOM     39  C   UNL     1       8.073  -4.256   2.786  0.00  0.00    -0.011 C 
ATOM     40  C   UNL     1       9.583  -4.408   2.981  0.00  0.00    +0.007 C 
ENDBRANCH  37  39
ENDBRANCH  31  37
ENDBRANCH  30  33
ENDBRANCH  14  30
TORSDOF 9
