REMARK  Name = ZINC34757582
REMARK  9 active torsions:
REMARK  status: ('A' for Active; 'I' for Inactive)
REMARK    1  A    between atoms: C_1  and  C_2
REMARK    2  A    between atoms: C_5  and  C_32
REMARK    3  A    between atoms: C_6  and  C_8
REMARK    4  A    between atoms: C_8  and  S_9
REMARK    5  A    between atoms: S_9  and  C_10
REMARK    6  A    between atoms: N_25  and  C_28
REMARK    7  A    between atoms: C_28  and  C_29
REMARK    8  A    between atoms: C_29  and  C_30
REMARK    9  A    between atoms: C_29  and  C_31
REMARK                            x       y       z     vdW  Elec       q    Type
REMARK                         _______ _______ _______ _____ _____    ______ ____
ROOT
ATOM      1  C   UNL     1       1.932  -3.422   4.308  0.00  0.00    +0.191 A 
ATOM      2  N   UNL     1       2.965  -3.917   4.980  0.00  0.00    -0.206 NA
ATOM      3  C   UNL     1       2.808  -4.695   6.038  0.00  0.00    +0.134 A 
ATOM      4  C   UNL     1       1.492  -5.015   6.473  0.00  0.00    +0.051 A 
ATOM      5  C   UNL     1       1.084  -5.854   7.613  0.00  0.00    -0.025 A 
ATOM      6  C   UNL     1      -0.234  -6.004   7.816  0.00  0.00    -0.004 A 
ATOM      7  S   UNL     1      -1.011  -5.054   6.529  0.00  0.00    -0.073 S 
ATOM      8  C   UNL     1       0.446  -4.457   5.716  0.00  0.00    +0.115 A 
ATOM      9  N   UNL     1       0.684  -3.684   4.673  0.00  0.00    -0.215 NA
ATOM     10  C   UNL     1      -0.531  -6.883   9.001  0.00  0.00    +0.043 C 
ATOM     11  C   UNL     1       0.795  -7.626   9.274  0.00  0.00    +0.010 C 
ATOM     12  C   UNL     1       1.830  -6.643   8.693  0.00  0.00    +0.037 C 
ATOM     13  N   UNL     1       3.908  -5.192   6.712  0.00  0.00    -0.318 N 
ATOM     14  C   UNL     1       4.479  -6.504   6.366  0.00  0.00    +0.088 C 
ATOM     15  C   UNL     1       5.989  -6.338   6.164  0.00  0.00    -0.060 C 
ATOM     16  N   UNL     1       6.576  -5.718   7.358  0.00  0.00    +0.382 N 
ATOM     17  C   UNL     1       6.049  -4.358   7.526  0.00  0.00    -0.060 C 
ATOM     18  C   UNL     1       4.546  -4.422   7.791  0.00  0.00    +0.088 C 
ATOM     19  H   UNL     1       6.345  -6.269   8.171  0.00  0.00    -0.082 HD
ENDROOT
BRANCH   1  20
ATOM     20  S   UNL     1       2.225  -2.393   2.909  0.00  0.00    -0.081 S 
BRANCH  20  21
ATOM     21  C   UNL     1       0.562  -1.956   2.329  0.00  0.00    +0.112 C 
BRANCH  21  27
ATOM     22  C   UNL     1       0.881   2.622   0.334  0.00  0.00    +0.044 C 
ATOM     23  C   UNL     1       0.822   1.126   0.165  0.00  0.00    -0.050 A 
ATOM     24  C   UNL     1       0.867   0.571  -1.101  0.00  0.00    +0.003 A 
ATOM     25  C   UNL     1       0.813  -0.801  -1.256  0.00  0.00    +0.004 A 
ATOM     26  C   UNL     1       0.714  -1.619  -0.146  0.00  0.00    -0.046 A 
ATOM     27  C   UNL     1       0.670  -1.064   1.119  0.00  0.00    -0.034 A 
ATOM     28  C   UNL     1       0.729   0.308   1.275  0.00  0.00    +0.008 A 
ATOM     29  C   UNL     1       0.654  -3.115  -0.315  0.00  0.00    +0.044 C 
ENDBRANCH  21  27
ENDBRANCH  20  21
ENDBRANCH   1  20
BRANCH  16  30
ATOM     30  C   UNL     1       8.037  -5.660   7.210  0.00  0.00    -0.076 C 
BRANCH  30  31
ATOM     31  C   UNL     1       8.604  -7.081   7.191  0.00  0.00    -0.034 C 
ATOM     32  C   UNL     1      10.104  -7.027   6.897  0.00  0.00    +0.005 C 
ATOM     33  C   UNL     1       8.373  -7.740   8.552  0.00  0.00    +0.005 C 
ENDBRANCH  30  31
ENDBRANCH  16  30
TORSDOF 5
