REMARK  Name = ZINC09336558
REMARK  7 active torsions:
REMARK  status: ('A' for Active; 'I' for Inactive)
REMARK    1  A    between atoms: C_1  and  C_2
REMARK    2  A    between atoms: C_5  and  N_8
REMARK    3  A    between atoms: C_9  and  C_33
REMARK    4  A    between atoms: C_10  and  N_14
REMARK    5  A    between atoms: C_11  and  C_13
REMARK    6  A    between atoms: C_15  and  C_17
REMARK    7  A    between atoms: C_17  and  N_18
REMARK                            x       y       z     vdW  Elec       q    Type
REMARK                         _______ _______ _______ _____ _____    ______ ____
ROOT
ATOM      1  N   UNL     1      -0.581   6.399   4.499  0.00  0.00    -0.281 N 
ATOM      2  C   UNL     1      -0.588   5.159   3.973  0.00  0.00    +0.235 C 
ATOM      3  O   UNL     1      -1.446   4.366   4.299  0.00  0.00    -0.274 OA
ATOM      4  H   UNL     1       0.153   7.004   4.308  0.00  0.00    +0.155 HD
ENDROOT
BRANCH   1   7
ATOM      5  N   UNL     1      -2.794   7.836   6.889  0.00  0.00    -0.235 N 
ATOM      6  C   UNL     1      -1.552   7.708   6.348  0.00  0.00    +0.063 A 
ATOM      7  C   UNL     1      -1.639   6.818   5.327  0.00  0.00    +0.078 A 
ATOM      8  C   UNL     1      -2.974   6.396   5.238  0.00  0.00    +0.082 A 
ATOM      9  N   UNL     1      -3.661   6.999   6.174  0.00  0.00    -0.170 NA
ATOM     10  C   UNL     1      -3.523   5.411   4.238  0.00  0.00    +0.069 C 
ATOM     11  C   UNL     1      -0.305   8.424   6.801  0.00  0.00    +0.068 C 
BRANCH   5  16
ATOM     12  C   UNL     1      -4.210  11.167  11.260  0.00  0.00    +0.044 C 
ATOM     13  C   UNL     1      -3.834  10.283  10.099  0.00  0.00    -0.050 A 
ATOM     14  C   UNL     1      -2.980  10.755   9.119  0.00  0.00    +0.005 A 
ATOM     15  C   UNL     1      -2.634   9.947   8.054  0.00  0.00    +0.028 A 
ATOM     16  C   UNL     1      -3.144   8.659   7.968  0.00  0.00    +0.066 A 
ATOM     17  C   UNL     1      -4.005   8.189   8.950  0.00  0.00    +0.028 A 
ATOM     18  C   UNL     1      -4.344   9.000  10.016  0.00  0.00    +0.005 A 
ENDBRANCH   5  16
ENDBRANCH   1   7
BRANCH   2  19
ATOM     19  C   UNL     1       0.472   4.755   2.980  0.00  0.00    +0.214 C 
BRANCH  19  20
ATOM     20  N   UNL     1       0.247   3.370   2.562  0.00  0.00    -0.215 N 
ATOM     21  C   UNL     1      -0.517   3.010   1.508  0.00  0.00    +0.251 C 
ATOM     22  O   UNL     1      -1.124   3.742   0.757  0.00  0.00    -0.272 OA
ATOM     23  C   UNL     1      -0.453   1.503   1.464  0.00  0.00    +0.139 C 
ATOM     24  C   UNL     1       0.132   1.020   0.145  0.00  0.00    +0.040 C 
ATOM     25  C   UNL     1      -0.865   1.269  -0.992  0.00  0.00    +0.008 C 
ATOM     26  C   UNL     1      -2.069   0.334  -0.811  0.00  0.00    +0.043 C 
ATOM     27  C   UNL     1      -2.523   0.408   0.610  0.00  0.00    -0.005 A 
ATOM     28  C   UNL     1      -1.839   0.922   1.671  0.00  0.00    -0.005 A 
ATOM     29  C   UNL     1      -2.482   0.874   2.907  0.00  0.00    +0.014 A 
ATOM     30  C   UNL     1      -3.721   0.339   3.007  0.00  0.00    +0.046 A 
ATOM     31  S   UNL     1      -4.053  -0.138   1.317  0.00  0.00    -0.101 S 
ATOM     32  N   UNL     1       0.411   1.143   2.592  0.00  0.00    -0.281 N 
ATOM     33  C   UNL     1       0.774   2.303   3.176  0.00  0.00    +0.310 C 
ATOM     34  O   UNL     1       1.496   2.372   4.150  0.00  0.00    -0.252 OA
ATOM     35  H   UNL     1       0.671   0.249   2.864  0.00  0.00    +0.152 HD
ENDBRANCH  19  20
ENDBRANCH   2  19
TORSDOF 4
