REMARK  Name = ZINC00036763
REMARK  10 active torsions:
REMARK  status: ('A' for Active; 'I' for Inactive)
REMARK    1  A    between atoms: C_1  and  C_2
REMARK    2  A    between atoms: C_3  and  C_16
REMARK    3  A    between atoms: C_4  and  C_10
REMARK    4  A    between atoms: C_16  and  O_18
REMARK    5  A    between atoms: O_18  and  C_19
REMARK    6  A    between atoms: C_19  and  C_21
REMARK    7  A    between atoms: C_19  and  C_22
REMARK    8  A    between atoms: C_22  and  C_23
REMARK    9  A    between atoms: C_22  and  C_24
REMARK   10  A    between atoms: C_22  and  C_25
REMARK                            x       y       z     vdW  Elec       q    Type
REMARK                         _______ _______ _______ _____ _____    ______ ____
ROOT
ATOM      1  C   UNL     1       0.387  -2.127  -0.510  0.00  0.00    +0.061 C 
ATOM      2  C   UNL     1       0.747  -0.678  -0.304  0.00  0.00    +0.021 C 
ATOM      3  C   UNL     1       2.025  -0.279  -0.482  0.00  0.00    +0.078 C 
ATOM      4  C   UNL     1       2.343   1.186  -0.265  0.00  0.00    +0.143 C 
ATOM      5  N   UNL     1       1.224   2.061   0.125  0.00  0.00    -0.288 N 
ATOM      6  C   UNL     1       0.001   1.515   0.263  0.00  0.00    +0.304 C 
ATOM      7  O   UNL     1      -0.930   2.229   0.580  0.00  0.00    -0.252 OA
ATOM      8  N   UNL     1      -0.225   0.211   0.059  0.00  0.00    -0.273 N 
ATOM      9  H   UNL     1       1.365   3.009   0.277  0.00  0.00    +0.151 HD
ATOM     10  H   UNL     1      -1.129  -0.122   0.175  0.00  0.00    +0.156 HD
ENDROOT
BRANCH   4  11
ATOM     11  C   UNL     1       2.932   1.728  -1.542  0.00  0.00    -0.023 A 
ATOM     12  C   UNL     1       2.147   1.835  -2.675  0.00  0.00    +0.006 A 
ATOM     13  C   UNL     1       2.686   2.336  -3.845  0.00  0.00    +0.000 A 
ATOM     14  C   UNL     1       4.013   2.722  -3.885  0.00  0.00    +0.000 A 
ATOM     15  C   UNL     1       4.800   2.610  -2.753  0.00  0.00    +0.000 A 
ATOM     16  C   UNL     1       4.259   2.113  -1.582  0.00  0.00    +0.006 A 
ENDBRANCH   4  11
BRANCH   3  17
ATOM     17  C   UNL     1       3.032  -1.198  -0.859  0.00  0.00    +0.339 C 
ATOM     18  O   UNL     1       2.739  -2.352  -1.111  0.00  0.00    -0.245 OA
BRANCH  17  19
ATOM     19  O   UNL     1       4.317  -0.795  -0.940  0.00  0.00    -0.458 OA
BRANCH  19  20
ATOM     20  C   UNL     1       5.296  -1.800  -1.209  0.00  0.00    +0.179 C 
ATOM     21  C   UNL     1       5.772  -2.414   0.109  0.00  0.00    +0.052 C 
BRANCH  20  22
ATOM     22  C   UNL     1       6.486  -1.172  -1.937  0.00  0.00    -0.001 C 
ATOM     23  C   UNL     1       7.127  -0.108  -1.044  0.00  0.00    +0.014 C 
ATOM     24  C   UNL     1       7.517  -2.255  -2.260  0.00  0.00    +0.014 C 
ATOM     25  C   UNL     1       6.003  -0.523  -3.236  0.00  0.00    +0.014 C 
ENDBRANCH  20  22
ENDBRANCH  19  20
ENDBRANCH  17  19
ENDBRANCH   3  17
TORSDOF 5
