REMARK  Name = ZINC40338247
REMARK  4 active torsions:
REMARK  status: ('A' for Active; 'I' for Inactive)
REMARK    1  A    between atoms: C_4  and  C_7
REMARK    2  A    between atoms: N_15  and  C_26
REMARK    3  A    between atoms: C_16  and  C_18
REMARK    4  A    between atoms: C_26  and  C_27
REMARK                            x       y       z     vdW  Elec       q    Type
REMARK                         _______ _______ _______ _____ _____    ______ ____
ROOT
ATOM      1  C   UNL     1       3.766  -0.911  -0.917  0.00  0.00    +0.099 A 
ATOM      2  C   UNL     1       4.212  -1.821   0.046  0.00  0.00    +0.035 A 
ATOM      3  C   UNL     1       5.586  -1.869  -0.088  0.00  0.00    +0.126 A 
ATOM      4  N   UNL     1       5.898  -1.008  -1.102  0.00  0.00    -0.272 N 
ATOM      5  H   UNL     1       6.795  -0.831  -1.425  0.00  0.00    +0.189 HD
ATOM      6  N   UNL     1       4.826  -0.472  -1.567  0.00  0.00    -0.173 NA
ATOM      7  C   UNL     1       6.119  -2.813   0.901  0.00  0.00    +0.266 C 
ATOM      8  O   UNL     1       7.297  -3.080   1.040  0.00  0.00    -0.268 OA
ATOM      9  N   UNL     1       5.120  -3.340   1.631  0.00  0.00    -0.281 N 
ATOM     10  C   UNL     1       3.853  -2.766   1.160  0.00  0.00    +0.143 C 
ENDROOT
BRANCH  10  11
ATOM     11  C   UNL     1       3.175  -2.017   2.278  0.00  0.00    -0.004 A 
ATOM     12  C   UNL     1       3.916  -1.198   3.110  0.00  0.00    +0.008 A 
ATOM     13  C   UNL     1       3.295  -0.510   4.136  0.00  0.00    +0.020 A 
ATOM     14  C   UNL     1       1.931  -0.641   4.330  0.00  0.00    +0.042 A 
ATOM     15  C   UNL     1       1.190  -1.460   3.498  0.00  0.00    +0.040 A 
ATOM     16  C   UNL     1       1.811  -2.144   2.469  0.00  0.00    +0.048 A 
ATOM     17 CL   UNL     1       0.880  -3.167   1.420  0.00  0.00    -0.083 Cl
ATOM     18 CL   UNL     1       1.152   0.222   5.619  0.00  0.00    -0.083 Cl
ENDBRANCH  10  11
BRANCH   1  22
ATOM     19  C   UNL     1      -0.271   0.219  -1.636  0.00  0.00    +0.000 A 
ATOM     20  C   UNL     1       0.724   1.181  -1.633  0.00  0.00    +0.001 A 
ATOM     21  C   UNL     1       2.035   0.819  -1.400  0.00  0.00    +0.010 A 
ATOM     22  C   UNL     1       2.357  -0.516  -1.168  0.00  0.00    +0.002 A 
ATOM     23  C   UNL     1       1.351  -1.480  -1.172  0.00  0.00    +0.010 A 
ATOM     24  C   UNL     1       0.043  -1.108  -1.406  0.00  0.00    +0.001 A 
ENDBRANCH   1  22
BRANCH   9  25
ATOM     25  C   UNL     1       5.271  -4.318   2.711  0.00  0.00    +0.144 C 
BRANCH  25  26
ATOM     26  C   UNL     1       5.593  -3.601   3.997  0.00  0.00    -0.026 A 
ATOM     27  C   UNL     1       6.898  -3.240   4.277  0.00  0.00    +0.009 A 
ATOM     28  C   UNL     1       7.198  -2.583   5.455  0.00  0.00    +0.050 A 
ATOM     29  C   UNL     1       6.191  -2.284   6.359  0.00  0.00    +0.166 A 
ATOM     30  C   UNL     1       4.877  -2.647   6.077  0.00  0.00    +0.167 A 
ATOM     31  C   UNL     1       4.582  -3.301   4.891  0.00  0.00    +0.054 A 
ATOM     32  O   UNL     1       4.082  -2.246   7.111  0.00  0.00    -0.453 OA
ATOM     33  C   UNL     1       4.977  -1.998   8.211  0.00  0.00    +0.466 C 
ATOM     34  O   UNL     1       6.220  -1.654   7.570  0.00  0.00    -0.453 OA
ENDBRANCH  25  26
ENDBRANCH   9  25
TORSDOF 4
