REMARK  Name = ZINC01944033
REMARK  11 active torsions:
REMARK  status: ('A' for Active; 'I' for Inactive)
REMARK    1  A    between atoms: C_1  and  C_2
REMARK    2  A    between atoms: C_2  and  O_3
REMARK    3  A    between atoms: O_3  and  C_4
REMARK    4  A    between atoms: C_4  and  C_6
REMARK    5  A    between atoms: C_7  and  C_23
REMARK    6  A    between atoms: C_10  and  N_11
REMARK    7  A    between atoms: C_12  and  C_14
REMARK    8  A    between atoms: C_14  and  O_15
REMARK    9  A    between atoms: O_15  and  C_16
REMARK   10  A    between atoms: C_19  and  C_22
REMARK   11  A    between atoms: C_27  and  N_29
REMARK                            x       y       z     vdW  Elec       q    Type
REMARK                         _______ _______ _______ _____ _____    ______ ____
ROOT
ATOM      1  C   UNL     1      -0.879   6.081  -0.907  0.00  0.00    +0.095 A 
ATOM      2  C   UNL     1      -0.070   5.326   0.031  0.00  0.00    +0.005 A 
ATOM      3  C   UNL     1       0.672   6.044   0.912  0.00  0.00    +0.056 A 
ATOM      4  S   UNL     1       0.284   7.731   0.496  0.00  0.00    -0.080 S 
ATOM      5  C   UNL     1      -0.826   7.465  -0.806  0.00  0.00    +0.086 A 
ENDROOT
BRANCH   2   6
ATOM      6  C   UNL     1      -0.050   3.844   0.023  0.00  0.00    -0.014 A 
ATOM      7  C   UNL     1      -1.246   3.128   0.031  0.00  0.00    +0.009 A 
ATOM      8  C   UNL     1      -1.222   1.748   0.017  0.00  0.00    +0.003 A 
ATOM      9  C   UNL     1      -0.013   1.076   0.008  0.00  0.00    +0.033 A 
ATOM     10  C   UNL     1       1.177   1.781   0.000  0.00  0.00    +0.127 A 
ATOM     11  C   UNL     1       1.165   3.161   0.008  0.00  0.00    +0.041 A 
BRANCH  10  12
ATOM     12  N   UNL     1       2.467   1.054  -0.016  0.00  0.00    +0.056 N 
ATOM     13  O   UNL     1       2.479  -0.164  -0.023  0.00  0.00    -0.126 OA
ATOM     14  O   UNL     1       3.515   1.674  -0.023  0.00  0.00    -0.126 OA
ENDBRANCH  10  12
ENDBRANCH   2   6
BRANCH   5  15
ATOM     15  N   UNL     1      -1.496   8.408  -1.568  0.00  0.00    -0.277 N 
ATOM     16  C   UNL     1      -1.314   9.722  -1.328  0.00  0.00    +0.255 C 
ATOM     17  O   UNL     1      -0.563  10.079  -0.445  0.00  0.00    -0.272 OA
ATOM     18  H   UNL     1      -2.177   8.085  -2.369  0.00  0.00    +0.155 HD
BRANCH  16  19
ATOM     19  C   UNL     1      -2.043  10.748  -2.157  0.00  0.00    +0.324 C 
BRANCH  19  20
ATOM     20  O   UNL     1      -1.687  12.059  -1.714  0.00  0.00    -0.483 OA
BRANCH  20  21
ATOM     21  C   UNL     1      -2.261  13.106  -2.362  0.00  0.00    +0.121 A 
ATOM     22  C   UNL     1      -3.145  12.877  -3.407  0.00  0.00    +0.046 A 
ATOM     23  C   UNL     1      -3.732  13.943  -4.060  0.00  0.00    +0.007 A 
ATOM     24  C   UNL     1      -3.431  15.238  -3.681  0.00  0.00    -0.050 A 
ATOM     25  C   UNL     1      -2.546  15.470  -2.644  0.00  0.00    +0.007 A 
ATOM     26  C   UNL     1      -1.961  14.406  -1.984  0.00  0.00    +0.046 A 
ATOM     27  C   UNL     1      -4.068  16.400  -4.400  0.00  0.00    +0.044 C 
ENDBRANCH  20  21
ENDBRANCH  19  20
ENDBRANCH  16  19
ENDBRANCH   5  15
BRANCH   1  28
ATOM     28  C   UNL     1      -1.715   5.417  -1.907  0.00  0.00    +0.342 C 
ATOM     29  O   UNL     1      -2.866   5.127  -1.642  0.00  0.00    -0.245 OA
BRANCH  28  30
ATOM     30  O   UNL     1      -1.210   5.127  -3.124  0.00  0.00    -0.461 OA
BRANCH  30  32
ATOM     31  C   UNL     1      -1.353   4.222  -5.380  0.00  0.00    +0.048 C 
ATOM     32  C   UNL     1      -2.097   4.468  -4.066  0.00  0.00    +0.229 C 
ENDBRANCH  30  32
ENDBRANCH  28  30
ENDBRANCH   1  28
TORSDOF 9
