REMARK  Name = ZINC35057375
REMARK  9 active torsions:
REMARK  status: ('A' for Active; 'I' for Inactive)
REMARK    1  A    between atoms: C_1  and  C_2
REMARK    2  A    between atoms: C_2  and  C_4
REMARK    3  A    between atoms: C_2  and  O_7
REMARK    4  A    between atoms: O_7  and  C_8
REMARK    5  A    between atoms: C_10  and  N_37
REMARK    6  A    between atoms: C_12  and  S_29
REMARK    7  A    between atoms: C_20  and  C_24
REMARK    8  A    between atoms: S_29  and  C_30
REMARK    9  A    between atoms: C_38  and  C_40
REMARK                            x       y       z     vdW  Elec       q    Type
REMARK                         _______ _______ _______ _____ _____    ______ ____
ROOT
ATOM      1  C   UNL     1       0.139  -0.591   2.280  0.00  0.00    +0.174 C 
ATOM      2  C   UNL     1      -0.072   0.719   3.048  0.00  0.00    +0.143 C 
ATOM      3  C   UNL     1       1.277   1.260   3.524  0.00  0.00    +0.203 C 
ATOM      4  O   UNL     1       1.949   0.274   4.314  0.00  0.00    -0.356 OA
ATOM      5  C   UNL     1       2.216  -0.934   3.605  0.00  0.00    +0.177 C 
ATOM      6  C   UNL     1       0.881  -1.574   3.185  0.00  0.00    +0.183 C 
ATOM      7  O   UNL     1       1.152  -2.799   2.504  0.00  0.00    -0.336 OA
ATOM      8  C   UNL     1       1.875  -3.739   3.306  0.00  0.00    +0.319 C 
ATOM      9  O   UNL     1       3.111  -3.168   3.737  0.00  0.00    -0.342 OA
ATOM     10  C   UNL     1       2.974  -1.934   4.478  0.00  0.00    +0.197 C 
ENDROOT
BRANCH   8  11
ATOM     11  C   UNL     1       1.050  -4.106   4.512  0.00  0.00    +0.161 A 
ATOM     12  C   UNL     1       1.415  -4.959   5.486  0.00  0.00    +0.050 A 
ATOM     13  C   UNL     1       0.348  -5.006   6.412  0.00  0.00    +0.041 A 
ATOM     14  C   UNL     1      -0.606  -4.179   5.949  0.00  0.00    +0.195 A 
ATOM     15  O   UNL     1      -0.173  -3.632   4.801  0.00  0.00    -0.463 OA
ENDBRANCH   8  11
BRANCH   2  16
ATOM     16  N   UNL     1      -0.708   1.704   2.168  0.00  0.00    -0.307 N 
ATOM     17  C   UNL     1      -1.456   2.693   2.695  0.00  0.00    +0.210 C 
ATOM     18  O   UNL     1      -1.604   2.769   3.896  0.00  0.00    -0.276 OA
ATOM     19  C   UNL     1      -2.111   3.705   1.790  0.00  0.00    +0.109 C 
ATOM     20  H   UNL     1      -0.590   1.643   1.208  0.00  0.00    +0.149 HD
ENDBRANCH   2  16
BRANCH   1  21
ATOM     21  O   UNL     1       0.913  -0.340   1.105  0.00  0.00    -0.358 OA
BRANCH  21  23
ATOM     22  C   UNL     1      -0.539  -0.502  -0.820  0.00  0.00    +0.050 C 
ATOM     23  C   UNL     1       0.570  -1.171  -0.006  0.00  0.00    +0.228 C 
BRANCH  23  24
ATOM     24  C   UNL     1       1.783  -1.369  -0.878  0.00  0.00    +0.384 C 
ATOM     25  O   UNL     1       2.818  -0.775  -0.627  0.00  0.00    -0.243 OA
ATOM     26  O   UNL     1       1.730  -2.124  -1.834  0.00  0.00    -0.243 OA
ENDBRANCH  23  24
ENDBRANCH  21  23
ENDBRANCH   1  21
BRANCH   3  27
ATOM     27  S   UNL     1       2.301   1.673   2.085  0.00  0.00    -0.092 S 
BRANCH  27  28
ATOM     28  C   UNL     1       3.741   2.410   2.784  0.00  0.00    +0.010 A 
ATOM     29  C   UNL     1       3.858   2.539   4.162  0.00  0.00    +0.016 A 
ATOM     30  C   UNL     1       4.987   3.118   4.707  0.00  0.00    +0.021 A 
ATOM     31  C   UNL     1       6.003   3.568   3.882  0.00  0.00    +0.041 A 
ATOM     32  C   UNL     1       5.889   3.441   2.508  0.00  0.00    +0.021 A 
ATOM     33  C   UNL     1       4.765   2.859   1.958  0.00  0.00    +0.016 A 
ATOM     34 CL   UNL     1       7.421   4.295   4.570  0.00  0.00    -0.084 Cl
ENDBRANCH  27  28
ENDBRANCH   3  27
TORSDOF 7
