REMARK  Name = ZINC04067195
REMARK  10 active torsions:
REMARK  status: ('A' for Active; 'I' for Inactive)
REMARK    1  A    between atoms: C_1  and  C_2
REMARK    2  A    between atoms: C_2  and  C_3
REMARK    3  A    between atoms: C_3  and  O_4
REMARK    4  A    between atoms: O_4  and  C_5
REMARK    5  A    between atoms: C_10  and  C_11
REMARK    6  A    between atoms: C_16  and  C_21
REMARK    7  A    between atoms: C_31  and  C_37
REMARK    8  A    between atoms: C_32  and  C_33
REMARK    9  A    between atoms: C_33  and  O_35
REMARK   10  A    between atoms: O_35  and  C_36
REMARK                            x       y       z     vdW  Elec       q    Type
REMARK                         _______ _______ _______ _____ _____    ______ ____
ROOT
ATOM      1  C   UNL     1       0.786  -4.750  -1.300  0.00  0.00    +0.096 C 
ATOM      2  C   UNL     1       1.863  -5.593  -0.663  0.00  0.00    +0.024 C 
ATOM      3  C   UNL     1       1.978  -6.905  -0.961  0.00  0.00    +0.016 C 
ATOM      4  C   UNL     1       3.060  -7.751  -0.337  0.00  0.00    +0.059 C 
ATOM      5  C   UNL     1       3.388  -7.219   1.060  0.00  0.00    +0.032 C 
ATOM      6  C   UNL     1       3.827  -5.756   0.933  0.00  0.00    +0.088 C 
ATOM      7  C   UNL     1       2.738  -4.976   0.248  0.00  0.00    +0.162 C 
ATOM      8  O   UNL     1       2.612  -3.792   0.487  0.00  0.00    -0.292 OA
ATOM      9  N   UNL     1       1.110  -7.497  -1.838  0.00  0.00    -0.321 N 
ATOM     10  C   UNL     1      -0.094  -6.917  -2.126  0.00  0.00    +0.016 C 
ATOM     11  C   UNL     1      -0.295  -5.612  -1.883  0.00  0.00    +0.065 C 
ATOM     12  C   UNL     1      -1.202  -7.748  -2.719  0.00  0.00    +0.061 C 
ATOM     13  H   UNL     1       1.351  -8.337  -2.259  0.00  0.00    +0.152 HD
ENDROOT
BRANCH   5  14
ATOM     14  C   UNL     1       4.501  -8.035   1.665  0.00  0.00    -0.040 A 
ATOM     15  C   UNL     1       5.732  -8.093   1.039  0.00  0.00    +0.008 A 
ATOM     16  C   UNL     1       6.757  -8.840   1.590  0.00  0.00    +0.050 A 
ATOM     17  C   UNL     1       6.551  -9.533   2.771  0.00  0.00    +0.166 A 
ATOM     18  C   UNL     1       5.311  -9.475   3.402  0.00  0.00    +0.166 A 
ATOM     19  C   UNL     1       4.290  -8.720   2.847  0.00  0.00    +0.053 A 
ATOM     20  O   UNL     1       5.361 -10.234   4.535  0.00  0.00    -0.453 OA
ATOM     21  C   UNL     1       6.513 -11.084   4.378  0.00  0.00    +0.466 C 
ATOM     22  O   UNL     1       7.379 -10.329   3.510  0.00  0.00    -0.453 OA
ENDBRANCH   5  14
BRANCH   1  28
ATOM     23  C   UNL     1       1.341  -2.529  -2.322  0.00  0.00    +0.125 A 
ATOM     24  C   UNL     1       1.909  -1.762  -3.329  0.00  0.00    +0.046 A 
ATOM     25  C   UNL     1       2.522  -2.377  -4.403  0.00  0.00    +0.004 A 
ATOM     26  C   UNL     1       2.571  -3.757  -4.475  0.00  0.00    +0.001 A 
ATOM     27  C   UNL     1       2.006  -4.524  -3.473  0.00  0.00    +0.008 A 
ATOM     28  C   UNL     1       1.396  -3.913  -2.394  0.00  0.00    +0.006 A 
BRANCH  23  29
ATOM     29  O   UNL     1       0.738  -1.926  -1.265  0.00  0.00    -0.492 OA
BRANCH  29  30
ATOM     30  C   UNL     1       0.718  -0.497  -1.257  0.00  0.00    +0.229 C 
BRANCH  30  32
ATOM     31  C   UNL     1      -0.019   1.526   0.010  0.00  0.00    +0.007 C 
ATOM     32  C   UNL     1       0.002  -0.004   0.002  0.00  0.00    +0.038 C 
ENDBRANCH  30  32
ENDBRANCH  29  30
ENDBRANCH  23  29
ENDBRANCH   1  28
BRANCH  11  33
ATOM     33  C   UNL     1      -1.553  -5.037  -2.183  0.00  0.00    +0.337 C 
ATOM     34  O   UNL     1      -2.438  -5.725  -2.656  0.00  0.00    -0.245 OA
BRANCH  33  35
ATOM     35  O   UNL     1      -1.770  -3.727  -1.945  0.00  0.00    -0.465 OA
ATOM     36  C   UNL     1      -3.063  -3.214  -2.272  0.00  0.00    +0.280 C 
ENDBRANCH  33  35
ENDBRANCH  11  33
TORSDOF 7
