REMARK  Name = ZINC24774536
REMARK  3 active torsions:
REMARK  status: ('A' for Active; 'I' for Inactive)
REMARK    1  A    between atoms: C_6  and  N_7
REMARK    2  A    between atoms: C_8  and  C_10
REMARK    3  A    between atoms: C_10  and  C_11
REMARK                            x       y       z     vdW  Elec       q    Type
REMARK                         _______ _______ _______ _____ _____    ______ ____
ROOT
ATOM      1  N   UNL     1      -0.772   5.688   5.462  0.00  0.00    -0.285 N 
ATOM      2  C   UNL     1      -1.600   6.633   4.974  0.00  0.00    +0.219 C 
ATOM      3  O   UNL     1      -2.238   6.417   3.965  0.00  0.00    -0.275 OA
ATOM      4  H   UNL     1      -0.260   5.848   6.422  0.00  0.00    +0.155 HD
ENDROOT
BRANCH   1  10
ATOM      5  C   UNL     1      -0.341   3.312   5.426  0.00  0.00    +0.027 A 
ATOM      6  C   UNL     1      -0.135   2.140   4.722  0.00  0.00    +0.051 A 
ATOM      7  C   UNL     1      -0.150   2.151   3.337  0.00  0.00    +0.167 A 
ATOM      8  C   UNL     1      -0.373   3.343   2.652  0.00  0.00    +0.169 A 
ATOM      9  C   UNL     1      -0.580   4.516   3.359  0.00  0.00    +0.072 A 
ATOM     10  C   UNL     1      -0.564   4.501   4.747  0.00  0.00    +0.037 A 
ATOM     11  O   UNL     1      -0.340   3.090   1.310  0.00  0.00    -0.447 OA
ATOM     12  C   UNL     1      -0.483   1.668   1.186  0.00  0.00    +0.254 C 
ATOM     13  O   UNL     1       0.024   1.148   2.424  0.00  0.00    -0.448 OA
ATOM     14  C   UNL     1       0.347   1.151   0.016  0.00  0.00    +0.093 C 
ATOM     15  C   UNL     1      -0.191   1.734  -1.293  0.00  0.00    +0.008 C 
ATOM     16  C   UNL     1      -1.656   1.329  -1.466  0.00  0.00    +0.000 C 
ATOM     17  C   UNL     1      -2.479   1.876  -0.298  0.00  0.00    +0.008 C 
ATOM     18  C   UNL     1      -1.950   1.293   1.015  0.00  0.00    +0.093 C 
ENDBRANCH   1  10
BRANCH   2  19
ATOM     19  C   UNL     1      -1.733   7.957   5.681  0.00  0.00    +0.120 C 
BRANCH  19  20
ATOM     20  C   UNL     1      -2.727   8.841   4.926  0.00  0.00    +0.146 C 
ATOM     21  C   UNL     1      -2.772  10.208   5.558  0.00  0.00    +0.231 C 
ATOM     22  O   UNL     1      -2.119  11.098   5.054  0.00  0.00    -0.274 OA
ATOM     23  N   UNL     1      -3.491  10.486   6.640  0.00  0.00    -0.284 N 
ATOM     24  C   UNL     1      -4.381   9.635   7.289  0.00  0.00    +0.048 A 
ATOM     25  C   UNL     1      -4.807   9.947   8.576  0.00  0.00    +0.044 A 
ATOM     26  C   UNL     1      -5.686   9.114   9.241  0.00  0.00    +0.043 A 
ATOM     27  C   UNL     1      -6.159   7.965   8.632  0.00  0.00    +0.021 A 
ATOM     28  C   UNL     1      -5.758   7.652   7.346  0.00  0.00    +0.018 A 
ATOM     29  C   UNL     1      -4.880   8.487   6.674  0.00  0.00    +0.030 A 
ATOM     30  S   UNL     1      -4.391   8.110   5.020  0.00  0.00    -0.110 S 
ATOM     31 CL   UNL     1      -6.199   9.511  10.851  0.00  0.00    -0.083 Cl
ATOM     32  H   UNL     1      -3.414  11.476   7.112  0.00  0.00    +0.155 HD
ENDBRANCH  19  20
ENDBRANCH   2  19
TORSDOF 3
