REMARK  Name = ZINC08649123
REMARK  7 active torsions:
REMARK  status: ('A' for Active; 'I' for Inactive)
REMARK    1  A    between atoms: C_4  and  S_7
REMARK    2  A    between atoms: S_7  and  N_10
REMARK    3  A    between atoms: N_13  and  C_16
REMARK    4  A    between atoms: C_19  and  N_30
REMARK    5  A    between atoms: C_20  and  N_22
REMARK    6  A    between atoms: N_22  and  C_23
REMARK    7  A    between atoms: C_23  and  C_24
REMARK                            x       y       z     vdW  Elec       q    Type
REMARK                         _______ _______ _______ _____ _____    ______ ____
ROOT
ATOM      1  C   UNL     1       4.466  -0.988   5.581  0.00  0.00    +0.032 A 
ATOM      2  C   UNL     1       5.362  -0.198   6.292  0.00  0.00    +0.025 A 
ATOM      3  C   UNL     1       5.683  -0.518   7.597  0.00  0.00    +0.036 A 
ATOM      4  C   UNL     1       5.114  -1.624   8.200  0.00  0.00    +0.147 A 
ATOM      5  C   UNL     1       4.217  -2.417   7.495  0.00  0.00    +0.060 A 
ATOM      6  C   UNL     1       3.889  -2.095   6.185  0.00  0.00    +0.048 A 
ENDROOT
BRANCH   1  10
ATOM      7  N   UNL     1       4.543  -0.674   1.558  0.00  0.00    -0.174 NA
ATOM      8  C   UNL     1       5.393   0.217   2.361  0.00  0.00    +0.128 C 
ATOM      9  C   UNL     1       4.645   0.576   3.651  0.00  0.00    +0.122 C 
ATOM     10  N   UNL     1       4.142  -0.663   4.262  0.00  0.00    -0.327 N 
ATOM     11  C   UNL     1       3.293  -1.554   3.459  0.00  0.00    +0.122 C 
ATOM     12  C   UNL     1       4.036  -1.909   2.170  0.00  0.00    +0.128 C 
BRANCH   7  13
ATOM     13  S   UNL     1       4.159  -0.289  -0.006  0.00  0.00    +0.061 S 
ATOM     14  O   UNL     1       3.841  -1.510  -0.659  0.00  0.00    -0.153 OA
ATOM     15  O   UNL     1       5.182   0.580  -0.473  0.00  0.00    -0.153 OA
BRANCH  13  19
ATOM     16  C   UNL     1       0.345   2.147   0.110  0.00  0.00    +0.000 A 
ATOM     17  C   UNL     1       1.572   2.780   0.182  0.00  0.00    +0.002 A 
ATOM     18  C   UNL     1       2.737   2.036   0.147  0.00  0.00    +0.028 A 
ATOM     19  C   UNL     1       2.675   0.659   0.040  0.00  0.00    +0.105 A 
ATOM     20  C   UNL     1       1.448   0.026  -0.032  0.00  0.00    +0.028 A 
ATOM     21  C   UNL     1       0.283   0.770   0.002  0.00  0.00    +0.002 A 
ENDBRANCH  13  19
ENDBRANCH   7  13
ENDBRANCH   1  10
BRANCH   4  22
ATOM     22  N   UNL     1       5.461  -1.964   9.598  0.00  0.00    +0.058 N 
ATOM     23  O   UNL     1       5.629  -1.084  10.410  0.00  0.00    -0.126 OA
ATOM     24  O   UNL     1       5.577  -3.121   9.927  0.00  0.00    -0.126 OA
ENDBRANCH   4  22
BRANCH   5  25
ATOM     25  N   UNL     1       3.644  -3.535   8.105  0.00  0.00    -0.338 N 
ATOM     26  H   UNL     1       3.806  -3.711   9.045  0.00  0.00    +0.146 HD
BRANCH  25  27
ATOM     27  C   UNL     1       2.797  -4.442   7.325  0.00  0.00    +0.138 C 
BRANCH  27  28
ATOM     28  C   UNL     1       2.307  -5.558   8.211  0.00  0.00    -0.012 A 
ATOM     29  C   UNL     1       3.043  -6.726   8.340  0.00  0.00    +0.008 A 
ATOM     30  C   UNL     1       2.554  -7.726   9.166  0.00  0.00    +0.020 A 
ATOM     31  C   UNL     1       1.357  -7.527   9.828  0.00  0.00    +0.111 A 
ATOM     32  N   UNL     1       0.683  -6.404   9.681  0.00  0.00    -0.263 NA
ATOM     33  C   UNL     1       1.122  -5.428   8.908  0.00  0.00    +0.115 A 
ENDBRANCH  27  28
ENDBRANCH  25  27
ENDBRANCH   5  25
TORSDOF 7
