REMARK  Name = ZINC01875342
REMARK  7 active torsions:
REMARK  status: ('A' for Active; 'I' for Inactive)
REMARK    1  A    between atoms: C_4  and  O_28
REMARK    2  A    between atoms: C_5  and  C_7
REMARK    3  A    between atoms: N_8  and  N_9
REMARK    4  A    between atoms: C_10  and  C_12
REMARK    5  A    between atoms: C_13  and  C_23
REMARK    6  A    between atoms: O_28  and  C_29
REMARK    7  A    between atoms: C_29  and  C_30
REMARK                            x       y       z     vdW  Elec       q    Type
REMARK                         _______ _______ _______ _____ _____    ______ ____
ROOT
ATOM      1  C   UNL     1       5.615   1.442  -0.045  0.00  0.00    +0.177 A 
ATOM      2  C   UNL     1       4.305   1.923  -0.035  0.00  0.00    +0.115 A 
ATOM      3  N   UNL     1       3.496   0.819  -0.027  0.00  0.00    -0.187 N 
ATOM      4  N   UNL     1       4.341  -0.298  -0.042  0.00  0.00    -0.058 NA
ATOM      5  N   UNL     1       5.564   0.099  -0.052  0.00  0.00    -0.124 NA
ATOM      6  C   UNL     1       2.098   0.808  -0.014  0.00  0.00    +0.241 A 
ATOM      7  C   UNL     1       1.249  -0.387  -0.012  0.00  0.00    +0.206 A 
ATOM      8  N   UNL     1       0.002  -0.004   0.002  0.00  0.00    -0.032 NA
ATOM      9  O   UNL     1      -0.017   1.413   0.010  0.00  0.00    -0.239 OA
ATOM     10  N   UNL     1       1.327   1.859  -0.001  0.00  0.00    -0.027 NA
ATOM     11  N   UNL     1       1.697  -1.703  -0.023  0.00  0.00    -0.337 N 
ATOM     12  H   UNL     1       1.058  -2.433  -0.021  0.00  0.00    +0.144 HD
ATOM     13  H   UNL     1       2.648  -1.892  -0.033  0.00  0.00    +0.144 HD
ENDROOT
BRANCH   2  14
ATOM     14  C   UNL     1       3.881   3.329  -0.029  0.00  0.00    +0.040 A 
ATOM     15  C   UNL     1       4.361   4.382   0.731  0.00  0.00    +0.018 A 
ATOM     16  C   UNL     1       3.800   5.624   0.553  0.00  0.00    +0.008 A 
ATOM     17  C   UNL     1       2.793   5.777  -0.347  0.00  0.00    +0.046 A 
ATOM     18  S   UNL     1       2.608   4.124  -0.995  0.00  0.00    -0.095 S 
ENDBRANCH   2  14
BRANCH   1  20
ATOM     19  N   UNL     1       8.045   1.665  -0.068  0.00  0.00    -0.202 N 
ATOM     20  C   UNL     1       6.835   2.260  -0.053  0.00  0.00    +0.286 C 
ATOM     21  O   UNL     1       6.754   3.474  -0.045  0.00  0.00    -0.267 OA
ATOM     22  H   UNL     1       8.109   0.698  -0.074  0.00  0.00    +0.178 HD
BRANCH  19  24
ATOM     23  C   UNL     1      10.373   1.873  -0.090  0.00  0.00    +0.142 C 
ATOM     24  N   UNL     1       9.208   2.445  -0.075  0.00  0.00    -0.187 NA
BRANCH  23  29
ATOM     25  C   UNL     1      13.995   2.855  -0.121  0.00  0.00    +0.001 A 
ATOM     26  C   UNL     1      13.902   4.236  -0.112  0.00  0.00    +0.004 A 
ATOM     27  C   UNL     1      12.665   4.854  -0.097  0.00  0.00    +0.046 A 
ATOM     28  C   UNL     1      11.509   4.092  -0.089  0.00  0.00    +0.130 A 
ATOM     29  C   UNL     1      11.598   2.693  -0.098  0.00  0.00    +0.036 A 
ATOM     30  C   UNL     1      12.853   2.081  -0.108  0.00  0.00    +0.013 A 
BRANCH  28  31
ATOM     31  O   UNL     1      10.293   4.698  -0.074  0.00  0.00    -0.480 OA
BRANCH  31  32
ATOM     32  C   UNL     1      10.281   6.127  -0.066  0.00  0.00    +0.353 C 
BRANCH  32  33
ATOM     33  C   UNL     1       8.856   6.617  -0.050  0.00  0.00    +0.393 C 
ATOM     34  O   UNL     1       7.944   5.823  -0.046  0.00  0.00    -0.243 OA
ATOM     35  O   UNL     1       8.599   7.934  -0.041  0.00  0.00    -0.243 OA
ENDBRANCH  32  33
ENDBRANCH  31  32
ENDBRANCH  28  31
ENDBRANCH  23  29
ENDBRANCH  19  24
ENDBRANCH   1  20
TORSDOF 7
