REMARK  Name = ZINC22371469
REMARK  11 active torsions:
REMARK  status: ('A' for Active; 'I' for Inactive)
REMARK    1  A    between atoms: C_1  and  C_2
REMARK    2  A    between atoms: C_6  and  N_8
REMARK    3  A    between atoms: N_8  and  C_9
REMARK    4  A    between atoms: N_8  and  S_24
REMARK    5  A    between atoms: C_9  and  C_10
REMARK    6  A    between atoms: N_12  and  C_13
REMARK    7  A    between atoms: C_13  and  C_15
REMARK    8  A    between atoms: C_13  and  C_16
REMARK    9  A    between atoms: C_19  and  C_23
REMARK   10  A    between atoms: C_20  and  C_22
REMARK   11  A    between atoms: S_24  and  C_27
REMARK                            x       y       z     vdW  Elec       q    Type
REMARK                         _______ _______ _______ _____ _____    ______ ____
ROOT
ATOM      1  N   UNL     1      -0.069   5.239   0.030  0.00  0.00    -0.194 N 
ENDROOT
BRANCH   1   7
ATOM      2  C   UNL     1       1.921   1.046   1.645  0.00  0.00    +0.044 C 
ATOM      3  C   UNL     1       0.908   1.783   0.807  0.00  0.00    -0.049 A 
ATOM      4  C   UNL     1      -0.001   1.076   0.042  0.00  0.00    +0.003 A 
ATOM      5  C   UNL     1      -0.936   1.748  -0.723  0.00  0.00    +0.002 A 
ATOM      6  C   UNL     1      -0.962   3.129  -0.729  0.00  0.00    +0.025 A 
ATOM      7  C   UNL     1      -0.046   3.843   0.034  0.00  0.00    +0.052 A 
ATOM      8  C   UNL     1       0.892   3.164   0.801  0.00  0.00    +0.028 A 
ENDBRANCH   1   7
BRANCH   1   9
ATOM      9  S   UNL     1       1.262   6.088  -0.469  0.00  0.00    +0.075 S 
ATOM     10  O   UNL     1       1.247   7.320   0.239  0.00  0.00    -0.150 OA
ATOM     11  O   UNL     1       2.362   5.189  -0.411  0.00  0.00    -0.150 OA
BRANCH   9  12
ATOM     12  C   UNL     1       1.022   6.481  -2.170  0.00  0.00    +0.109 A 
ATOM     13  C   UNL     1       1.469   5.614  -3.149  0.00  0.00    +0.030 A 
ATOM     14  C   UNL     1       1.275   5.919  -4.483  0.00  0.00    +0.022 A 
ATOM     15  C   UNL     1       0.645   7.098  -4.838  0.00  0.00    +0.041 A 
ATOM     16  C   UNL     1       0.203   7.968  -3.858  0.00  0.00    +0.022 A 
ATOM     17  C   UNL     1       0.392   7.659  -2.524  0.00  0.00    +0.030 A 
ATOM     18 CL   UNL     1       0.408   7.485  -6.514  0.00  0.00    -0.084 Cl
ENDBRANCH   9  12
ENDBRANCH   1   9
BRANCH   1  19
ATOM     19  C   UNL     1      -1.271   5.953   0.468  0.00  0.00    +0.227 C 
BRANCH  19  20
ATOM     20  C   UNL     1      -1.249   6.101   1.968  0.00  0.00    +0.233 C 
ATOM     21  O   UNL     1      -0.321   5.655   2.608  0.00  0.00    -0.274 OA
ATOM     22  N   UNL     1      -2.261   6.730   2.598  0.00  0.00    -0.307 N 
ATOM     23  H   UNL     1      -3.103   7.136   2.017  0.00  0.00    +0.149 HD
BRANCH  22  24
ATOM     24  C   UNL     1      -2.240   6.874   4.055  0.00  0.00    +0.100 C 
ATOM     25  C   UNL     1      -1.428   8.115   4.433  0.00  0.00    +0.033 C 
BRANCH  24  26
ATOM     26  C   UNL     1      -3.650   7.022   4.566  0.00  0.00    -0.027 A 
ATOM     27  C   UNL     1      -4.562   7.790   3.866  0.00  0.00    +0.006 A 
ATOM     28  C   UNL     1      -5.855   7.925   4.335  0.00  0.00    +0.004 A 
ATOM     29  C   UNL     1      -6.237   7.292   5.503  0.00  0.00    -0.048 A 
ATOM     30  C   UNL     1      -5.325   6.525   6.203  0.00  0.00    -0.047 A 
ATOM     31  C   UNL     1      -4.033   6.385   5.732  0.00  0.00    +0.009 A 
ATOM     32  C   UNL     1      -5.741   5.835   7.477  0.00  0.00    +0.044 C 
ATOM     33  C   UNL     1      -7.647   7.439   6.014  0.00  0.00    +0.044 C 
ENDBRANCH  24  26
ENDBRANCH  22  24
ENDBRANCH  19  20
ENDBRANCH   1  19
TORSDOF 7
