REMARK  Name = ZINC24507107
REMARK  7 active torsions:
REMARK  status: ('A' for Active; 'I' for Inactive)
REMARK    1  A    between atoms: C_1  and  C_2
REMARK    2  A    between atoms: C_2  and  C_4
REMARK    3  A    between atoms: C_2  and  S_21
REMARK    4  A    between atoms: C_10  and  C_15
REMARK    5  A    between atoms: S_21  and  C_22
REMARK    6  A    between atoms: N_26  and  C_27
REMARK    7  A    between atoms: C_27  and  C_28
REMARK                            x       y       z     vdW  Elec       q    Type
REMARK                         _______ _______ _______ _____ _____    ______ ____
ROOT
ATOM      1  C   UNL     1       0.707  -0.490  -1.238  0.00  0.00    +0.124 A 
ATOM      2  N   UNL     1      -0.021  -0.808  -2.338  0.00  0.00    -0.309 N 
ATOM      3  H   UNL     1      -0.987  -0.718  -2.312  0.00  0.00    +0.170 HD
ATOM      4  C   UNL     1       0.570  -1.246  -3.466  0.00  0.00    +0.260 A 
ATOM      5  O   UNL     1      -0.098  -1.526  -4.446  0.00  0.00    -0.267 OA
ATOM      6  C   UNL     1       1.995  -1.375  -3.497  0.00  0.00    +0.080 A 
ATOM      7  C   UNL     1       2.858  -1.821  -4.584  0.00  0.00    +0.004 A 
ATOM      8  C   UNL     1       4.197  -1.862  -4.379  0.00  0.00    +0.056 A 
ATOM      9  S   UNL     1       4.374  -1.298  -2.697  0.00  0.00    -0.076 S 
ATOM     10  C   UNL     1       2.664  -1.024  -2.312  0.00  0.00    +0.116 A 
ATOM     11  N   UNL     1       2.009  -0.593  -1.237  0.00  0.00    -0.225 NA
ENDROOT
BRANCH   7  12
ATOM     12  C   UNL     1       2.282  -2.222  -5.889  0.00  0.00    -0.017 A 
ATOM     13  C   UNL     1       1.222  -3.127  -5.938  0.00  0.00    +0.008 A 
ATOM     14  C   UNL     1       0.689  -3.496  -7.156  0.00  0.00    +0.001 A 
ATOM     15  C   UNL     1       1.204  -2.971  -8.327  0.00  0.00    +0.000 A 
ATOM     16  C   UNL     1       2.256  -2.073  -8.286  0.00  0.00    +0.001 A 
ATOM     17  C   UNL     1       2.793  -1.692  -7.073  0.00  0.00    +0.008 A 
ENDBRANCH   7  12
BRANCH   1  19
ATOM     18  C   UNL     1      -0.019   1.526   0.010  0.00  0.00    +0.027 C 
ATOM     19  C   UNL     1       0.002  -0.004   0.002  0.00  0.00    +0.117 C 
BRANCH  19  20
ATOM     20  S   UNL     1      -1.700  -0.632   0.015  0.00  0.00    -0.074 S 
BRANCH  20  21
ATOM     21  C   UNL     1      -2.335  -0.110   1.573  0.00  0.00    +0.210 A 
ATOM     22  N   UNL     1      -1.690   0.582   2.488  0.00  0.00    -0.101 NA
ATOM     23  N   UNL     1      -2.445   0.794   3.506  0.00  0.00    -0.022 NA
ATOM     24  N   UNL     1      -3.605   0.264   3.322  0.00  0.00    -0.043 NA
ATOM     25  N   UNL     1      -3.580  -0.341   2.053  0.00  0.00    -0.215 N 
BRANCH  25  26
ATOM     26  C   UNL     1      -4.667  -1.067   1.392  0.00  0.00    +0.190 C 
BRANCH  26  27
ATOM     27  C   UNL     1      -4.589  -2.527   1.754  0.00  0.00    +0.011 A 
ATOM     28  C   UNL     1      -5.170  -3.183   2.789  0.00  0.00    +0.013 A 
ATOM     29  C   UNL     1      -4.957  -4.541   2.926  0.00  0.00    +0.008 A 
ATOM     30  C   UNL     1      -4.173  -5.179   2.023  0.00  0.00    +0.045 A 
ATOM     31  S   UNL     1      -3.712  -3.845   0.929  0.00  0.00    -0.100 S 
ENDBRANCH  26  27
ENDBRANCH  25  26
ENDBRANCH  20  21
ENDBRANCH  19  20
ENDBRANCH   1  19
TORSDOF 6
