REMARK  Name = ZINC24828414
REMARK  9 active torsions:
REMARK  status: ('A' for Active; 'I' for Inactive)
REMARK    1  A    between atoms: C_1  and  C_2
REMARK    2  A    between atoms: C_2  and  C_4
REMARK    3  A    between atoms: C_2  and  N_10
REMARK    4  A    between atoms: C_11  and  C_13
REMARK    5  A    between atoms: C_13  and  C_15
REMARK    6  A    between atoms: C_13  and  N_16
REMARK    7  A    between atoms: C_19  and  C_22
REMARK    8  A    between atoms: N_24  and  C_25
REMARK    9  A    between atoms: C_30  and  O_31
REMARK                            x       y       z     vdW  Elec       q    Type
REMARK                         _______ _______ _______ _____ _____    ______ ____
ROOT
ATOM      1  N   UNL     1      -5.211   0.457  -0.328  0.00  0.00    +0.387 N 
ATOM      2  C   UNL     1      -5.672   1.159   0.877  0.00  0.00    -0.077 C 
ATOM      3  C   UNL     1      -4.725   2.321   1.186  0.00  0.00    -0.006 C 
ATOM      4  C   UNL     1      -3.310   1.776   1.399  0.00  0.00    +0.072 C 
ATOM      5  C   UNL     1      -2.873   1.008   0.149  0.00  0.00    -0.006 C 
ATOM      6  C   UNL     1      -3.873  -0.115  -0.130  0.00  0.00    -0.077 C 
ATOM      7  H   UNL     1      -5.143   1.195  -1.141  0.00  0.00    -0.081 HD
ENDROOT
BRANCH   4   8
ATOM      8  C   UNL     1      -2.361   2.921   1.645  0.00  0.00    +0.220 C 
ATOM      9  O   UNL     1      -2.775   4.061   1.649  0.00  0.00    -0.275 OA
ATOM     10  N   UNL     1      -1.053   2.678   1.860  0.00  0.00    -0.282 N 
ATOM     11  H   UNL     1      -0.661   1.654   1.768  0.00  0.00    +0.155 HD
BRANCH  10  12
ATOM     12  C   UNL     1      -0.192   3.729   2.201  0.00  0.00    +0.075 A 
ATOM     13  C   UNL     1      -0.707   4.913   2.708  0.00  0.00    +0.027 A 
ATOM     14  C   UNL     1       0.144   5.949   3.044  0.00  0.00    +0.002 A 
ATOM     15  C   UNL     1       1.510   5.808   2.877  0.00  0.00    +0.004 A 
ATOM     16  C   UNL     1       2.030   4.631   2.372  0.00  0.00    +0.047 A 
ATOM     17  C   UNL     1       1.184   3.586   2.038  0.00  0.00    +0.138 A 
BRANCH  17  18
ATOM     18  O   UNL     1       1.695   2.426   1.547  0.00  0.00    -0.505 OA
ATOM     19  H   UNL     1       2.782   2.314   1.418  0.00  0.00    +0.292 HD
ENDBRANCH  17  18
ENDBRANCH  10  12
ENDBRANCH   4   8
BRANCH   1  20
ATOM     20  C   UNL     1      -6.172  -0.577  -0.735  0.00  0.00    +0.016 C 
ATOM     21  C   UNL     1      -5.570  -1.418  -1.863  0.00  0.00    -0.004 C 
BRANCH  20  23
ATOM     22  N   UNL     1      -7.685  -2.066   0.536  0.00  0.00    -0.310 N 
ATOM     23  C   UNL     1      -6.482  -1.465   0.443  0.00  0.00    +0.200 C 
ATOM     24  O   UNL     1      -5.649  -1.639   1.307  0.00  0.00    -0.278 OA
ATOM     25  H   UNL     1      -8.440  -1.908  -0.248  0.00  0.00    +0.149 HD
BRANCH  22  27
ATOM     26  C   UNL     1      -7.466  -4.341   1.405  0.00  0.00    +0.033 C 
ATOM     27  C   UNL     1      -7.986  -2.929   1.680  0.00  0.00    +0.100 C 
BRANCH  27  28
ATOM     28  C   UNL     1      -9.477  -2.976   1.896  0.00  0.00    -0.027 A 
ATOM     29  C   UNL     1     -10.331  -3.035   0.810  0.00  0.00    +0.005 A 
ATOM     30  C   UNL     1     -11.698  -3.083   1.007  0.00  0.00    +0.000 A 
ATOM     31  C   UNL     1     -12.212  -3.061   2.290  0.00  0.00    +0.000 A 
ATOM     32  C   UNL     1     -11.359  -2.996   3.376  0.00  0.00    +0.000 A 
ATOM     33  C   UNL     1      -9.991  -2.953   3.179  0.00  0.00    +0.005 A 
ENDBRANCH  27  28
ENDBRANCH  22  27
ENDBRANCH  20  23
ENDBRANCH   1  20
TORSDOF 7
