REMARK  Name = ZINC22411681
REMARK  9 active torsions:
REMARK  status: ('A' for Active; 'I' for Inactive)
REMARK    1  A    between atoms: C_1  and  C_2
REMARK    2  A    between atoms: C_2  and  C_4
REMARK    3  A    between atoms: C_2  and  O_26
REMARK    4  A    between atoms: N_6  and  N_7
REMARK    5  A    between atoms: C_8  and  C_10
REMARK    6  A    between atoms: C_13  and  N_16
REMARK    7  A    between atoms: N_16  and  S_17
REMARK    8  A    between atoms: S_17  and  C_20
REMARK    9  A    between atoms: O_26  and  C_27
REMARK                            x       y       z     vdW  Elec       q    Type
REMARK                         _______ _______ _______ _____ _____    ______ ____
ROOT
ATOM      1  N   UNL     1       3.992   4.120  -5.079  0.00  0.00    -0.230 N 
ATOM      2  C   UNL     1       4.526   2.887  -5.190  0.00  0.00    +0.260 C 
ATOM      3  O   UNL     1       5.246   2.620  -6.133  0.00  0.00    -0.269 OA
ATOM      4  H   UNL     1       3.341   4.362  -4.226  0.00  0.00    +0.173 HD
ENDROOT
BRANCH   2   5
ATOM      5  C   UNL     1       4.238   1.863  -4.168  0.00  0.00    +0.038 A 
ATOM      6  C   UNL     1       4.792   0.585  -4.281  0.00  0.00    +0.015 A 
ATOM      7  C   UNL     1       4.521  -0.368  -3.326  0.00  0.00    +0.025 A 
ATOM      8  C   UNL     1       3.698  -0.060  -2.247  0.00  0.00    +0.048 A 
ATOM      9  C   UNL     1       3.141   1.211  -2.133  0.00  0.00    +0.025 A 
ATOM     10  C   UNL     1       3.411   2.170  -3.083  0.00  0.00    +0.015 A 
BRANCH   8  11
ATOM     11  N   UNL     1       3.427  -1.024  -1.283  0.00  0.00    -0.216 N 
ATOM     12  H   UNL     1       2.440  -1.509  -1.253  0.00  0.00    +0.174 HD
BRANCH  11  13
ATOM     13  S   UNL     1       4.590  -1.444  -0.181  0.00  0.00    +0.072 S 
ATOM     14  O   UNL     1       5.766  -1.737  -0.923  0.00  0.00    -0.150 OA
ATOM     15  O   UNL     1       3.992  -2.383   0.703  0.00  0.00    -0.150 OA
BRANCH  13  16
ATOM     16  C   UNL     1       4.943  -0.007   0.776  0.00  0.00    +0.108 A 
ATOM     17  C   UNL     1       4.151   0.313   1.862  0.00  0.00    +0.029 A 
ATOM     18  C   UNL     1       4.428   1.440   2.612  0.00  0.00    +0.002 A 
ATOM     19  C   UNL     1       5.497   2.249   2.276  0.00  0.00    +0.000 A 
ATOM     20  C   UNL     1       6.290   1.929   1.189  0.00  0.00    +0.002 A 
ATOM     21  C   UNL     1       6.013   0.802   0.439  0.00  0.00    +0.029 A 
ENDBRANCH  13  16
ENDBRANCH  11  13
ENDBRANCH   8  11
ENDBRANCH   2   5
BRANCH   1  24
ATOM     22  C   UNL     1       3.731   6.324  -5.938  0.00  0.00    +0.270 C 
ATOM     23  O   UNL     1       3.013   6.591  -4.998  0.00  0.00    -0.270 OA
ATOM     24  N   UNL     1       4.265   5.092  -6.049  0.00  0.00    -0.231 N 
ATOM     25  H   UNL     1       4.916   4.850  -6.902  0.00  0.00    +0.173 HD
BRANCH  22  27
ATOM     26  C   UNL     1       5.515   7.715  -6.953  0.00  0.00    +0.062 C 
ATOM     27  C   UNL     1       4.025   7.370  -6.982  0.00  0.00    +0.257 C 
BRANCH  27  28
ATOM     28  O   UNL     1       3.259   8.545  -6.709  0.00  0.00    -0.477 OA
BRANCH  28  29
ATOM     29  C   UNL     1       2.978   9.358  -7.762  0.00  0.00    +0.157 A 
ATOM     30  C   UNL     1       3.528   9.095  -9.008  0.00  0.00    +0.048 A 
ATOM     31  C   UNL     1       3.241   9.922 -10.077  0.00  0.00    +0.004 A 
ATOM     32  C   UNL     1       2.407  11.012  -9.907  0.00  0.00    +0.003 A 
ATOM     33  C   UNL     1       1.857  11.277  -8.667  0.00  0.00    +0.042 A 
ATOM     34  C   UNL     1       2.137  10.450  -7.594  0.00  0.00    +0.165 A 
ATOM     35  F   UNL     1       1.595  10.706  -6.383  0.00  0.00    -0.202 F 
ENDBRANCH  28  29
ENDBRANCH  27  28
ENDBRANCH  22  27
ENDBRANCH   1  24
TORSDOF 8
