REMARK  Name = ZINC02189721
REMARK  14 active torsions:
REMARK  status: ('A' for Active; 'I' for Inactive)
REMARK    1  A    between atoms: C_1  and  C_2
REMARK    2  A    between atoms: C_2  and  O_3
REMARK    3  A    between atoms: O_3  and  C_4
REMARK    4  A    between atoms: C_4  and  C_6
REMARK    5  A    between atoms: C_7  and  C_38
REMARK    6  A    between atoms: C_14  and  C_15
REMARK    7  A    between atoms: C_18  and  O_23
REMARK    8  A    between atoms: C_19  and  O_21
REMARK    9  A    between atoms: O_21  and  C_22
REMARK   10  A    between atoms: O_23  and  C_24
REMARK   11  A    between atoms: C_26  and  C_28
REMARK   12  A    between atoms: C_31  and  O_34
REMARK   13  A    between atoms: O_34  and  C_35
REMARK   14  A    between atoms: C_35  and  C_36
REMARK                            x       y       z     vdW  Elec       q    Type
REMARK                         _______ _______ _______ _____ _____    ______ ____
ROOT
ATOM      1  C   UNL     1      -7.240   1.016   0.598  0.00  0.00    +0.085 C 
ATOM      2  C   UNL     1      -6.750   2.291   0.555  0.00  0.00    +0.053 C 
ATOM      3  N   UNL     1      -5.447   2.509   0.430  0.00  0.00    -0.228 NA
ATOM      4  C   UNL     1      -4.538   1.572   0.338  0.00  0.00    +0.178 A 
ATOM      5  N   UNL     1      -4.816   0.224   0.360  0.00  0.00    -0.275 N 
ATOM      6  C   UNL     1      -3.801  -0.643   0.253  0.00  0.00    +0.268 A 
ATOM      7  O   UNL     1      -3.999  -1.844   0.262  0.00  0.00    -0.266 OA
ATOM      8  C   UNL     1      -2.441  -0.101   0.128  0.00  0.00    +0.081 A 
ATOM      9  C   UNL     1      -1.258  -0.758   0.011  0.00  0.00    +0.028 C 
ATOM     10  S   UNL     1      -2.766   1.655   0.166  0.00  0.00    -0.046 S 
ATOM     11  C   UNL     1      -6.257  -0.128   0.499  0.00  0.00    +0.162 C 
ATOM     12  C   UNL     1      -7.697   3.459   0.650  0.00  0.00    +0.066 C 
ENDROOT
BRANCH   9  13
ATOM     13  C   UNL     1      -0.028  -0.008  -0.274  0.00  0.00    -0.020 A 
ATOM     14  C   UNL     1      -0.101   1.300  -0.767  0.00  0.00    +0.012 A 
ATOM     15  C   UNL     1       1.055   2.001  -1.033  0.00  0.00    +0.050 A 
ATOM     16  C   UNL     1       2.294   1.413  -0.814  0.00  0.00    +0.162 A 
ATOM     17  C   UNL     1       2.375   0.110  -0.323  0.00  0.00    +0.162 A 
ATOM     18  C   UNL     1       1.222  -0.600  -0.053  0.00  0.00    +0.057 A 
BRANCH  17  19
ATOM     19  O   UNL     1       3.591  -0.461  -0.110  0.00  0.00    -0.491 OA
ATOM     20  C   UNL     1       3.600  -1.798   0.393  0.00  0.00    +0.277 C 
ENDBRANCH  17  19
BRANCH  16  21
ATOM     21  O   UNL     1       3.430   2.109  -1.078  0.00  0.00    -0.491 OA
ATOM     22  C   UNL     1       3.275   3.439  -1.578  0.00  0.00    +0.277 C 
ENDBRANCH  16  21
ENDBRANCH   9  13
BRANCH  11  23
ATOM     23  C   UNL     1      -6.410  -0.979   1.733  0.00  0.00    -0.020 A 
ATOM     24  C   UNL     1      -5.810  -0.591   2.917  0.00  0.00    +0.009 A 
ATOM     25  C   UNL     1      -5.953  -1.367   4.051  0.00  0.00    +0.046 A 
ATOM     26  C   UNL     1      -6.691  -2.540   3.999  0.00  0.00    +0.121 A 
ATOM     27  C   UNL     1      -7.287  -2.930   2.809  0.00  0.00    +0.046 A 
ATOM     28  C   UNL     1      -7.145  -2.148   1.679  0.00  0.00    +0.009 A 
BRANCH  26  29
ATOM     29  O   UNL     1      -6.828  -3.308   5.112  0.00  0.00    -0.488 OA
BRANCH  29  30
ATOM     30  C   UNL     1      -6.187  -2.845   6.303  0.00  0.00    +0.256 C 
BRANCH  30  31
ATOM     31  C   UNL     1      -6.448  -3.817   7.424  0.00  0.00    +0.006 C 
ATOM     32  C   UNL     1      -5.468  -4.188   8.211  0.00  0.00    +0.007 C 
ENDBRANCH  30  31
ENDBRANCH  29  30
ENDBRANCH  26  29
ENDBRANCH  11  23
BRANCH   1  33
ATOM     33  C   UNL     1      -8.617   0.775   0.731  0.00  0.00    +0.339 C 
ATOM     34  O   UNL     1      -9.394   1.710   0.810  0.00  0.00    -0.245 OA
BRANCH  33  35
ATOM     35  O   UNL     1      -9.081  -0.493   0.772  0.00  0.00    -0.462 OA
BRANCH  35  37
ATOM     36  C   UNL     1     -10.826  -2.157   0.935  0.00  0.00    +0.048 C 
ATOM     37  C   UNL     1     -10.493  -0.664   0.908  0.00  0.00    +0.229 C 
ENDBRANCH  35  37
ENDBRANCH  33  35
ENDBRANCH   1  33
TORSDOF 10
