REMARK  Name = ZINC59447336
REMARK  9 active torsions:
REMARK  status: ('A' for Active; 'I' for Inactive)
REMARK    1  A    between atoms: C_1  and  C_2
REMARK    2  A    between atoms: C_2  and  O_3
REMARK    3  A    between atoms: O_3  and  C_4
REMARK    4  A    between atoms: C_6  and  C_22
REMARK    5  A    between atoms: C_9  and  O_10
REMARK    6  A    between atoms: O_10  and  C_11
REMARK    7  A    between atoms: C_11  and  C_12
REMARK    8  A    between atoms: N_23  and  N_24
REMARK    9  A    between atoms: C_25  and  C_27
REMARK                            x       y       z     vdW  Elec       q    Type
REMARK                         _______ _______ _______ _____ _____    ______ ____
ROOT
ATOM      1  C   UNL     1       0.777  -1.811  -1.336  0.00  0.00    +0.163 A 
ATOM      2  C   UNL     1       0.244  -2.665  -0.389  0.00  0.00    +0.059 A 
ATOM      3  C   UNL     1       0.355  -4.048  -0.559  0.00  0.00    -0.002 A 
ATOM      4  C   UNL     1       1.003  -4.560  -1.686  0.00  0.00    +0.013 A 
ATOM      5  C   UNL     1       1.532  -3.701  -2.627  0.00  0.00    +0.050 A 
ATOM      6  C   UNL     1       1.417  -2.329  -2.460  0.00  0.00    +0.162 A 
ENDROOT
BRANCH   3   7
ATOM      7  C   UNL     1      -0.211  -4.964   0.448  0.00  0.00    +0.138 C 
ATOM      8  N   UNL     1      -0.107  -6.248   0.288  0.00  0.00    -0.187 NA
BRANCH   8   9
ATOM      9  N   UNL     1      -0.644  -7.119   1.245  0.00  0.00    -0.203 N 
ATOM     10  C   UNL     1      -0.537  -8.452   1.079  0.00  0.00    +0.263 C 
ATOM     11  O   UNL     1       0.027  -8.899   0.099  0.00  0.00    -0.268 OA
ATOM     12  H   UNL     1      -1.094  -6.762   2.027  0.00  0.00    +0.178 HD
BRANCH  10  13
ATOM     13  C   UNL     1      -1.104  -9.370   2.088  0.00  0.00    +0.039 A 
ATOM     14  C   UNL     1      -1.757  -8.860   3.212  0.00  0.00    +0.013 A 
ATOM     15  C   UNL     1      -2.284  -9.723   4.151  0.00  0.00    +0.002 A 
ATOM     16  C   UNL     1      -2.168 -11.091   3.981  0.00  0.00    +0.015 A 
ATOM     17  C   UNL     1      -1.521 -11.604   2.869  0.00  0.00    +0.019 A 
ATOM     18  C   UNL     1      -0.994 -10.752   1.919  0.00  0.00    +0.028 A 
ATOM     19 BR   UNL     1      -1.367 -13.475   2.647  0.00  0.00    -0.050 Br
ENDBRANCH  10  13
ENDBRANCH   8   9
ENDBRANCH   3   7
BRANCH   1  20
ATOM     20  O   UNL     1       0.671  -0.465  -1.174  0.00  0.00    -0.489 OA
BRANCH  20  22
ATOM     21  C   UNL     1      -0.019   1.526   0.010  0.00  0.00    +0.048 C 
ATOM     22  C   UNL     1       0.002  -0.004   0.002  0.00  0.00    +0.226 C 
ENDBRANCH  20  22
ENDBRANCH   1  20
BRANCH   6  23
ATOM     23  O   UNL     1       1.935  -1.487  -3.393  0.00  0.00    -0.484 OA
BRANCH  23  24
ATOM     24  C   UNL     1       2.578  -2.084  -4.521  0.00  0.00    +0.265 C 
BRANCH  24  25
ATOM     25  C   UNL     1       3.086  -1.004  -5.441  0.00  0.00    -0.003 A 
ATOM     26  C   UNL     1       2.899   0.307  -5.125  0.00  0.00    +0.007 A 
ATOM     27  C   UNL     1       3.361   1.320  -5.963  0.00  0.00    +0.001 A 
ATOM     28  C   UNL     1       4.012   1.028  -7.122  0.00  0.00    +0.008 A 
ATOM     29  C   UNL     1       4.223  -0.314  -7.482  0.00  0.00    -0.018 A 
ATOM     30  C   UNL     1       3.759  -1.344  -6.626  0.00  0.00    -0.011 A 
ATOM     31  C   UNL     1       3.975  -2.686  -6.983  0.00  0.00    +0.009 A 
ATOM     32  C   UNL     1       4.631  -2.978  -8.139  0.00  0.00    +0.001 A 
ATOM     33  C   UNL     1       5.093  -1.965  -8.977  0.00  0.00    +0.001 A 
ATOM     34  C   UNL     1       4.891  -0.655  -8.671  0.00  0.00    +0.008 A 
ENDBRANCH  24  25
ENDBRANCH  23  24
ENDBRANCH   6  23
TORSDOF 8
