REMARK  Name = ZINC08856349
REMARK  12 active torsions:
REMARK  status: ('A' for Active; 'I' for Inactive)
REMARK    1  A    between atoms: C_1  and  C_2
REMARK    2  A    between atoms: C_2  and  C_3
REMARK    3  A    between atoms: C_2  and  C_4
REMARK    4  A    between atoms: C_7  and  C_10
REMARK    5  A    between atoms: C_13  and  C_14
REMARK    6  A    between atoms: C_13  and  O_24
REMARK    7  A    between atoms: N_29  and  C_30
REMARK    8  A    between atoms: C_30  and  C_31
REMARK    9  A    between atoms: C_31  and  C_32
REMARK   10  A    between atoms: C_32  and  N_66
REMARK   11  A    between atoms: C_33  and  N_66
REMARK   12  A    between atoms: C_34  and  N_66
REMARK                            x       y       z     vdW  Elec       q    Type
REMARK                         _______ _______ _______ _____ _____    ______ ____
ROOT
ATOM      1  C   UNL     1       4.927  -2.956   0.145  0.00  0.00    +0.144 C 
ATOM      2  C   UNL     1       3.707  -2.069   0.050  0.00  0.00    +0.071 C 
ATOM      3  C   UNL     1       3.687  -0.691  -0.046  0.00  0.00    +0.133 C 
ATOM      4  C   UNL     1       2.598  -2.928   0.073  0.00  0.00    +0.249 C 
ATOM      5  O   UNL     1       1.430  -2.588   0.012  0.00  0.00    -0.282 OA
ATOM      6  C   UNL     1       3.096  -4.326   0.186  0.00  0.00    +0.288 C 
ATOM      7  O   UNL     1       2.391  -5.314   0.230  0.00  0.00    -0.266 OA
ATOM      8  N   UNL     1       4.438  -4.335   0.230  0.00  0.00    -0.284 N 
ENDROOT
BRANCH   3   9
ATOM      9  C   UNL     1       2.404   0.023  -0.118  0.00  0.00    +0.021 A 
ATOM     10  C   UNL     1       1.435  -0.170   0.875  0.00  0.00    +0.015 A 
ATOM     11  C   UNL     1       0.235   0.499   0.803  0.00  0.00    +0.050 A 
ATOM     12  C   UNL     1      -0.022   1.369  -0.252  0.00  0.00    +0.162 A 
ATOM     13  C   UNL     1       0.938   1.568  -1.242  0.00  0.00    +0.163 A 
ATOM     14  C   UNL     1       2.146   0.899  -1.179  0.00  0.00    +0.061 A 
ATOM     15  O   UNL     1       0.705   2.423  -2.276  0.00  0.00    -0.485 OA
ATOM     16  C   UNL     1      -0.658   2.793  -2.509  0.00  0.00    +0.270 C 
ATOM     17  C   UNL     1      -1.294   3.158  -1.161  0.00  0.00    +0.270 C 
ATOM     18  O   UNL     1      -1.218   2.012  -0.305  0.00  0.00    -0.485 OA
ENDBRANCH   3   9
BRANCH   1  22
ATOM     19  C   UNL     1       7.362  -2.470  -3.331  0.00  0.00    -0.045 A 
ATOM     20  C   UNL     1       7.710  -1.841  -2.150  0.00  0.00    +0.004 A 
ATOM     21  C   UNL     1       6.922  -1.998  -1.025  0.00  0.00    +0.006 A 
ATOM     22  C   UNL     1       5.786  -2.784  -1.081  0.00  0.00    -0.022 A 
ATOM     23  C   UNL     1       5.441  -3.417  -2.261  0.00  0.00    +0.006 A 
ATOM     24  C   UNL     1       6.226  -3.256  -3.387  0.00  0.00    +0.004 A 
BRANCH  19  26
ATOM     25  C   UNL     1       8.739  -3.666  -5.012  0.00  0.00    +0.012 C 
ATOM     26  C   UNL     1       8.222  -2.300  -4.557  0.00  0.00    +0.013 C 
ATOM     27  C   UNL     1       7.392  -1.670  -5.678  0.00  0.00    +0.012 C 
ENDBRANCH  19  26
ENDBRANCH   1  22
BRANCH   3  28
ATOM     28  O   UNL     1       4.847   0.000  -0.074  0.00  0.00    -0.506 OA
ATOM     29  H   UNL     1       4.651   0.978  -0.145  0.00  0.00    +0.292 HD
ENDBRANCH   3  28
BRANCH   8  30
ATOM     30  C   UNL     1       5.278  -5.530   0.339  0.00  0.00    +0.107 C 
BRANCH  30  31
ATOM     31  C   UNL     1       5.617  -6.045  -1.061  0.00  0.00    +0.000 C 
BRANCH  31  32
ATOM     32  C   UNL     1       6.494  -7.294  -0.947  0.00  0.00    -0.078 C 
BRANCH  32  35
ATOM     33  C   UNL     1       7.846  -8.836  -2.233  0.00  0.00    -0.097 C 
ATOM     34  C   UNL     1       5.615  -8.269  -2.982  0.00  0.00    -0.097 C 
ATOM     35  N   UNL     1       6.830  -7.766  -2.307  0.00  0.00    +0.376 N 
ATOM     36  H   UNL     1       7.211  -6.981  -2.848  0.00  0.00    -0.083 HD
ENDBRANCH  32  35
ENDBRANCH  31  32
ENDBRANCH  30  31
ENDBRANCH   8  30
TORSDOF 8
