REMARK  Name = ZINC20609744
REMARK  6 active torsions:
REMARK  status: ('A' for Active; 'I' for Inactive)
REMARK    1  A    between atoms: C_1  and  C_2
REMARK    2  A    between atoms: C_19  and  C_21
REMARK    3  A    between atoms: C_21  and  N_22
REMARK    4  A    between atoms: N_25  and  C_28
REMARK    5  A    between atoms: C_28  and  C_30
REMARK    6  A    between atoms: C_28  and  C_36
REMARK                            x       y       z     vdW  Elec       q    Type
REMARK                         _______ _______ _______ _____ _____    ______ ____
ROOT
ATOM      1  N   UNL     1       0.485   8.086  -0.193  0.00  0.00    +0.382 N 
ATOM      2  C   UNL     1      -0.874   8.101   0.367  0.00  0.00    -0.063 C 
ATOM      3  C   UNL     1      -1.295   9.546   0.641  0.00  0.00    +0.067 C 
ATOM      4  N   UNL     1      -1.235  10.317  -0.608  0.00  0.00    -0.295 NA
ATOM      5  C   UNL     1       0.124  10.303  -1.168  0.00  0.00    +0.067 C 
ATOM      6  C   UNL     1       0.545   8.857  -1.442  0.00  0.00    -0.063 C 
ATOM      7  H   UNL     1       1.157   8.566   0.534  0.00  0.00    -0.082 HD
ENDROOT
BRANCH   1   8
ATOM      8  C   UNL     1       0.955   6.710  -0.400  0.00  0.00    -0.064 C 
BRANCH   8  24
ATOM      9  C   UNL     1       6.285   5.141   0.246  0.00  0.00    +0.012 C 
ATOM     10  C   UNL     1       5.560   3.916  -0.315  0.00  0.00    -0.022 C 
ATOM     11  C   UNL     1       6.510   2.719  -0.328  0.00  0.00    +0.007 C 
ATOM     12  C   UNL     1       7.767   3.068  -1.128  0.00  0.00    +0.005 C 
ATOM     13  C   UNL     1       7.389   3.344  -2.587  0.00  0.00    +0.030 C 
ATOM     14  C   UNL     1       6.311   4.406  -2.616  0.00  0.00    -0.073 C 
ATOM     15  C   UNL     1       6.432   5.468  -3.373  0.00  0.00    +0.008 C 
ATOM     16  C   UNL     1       5.091   4.205  -1.748  0.00  0.00    +0.021 C 
ATOM     17  C   UNL     1       4.250   5.477  -1.724  0.00  0.00    +0.016 C 
ATOM     18  C   UNL     1       2.996   5.278  -0.869  0.00  0.00    +0.042 C 
ATOM     19  C   UNL     1       3.358   4.744   0.530  0.00  0.00    +0.181 C 
ATOM     20  C   UNL     1       4.325   3.602   0.528  0.00  0.00    +0.052 C 
ATOM     21  O   UNL     1       3.889   5.944   1.206  0.00  0.00    -0.461 OA
ATOM     22  C   UNL     1       3.107   6.987   0.849  0.00  0.00    +0.309 C 
ATOM     23  O   UNL     1       2.933   7.987   1.504  0.00  0.00    -0.251 OA
ATOM     24  C   UNL     1       2.481   6.702  -0.503  0.00  0.00    +0.088 C 
ENDBRANCH   8  24
ENDBRANCH   1   8
BRANCH   4  25
ATOM     25  C   UNL     1      -1.705  11.693  -0.401  0.00  0.00    +0.117 C 
BRANCH  25  26
ATOM     26  C   UNL     1      -1.777  12.404  -1.728  0.00  0.00    -0.026 A 
ATOM     27  C   UNL     1      -2.239  11.736  -2.846  0.00  0.00    +0.007 A 
ATOM     28  C   UNL     1      -2.311  12.389  -4.062  0.00  0.00    +0.020 A 
ATOM     29  C   UNL     1      -1.910  13.709  -4.162  0.00  0.00    +0.041 A 
ATOM     30  C   UNL     1      -1.442  14.376  -3.044  0.00  0.00    +0.020 A 
ATOM     31  C   UNL     1      -1.376  13.724  -1.827  0.00  0.00    +0.007 A 
ATOM     32 CL   UNL     1      -1.994  14.529  -5.690  0.00  0.00    -0.084 Cl
ENDBRANCH  25  26
BRANCH  25  33
ATOM     33  C   UNL     1      -3.073  11.667   0.230  0.00  0.00    -0.026 A 
ATOM     34  C   UNL     1      -4.044  10.814  -0.259  0.00  0.00    +0.005 A 
ATOM     35  C   UNL     1      -5.297  10.786   0.323  0.00  0.00    +0.000 A 
ATOM     36  C   UNL     1      -5.583  11.620   1.388  0.00  0.00    +0.000 A 
ATOM     37  C   UNL     1      -4.614  12.477   1.874  0.00  0.00    +0.000 A 
ATOM     38  C   UNL     1      -3.359  12.501   1.295  0.00  0.00    +0.005 A 
ENDBRANCH  25  33
ENDBRANCH   4  25
TORSDOF 5
