REMARK  Name = ZINC63490348
REMARK  8 active torsions:
REMARK  status: ('A' for Active; 'I' for Inactive)
REMARK    1  A    between atoms: C_1  and  C_2
REMARK    2  A    between atoms: C_3  and  C_17
REMARK    3  A    between atoms: C_4  and  C_16
REMARK    4  A    between atoms: C_17  and  C_18
REMARK    5  A    between atoms: C_18  and  C_19
REMARK    6  A    between atoms: N_21  and  C_22
REMARK    7  A    between atoms: C_22  and  C_23
REMARK    8  A    between atoms: C_23  and  C_24
REMARK                            x       y       z     vdW  Elec       q    Type
REMARK                         _______ _______ _______ _____ _____    ______ ____
ROOT
ATOM      1  C   UNL     1      -0.022  -0.029  -2.485  0.00  0.00    +0.047 C 
ENDROOT
BRANCH   1   4
ATOM      2  C   UNL     1      -0.018   1.503   0.010  0.00  0.00    +0.062 C 
ATOM      3  C   UNL     1       0.002  -0.004   0.002  0.00  0.00    +0.030 C 
ATOM      4  C   UNL     1       0.007  -0.728  -1.150  0.00  0.00    -0.008 C 
ATOM      5  C   UNL     1       0.038  -2.138  -1.086  0.00  0.00    +0.040 C 
ATOM      6  N   UNL     1       0.315  -2.794  -0.001  0.00  0.00    -0.259 NA
ATOM      7  C   UNL     1       0.655  -2.081   1.231  0.00  0.00    +0.243 C 
ATOM      8  N   UNL     1       0.023  -0.746   1.155  0.00  0.00    -0.227 N 
ATOM      9  N   UNL     1      -0.552  -0.501   2.399  0.00  0.00    -0.246 N 
ATOM     10  C   UNL     1      -0.678  -1.688   3.095  0.00  0.00    +0.142 A 
ATOM     11  C   UNL     1       0.039  -2.710   2.439  0.00  0.00    +0.037 A 
ATOM     12  C   UNL     1       0.090  -4.000   2.923  0.00  0.00    +0.012 A 
ATOM     13  C   UNL     1      -0.616  -4.226   4.106  0.00  0.00    +0.020 A 
ATOM     14  C   UNL     1      -1.302  -3.200   4.717  0.00  0.00    +0.113 A 
ATOM     15  N   UNL     1      -1.330  -1.939   4.227  0.00  0.00    -0.239 NA
ATOM     16  C   UNL     1      -0.265  -2.919  -2.339  0.00  0.00    +0.065 C 
ATOM     17  H   UNL     1      -0.823   0.371   2.727  0.00  0.00    +0.172 HD
ENDBRANCH   1   4
BRANCH   1  18
ATOM     18  C   UNL     1       1.407   0.128  -3.009  0.00  0.00    +0.100 C 
BRANCH  18  19
ATOM     19  C   UNL     1       1.378   0.827  -4.344  0.00  0.00    +0.213 C 
ATOM     20  O   UNL     1       0.319   1.166  -4.828  0.00  0.00    -0.276 OA
ATOM     21  N   UNL     1       2.529   1.075  -4.999  0.00  0.00    -0.315 N 
ATOM     22  H   UNL     1       3.376   0.804  -4.612  0.00  0.00    +0.149 HD
BRANCH  21  23
ATOM     23  C   UNL     1       2.501   1.754  -6.297  0.00  0.00    +0.108 C 
BRANCH  23  24
ATOM     24  C   UNL     1       3.930   1.912  -6.821  0.00  0.00    +0.052 C 
BRANCH  24  25
ATOM     25  C   UNL     1       3.901   2.610  -8.156  0.00  0.00    -0.040 C 
ATOM     26  C   UNL     1       4.063   3.934  -8.385  0.00  0.00    -0.001 A 
ATOM     27  C   UNL     1       4.303   5.075  -7.493  0.00  0.00    +0.010 A 
ATOM     28  C   UNL     1       4.423   6.311  -8.028  0.00  0.00    +0.001 A 
ATOM     29  C   UNL     1       4.324   6.529  -9.409  0.00  0.00    +0.002 A 
ATOM     30  C   UNL     1       4.104   5.532 -10.291  0.00  0.00    +0.026 A 
ATOM     31  C   UNL     1       3.962   4.191  -9.839  0.00  0.00    +0.043 A 
ATOM     32  N   UNL     1       3.747   3.070 -10.485  0.00  0.00    -0.380 N 
ATOM     33  C   UNL     1       3.693   1.973  -9.512  0.00  0.00    +0.144 C 
ATOM     34  H   UNL     1       3.645   2.981 -11.445  0.00  0.00    +0.160 HD
ENDBRANCH  24  25
ENDBRANCH  23  24
ENDBRANCH  21  23
ENDBRANCH  18  19
ENDBRANCH   1  18
TORSDOF 6
