REMARK  Name = ZINC39981011
REMARK  7 active torsions:
REMARK  status: ('A' for Active; 'I' for Inactive)
REMARK    1  A    between atoms: C_1  and  C_2
REMARK    2  A    between atoms: C_14  and  S_16
REMARK    3  A    between atoms: S_16  and  C_17
REMARK    4  A    between atoms: C_17  and  C_18
REMARK    5  A    between atoms: N_20  and  C_21
REMARK    6  A    between atoms: C_21  and  C_22
REMARK    7  A    between atoms: C_21  and  C_28
REMARK                            x       y       z     vdW  Elec       q    Type
REMARK                         _______ _______ _______ _____ _____    ______ ____
ROOT
ATOM      1  C   UNL     1      -2.645  -7.333   2.852  0.00  0.00    +0.173 C 
ENDROOT
BRANCH   1   2
ATOM      2  C   UNL     1      -3.623  -8.355   3.372  0.00  0.00    +0.224 C 
ATOM      3  O   UNL     1      -4.075  -8.247   4.492  0.00  0.00    -0.275 OA
ATOM      4  N   UNL     1      -3.994  -9.390   2.592  0.00  0.00    -0.304 N 
ATOM      5  H   UNL     1      -3.632  -9.476   1.697  0.00  0.00    +0.150 HD
BRANCH   4   6
ATOM      6  C   UNL     1      -4.944 -10.383   3.098  0.00  0.00    +0.134 C 
BRANCH   6   7
ATOM      7  C   UNL     1      -5.653 -11.035   1.939  0.00  0.00    -0.023 A 
ATOM      8  C   UNL     1      -4.951 -11.360   0.793  0.00  0.00    +0.006 A 
ATOM      9  C   UNL     1      -5.601 -11.958  -0.270  0.00  0.00    +0.000 A 
ATOM     10  C   UNL     1      -6.954 -12.232  -0.187  0.00  0.00    +0.000 A 
ATOM     11  C   UNL     1      -7.656 -11.909   0.959  0.00  0.00    +0.000 A 
ATOM     12  C   UNL     1      -7.005 -11.314   2.024  0.00  0.00    +0.006 A 
ENDBRANCH   6   7
BRANCH   6  13
ATOM     13  C   UNL     1      -4.203 -11.432   3.887  0.00  0.00    -0.023 A 
ATOM     14  C   UNL     1      -2.975 -11.890   3.445  0.00  0.00    +0.006 A 
ATOM     15  C   UNL     1      -2.295 -12.851   4.169  0.00  0.00    +0.000 A 
ATOM     16  C   UNL     1      -2.842 -13.354   5.335  0.00  0.00    +0.000 A 
ATOM     17  C   UNL     1      -4.069 -12.896   5.777  0.00  0.00    +0.000 A 
ATOM     18  C   UNL     1      -4.747 -11.931   5.055  0.00  0.00    +0.006 A 
ENDBRANCH   6  13
ENDBRANCH   4   6
ENDBRANCH   1   2
BRANCH   1  19
ATOM     19  S   UNL     1      -2.349  -6.076   4.127  0.00  0.00    -0.075 S 
BRANCH  19  32
ATOM     20  C   UNL     1      -0.018   1.503   0.010  0.00  0.00    +0.044 C 
ATOM     21  C   UNL     1       0.002  -0.004   0.002  0.00  0.00    -0.050 A 
ATOM     22  C   UNL     1       0.005  -0.672  -1.230  0.00  0.00    +0.005 A 
ATOM     23  C   UNL     1       0.029  -2.022  -1.308  0.00  0.00    +0.026 A 
ATOM     24  C   UNL     1       0.053  -2.812  -0.071  0.00  0.00    +0.046 A 
ATOM     25  N   UNL     1       0.046  -4.107   0.139  0.00  0.00    -0.358 N 
ATOM     26  C   UNL     1       0.204  -4.351   1.563  0.00  0.00    +0.252 C 
ATOM     27  C   UNL     1       0.043  -2.999   2.235  0.00  0.00    +0.117 C 
ATOM     28  C   UNL     1       0.037  -2.075   1.218  0.00  0.00    +0.025 A 
ATOM     29  C   UNL     1       0.022  -0.662   1.184  0.00  0.00    +0.015 A 
ATOM     30  N   UNL     1      -0.184  -2.888   3.546  0.00  0.00    -0.147 NA
ATOM     31  N   UNL     1      -0.780  -3.902   4.098  0.00  0.00    -0.122 NA
ATOM     32  C   UNL     1      -1.202  -4.969   3.376  0.00  0.00    +0.208 C 
ATOM     33  N   UNL     1      -0.804  -5.231   2.152  0.00  0.00    -0.227 NA
ATOM     34  H   UNL     1      -0.050  -4.789  -0.543  0.00  0.00    +0.162 HD
ENDBRANCH  19  32
ENDBRANCH   1  19
TORSDOF 6
