REMARK  Name = ZINC02632193
REMARK  9 active torsions:
REMARK  status: ('A' for Active; 'I' for Inactive)
REMARK    1  A    between atoms: C_1  and  O_2
REMARK    2  A    between atoms: O_2  and  C_3
REMARK    3  A    between atoms: C_5  and  N_34
REMARK    4  A    between atoms: C_8  and  C_9
REMARK    5  A    between atoms: C_9  and  O_11
REMARK    6  A    between atoms: O_11  and  C_12
REMARK    7  A    between atoms: C_12  and  C_13
REMARK    8  A    between atoms: C_16  and  C_28
REMARK    9  A    between atoms: C_19  and  C_21
REMARK                            x       y       z     vdW  Elec       q    Type
REMARK                         _______ _______ _______ _____ _____    ______ ____
ROOT
ATOM      1  C   UNL     1      -0.313  -6.384   0.678  0.00  0.00    +0.270 C 
ATOM      2  O   UNL     1       0.255  -6.770  -0.321  0.00  0.00    -0.270 OA
ATOM      3  N   UNL     1      -0.803  -7.277   1.562  0.00  0.00    -0.205 N 
ATOM      4  C   UNL     1      -0.729  -8.744   1.471  0.00  0.00    +0.187 C 
ATOM      5  C   UNL     1      -1.429  -9.242   2.715  0.00  0.00    +0.030 C 
ATOM      6  C   UNL     1      -1.833  -8.175   3.399  0.00  0.00    +0.050 C 
ATOM      7  N   UNL     1      -1.480  -6.996   2.756  0.00  0.00    -0.261 N 
ATOM      8  H   UNL     1      -1.675  -6.105   3.086  0.00  0.00    +0.170 HD
ENDROOT
BRANCH   6   9
ATOM      9  C   UNL     1      -2.564  -8.236   4.685  0.00  0.00    -0.003 A 
ATOM     10  C   UNL     1      -2.866  -9.470   5.260  0.00  0.00    +0.011 A 
ATOM     11  C   UNL     1      -3.547  -9.522   6.459  0.00  0.00    +0.020 A 
ATOM     12  C   UNL     1      -3.930  -8.351   7.092  0.00  0.00    +0.041 A 
ATOM     13  C   UNL     1      -3.632  -7.123   6.525  0.00  0.00    +0.020 A 
ATOM     14  C   UNL     1      -2.947  -7.060   5.329  0.00  0.00    +0.011 A 
ATOM     15 CL   UNL     1      -4.786  -8.423   8.600  0.00  0.00    -0.084 Cl
ENDBRANCH   6   9
BRANCH   4  16
ATOM     16  C   UNL     1       0.708  -9.198   1.457  0.00  0.00    +0.131 A 
ATOM     17  C   UNL     1       1.214 -10.183   0.693  0.00  0.00    +0.047 A 
ATOM     18  C   UNL     1       2.592 -10.271   0.999  0.00  0.00    +0.041 A 
ATOM     19  C   UNL     1       2.845  -9.334   1.931  0.00  0.00    +0.195 A 
ATOM     20  O   UNL     1       1.701  -8.684   2.200  0.00  0.00    -0.466 OA
ENDBRANCH   4  16
BRANCH   1  21
ATOM     21  C   UNL     1      -0.472  -4.908   0.933  0.00  0.00    +0.329 C 
BRANCH  21  22
ATOM     22  O   UNL     1       0.125  -4.173  -0.138  0.00  0.00    -0.452 OA
BRANCH  22  23
ATOM     23  C   UNL     1       0.068  -2.828  -0.063  0.00  0.00    +0.343 C 
ATOM     24  O   UNL     1      -0.473  -2.294   0.885  0.00  0.00    -0.245 OA
BRANCH  23  30
ATOM     25  C   UNL     1       0.605  -0.606  -1.054  0.00  0.00    +0.136 A 
ATOM     26  C   UNL     1       1.171   0.158  -2.059  0.00  0.00    +0.070 A 
ATOM     27  C   UNL     1       1.787  -0.464  -3.138  0.00  0.00    +0.047 A 
ATOM     28  C   UNL     1       1.836  -1.857  -3.212  0.00  0.00    +0.063 A 
ATOM     29  C   UNL     1       1.280  -2.619  -2.226  0.00  0.00    +0.040 A 
ATOM     30  C   UNL     1       0.662  -2.007  -1.129  0.00  0.00    +0.102 A 
ATOM     31 CL   UNL     1       2.608  -2.623  -4.565  0.00  0.00    -0.082 Cl
BRANCH  27  32
ATOM     32  N   UNL     1       2.356   0.304  -4.148  0.00  0.00    -0.357 N 
ATOM     33  H   UNL     1       2.323   1.272  -4.099  0.00  0.00    +0.142 HD
ATOM     34  H   UNL     1       2.787  -0.129  -4.902  0.00  0.00    +0.142 HD
ENDBRANCH  27  32
BRANCH  25  36
ATOM     35  C   UNL     1      -0.017   1.425   0.010  0.00  0.00    +0.277 C 
ATOM     36  O   UNL     1       0.002  -0.004   0.002  0.00  0.00    -0.494 OA
ENDBRANCH  25  36
ENDBRANCH  23  30
ENDBRANCH  22  23
ENDBRANCH  21  22
ENDBRANCH   1  21
TORSDOF 8
