REMARK  Name = ZINC03440805
REMARK  8 active torsions:
REMARK  status: ('A' for Active; 'I' for Inactive)
REMARK    1  A    between atoms: C_4  and  C_7
REMARK    2  A    between atoms: C_15  and  C_18
REMARK    3  A    between atoms: C_18  and  S_19
REMARK    4  A    between atoms: S_19  and  C_20
REMARK    5  A    between atoms: C_23  and  C_26
REMARK    6  A    between atoms: N_24  and  N_25
REMARK    7  A    between atoms: C_29  and  O_32
REMARK    8  A    between atoms: O_32  and  C_33
REMARK                            x       y       z     vdW  Elec       q    Type
REMARK                         _______ _______ _______ _____ _____    ______ ____
ROOT
ATOM      1  S   UNL     1       1.759  -2.123  -0.026  0.00  0.00    -0.080 S 
ENDROOT
BRANCH   1   2
ATOM      2  C   UNL     1       1.242  -0.439  -0.012  0.00  0.00    +0.209 A 
ATOM      3  N   UNL     1       0.002  -0.004   0.002  0.00  0.00    -0.121 NA
ATOM      4  N   UNL     1      -0.015   1.281   0.009  0.00  0.00    -0.127 NA
ATOM      5  C   UNL     1       1.212   1.746  -0.000  0.00  0.00    +0.182 A 
ATOM      6  N   UNL     1       2.056   0.659  -0.014  0.00  0.00    -0.224 N 
BRANCH   5   7
ATOM      7  C   UNL     1       1.613   3.169   0.003  0.00  0.00    +0.021 A 
ATOM      8  C   UNL     1       2.924   3.527  -0.315  0.00  0.00    +0.015 A 
ATOM      9  C   UNL     1       3.293   4.856  -0.315  0.00  0.00    +0.046 A 
ATOM     10  C   UNL     1       2.364   5.836   0.010  0.00  0.00    +0.127 A 
ATOM     11  C   UNL     1       1.060   5.483   0.332  0.00  0.00    +0.046 A 
ATOM     12  C   UNL     1       0.682   4.157   0.330  0.00  0.00    +0.015 A 
BRANCH  10  13
ATOM     13  O   UNL     1       2.732   7.144   0.014  0.00  0.00    -0.434 OA
BRANCH  13  14
ATOM     14  C   UNL     1       4.089   7.436  -0.327  0.00  0.00    +0.541 C 
ATOM     15  F   UNL     1       4.945   6.802   0.580  0.00  0.00    -0.166 F 
ATOM     16  F   UNL     1       4.355   6.974  -1.620  0.00  0.00    -0.166 F 
ENDBRANCH  13  14
ENDBRANCH  10  13
ENDBRANCH   5   7
BRANCH   6  17
ATOM     17  N   UNL     1       3.421   0.674  -0.027  0.00  0.00    -0.295 N 
ATOM     18  H   UNL     1       3.774   0.683  -0.972  0.00  0.00    +0.163 HD
ATOM     19  H   UNL     1       3.779   1.457   0.500  0.00  0.00    +0.163 HD
ENDBRANCH   6  17
ENDBRANCH   1   2
BRANCH   1  20
ATOM     20  C   UNL     1       0.147  -2.947  -0.015  0.00  0.00    +0.116 C 
BRANCH  20  28
ATOM     21  C   UNL     1       0.827  -5.135   3.521  0.00  0.00    +0.340 C 
ATOM     22  O   UNL     1       0.279  -6.459   3.533  0.00  0.00    -0.333 OA
ATOM     23  C   UNL     1       0.757  -7.272   2.457  0.00  0.00    +0.203 C 
ATOM     24  C   UNL     1       0.636  -6.508   1.163  0.00  0.00    +0.023 A 
ATOM     25  C   UNL     1       0.714  -7.184  -0.041  0.00  0.00    +0.047 A 
ATOM     26  C   UNL     1       0.610  -6.491  -1.234  0.00  0.00    +0.124 A 
ATOM     27  C   UNL     1       0.421  -5.119  -1.225  0.00  0.00    +0.046 A 
ATOM     28  C   UNL     1       0.347  -4.440  -0.025  0.00  0.00    +0.008 A 
ATOM     29  C   UNL     1       0.450  -5.134   1.173  0.00  0.00    +0.134 A 
ATOM     30  O   UNL     1       0.361  -4.458   2.350  0.00  0.00    -0.459 OA
ATOM     31  F   UNL     1       0.687  -7.154  -2.409  0.00  0.00    -0.205 F 
BRANCH  21  35
ATOM     32  C   UNL     1      -0.456  -3.022   7.005  0.00  0.00    +0.000 A 
ATOM     33  C   UNL     1       0.278  -4.186   7.134  0.00  0.00    +0.000 A 
ATOM     34  C   UNL     1       0.693  -4.870   6.007  0.00  0.00    +0.010 A 
ATOM     35  C   UNL     1       0.374  -4.390   4.750  0.00  0.00    +0.020 A 
ATOM     36  C   UNL     1      -0.355  -3.223   4.621  0.00  0.00    +0.010 A 
ATOM     37  C   UNL     1      -0.774  -2.541   5.749  0.00  0.00    +0.000 A 
ENDBRANCH  21  35
ENDBRANCH  20  28
ENDBRANCH   1  20
TORSDOF 8
