REMARK  Name = ZINC09956832
REMARK  8 active torsions:
REMARK  status: ('A' for Active; 'I' for Inactive)
REMARK    1  A    between atoms: C_1  and  C_2
REMARK    2  A    between atoms: C_2  and  C_4
REMARK    3  A    between atoms: C_2  and  O_19
REMARK    4  A    between atoms: N_6  and  C_7
REMARK    5  A    between atoms: C_12  and  C_13
REMARK    6  A    between atoms: O_19  and  C_20
REMARK    7  A    between atoms: C_20  and  C_22
REMARK    8  A    between atoms: C_25  and  N_28
REMARK                            x       y       z     vdW  Elec       q    Type
REMARK                         _______ _______ _______ _____ _____    ______ ____
ROOT
ATOM      1  O   UNL     1       2.397   5.276  -0.007  0.00  0.00    -0.449 OA
ENDROOT
BRANCH   1   3
ATOM      2  C   UNL     1       4.150   6.176   1.424  0.00  0.00    +0.062 C 
ATOM      3  C   UNL     1       3.680   5.955  -0.015  0.00  0.00    +0.259 C 
BRANCH   3   4
ATOM      4  C   UNL     1       3.540   7.286  -0.708  0.00  0.00    +0.258 C 
ATOM      5  O   UNL     1       2.447   7.669  -1.070  0.00  0.00    -0.271 OA
ATOM      6  N   UNL     1       4.628   8.052  -0.924  0.00  0.00    -0.282 N 
ATOM      7  H   UNL     1       5.488   7.784  -0.565  0.00  0.00    +0.155 HD
BRANCH   6   8
ATOM      8  C   UNL     1       4.517   9.230  -1.666  0.00  0.00    +0.041 A 
ATOM      9  C   UNL     1       3.493   9.377  -2.591  0.00  0.00    +0.024 A 
ATOM     10  C   UNL     1       3.381  10.545  -3.320  0.00  0.00    +0.002 A 
ATOM     11  C   UNL     1       4.294  11.570  -3.141  0.00  0.00    +0.001 A 
ATOM     12  C   UNL     1       5.321  11.436  -2.228  0.00  0.00    +0.010 A 
ATOM     13  C   UNL     1       5.441  10.265  -1.484  0.00  0.00    +0.003 A 
BRANCH  13  14
ATOM     14  C   UNL     1       6.542  10.116  -0.501  0.00  0.00    -0.016 A 
ATOM     15  C   UNL     1       6.266   9.707   0.802  0.00  0.00    +0.008 A 
ATOM     16  C   UNL     1       7.295   9.565   1.710  0.00  0.00    +0.001 A 
ATOM     17  C   UNL     1       8.597   9.839   1.332  0.00  0.00    +0.000 A 
ATOM     18  C   UNL     1       8.876  10.250   0.041  0.00  0.00    +0.001 A 
ATOM     19  C   UNL     1       7.856  10.390  -0.877  0.00  0.00    +0.008 A 
ENDBRANCH  13  14
ENDBRANCH   6   8
ENDBRANCH   3   4
ENDBRANCH   1   3
BRANCH   1  20
ATOM     20  C   UNL     1       2.418   3.929  -0.024  0.00  0.00    +0.340 C 
ATOM     21  O   UNL     1       3.479   3.337  -0.045  0.00  0.00    -0.245 OA
BRANCH  20  22
ATOM     22  C   UNL     1       1.153   3.171  -0.018  0.00  0.00    +0.059 A 
ATOM     23  C   UNL     1       1.172   1.774  -0.035  0.00  0.00    +0.017 A 
ATOM     24  C   UNL     1      -0.011   1.070  -0.029  0.00  0.00    +0.025 A 
ATOM     25  C   UNL     1      -1.226   1.748  -0.011  0.00  0.00    +0.045 A 
ATOM     26  C   UNL     1      -1.249   3.139   0.012  0.00  0.00    +0.025 A 
ATOM     27  C   UNL     1      -0.070   3.849   0.006  0.00  0.00    +0.017 A 
BRANCH  25  28
ATOM     28  N   UNL     1      -2.424   1.031  -0.010  0.00  0.00    -0.202 N 
ATOM     29  C   UNL     1      -2.508  -0.311  -0.032  0.00  0.00    +0.258 C 
ATOM     30  O   UNL     1      -1.568  -1.080  -0.056  0.00  0.00    -0.269 OA
ATOM     31  C   UNL     1      -3.935  -0.694  -0.020  0.00  0.00    +0.050 A 
ATOM     32  C   UNL     1      -4.613  -1.903  -0.030  0.00  0.00    +0.014 A 
ATOM     33  C   UNL     1      -5.999  -1.913  -0.019  0.00  0.00    +0.001 A 
ATOM     34  C   UNL     1      -6.709  -0.727   0.002  0.00  0.00    +0.001 A 
ATOM     35  C   UNL     1      -6.045   0.490   0.012  0.00  0.00    +0.014 A 
ATOM     36  C   UNL     1      -4.659   0.516   0.001  0.00  0.00    +0.050 A 
ATOM     37  C   UNL     1      -3.647   1.592   0.007  0.00  0.00    +0.258 C 
ATOM     38  O   UNL     1      -3.880   2.784   0.023  0.00  0.00    -0.269 OA
ENDBRANCH  25  28
ENDBRANCH  20  22
ENDBRANCH   1  20
TORSDOF 7
