REMARK  Name = ZINC09766708
REMARK  11 active torsions:
REMARK  status: ('A' for Active; 'I' for Inactive)
REMARK    1  A    between atoms: C_1  and  C_2
REMARK    2  A    between atoms: C_2  and  C_4
REMARK    3  A    between atoms: C_2  and  O_18
REMARK    4  A    between atoms: N_6  and  C_7
REMARK    5  A    between atoms: C_9  and  N_15
REMARK    6  A    between atoms: C_12  and  O_13
REMARK    7  A    between atoms: O_13  and  C_14
REMARK    8  A    between atoms: O_18  and  C_19
REMARK    9  A    between atoms: C_19  and  C_21
REMARK   10  A    between atoms: N_24  and  C_27
REMARK   11  A    between atoms: C_30  and  C_32
REMARK                            x       y       z     vdW  Elec       q    Type
REMARK                         _______ _______ _______ _____ _____    ______ ____
ROOT
ATOM      1  C   UNL     1      -4.671   1.784  -0.508  0.00  0.00    +0.311 C 
ATOM      2  O   UNL     1      -4.850   0.636  -0.840  0.00  0.00    -0.251 OA
ENDROOT
BRANCH   1   3
ATOM      3  C   UNL     1      -5.772   2.799  -0.678  0.00  0.00    +0.101 C 
ATOM      4  C   UNL     1      -6.141   3.386   0.687  0.00  0.00    +0.033 C 
ATOM      5  C   UNL     1      -7.302   4.369   0.517  0.00  0.00    +0.107 C 
ATOM      6  N   UNL     1      -8.456   3.672  -0.065  0.00  0.00    -0.317 N 
ATOM      7  C   UNL     1      -8.139   3.141  -1.397  0.00  0.00    +0.107 C 
ATOM      8  C   UNL     1      -7.004   2.120  -1.284  0.00  0.00    +0.033 C 
BRANCH   6   9
ATOM      9  C   UNL     1      -9.569   4.503  -0.112  0.00  0.00    +0.099 A 
ATOM     10  C   UNL     1     -10.029   5.106   1.054  0.00  0.00    +0.042 A 
ATOM     11  C   UNL     1     -11.137   5.931   0.993  0.00  0.00    +0.017 A 
ATOM     12  C   UNL     1     -11.751   6.127  -0.238  0.00  0.00    +0.071 A 
ATOM     13  C   UNL     1     -11.241   5.497  -1.355  0.00  0.00    +0.096 A 
ATOM     14  N   UNL     1     -10.150   4.684  -1.333  0.00  0.00    -0.349 N 
ATOM     15  H   UNL     1      -9.787   4.235  -2.182  0.00  0.00    +0.167 HD
BRANCH  12  16
ATOM     16  C   UNL     1     -12.960   7.018  -0.352  0.00  0.00    +0.419 C 
ATOM     17  F   UNL     1     -12.550   8.329  -0.614  0.00  0.00    -0.166 F 
ATOM     18  F   UNL     1     -13.775   6.566  -1.396  0.00  0.00    -0.166 F 
ATOM     19  F   UNL     1     -13.679   6.985   0.848  0.00  0.00    -0.166 F 
ENDBRANCH  12  16
ENDBRANCH   6   9
ENDBRANCH   1   3
BRANCH   1  20
ATOM     20  O   UNL     1      -3.490   2.156   0.011  0.00  0.00    -0.452 OA
BRANCH  20  22
ATOM     21  C   UNL     1      -2.605   0.458   1.515  0.00  0.00    +0.062 C 
ATOM     22  C   UNL     1      -2.476   1.126   0.145  0.00  0.00    +0.259 C 
BRANCH  22  23
ATOM     23  C   UNL     1      -1.109   1.748   0.017  0.00  0.00    +0.258 C 
ATOM     24  O   UNL     1      -0.997   2.952  -0.079  0.00  0.00    -0.271 OA
ATOM     25  N   UNL     1      -0.011   0.966   0.007  0.00  0.00    -0.279 N 
ATOM     26  H   UNL     1      -0.103   0.000   0.019  0.00  0.00    +0.155 HD
BRANCH  25  27
ATOM     27  C   UNL     1       1.263   1.548  -0.024  0.00  0.00    +0.078 A 
ATOM     28  C   UNL     1       1.473   2.726  -0.727  0.00  0.00    +0.059 A 
ATOM     29  C   UNL     1       2.729   3.300  -0.753  0.00  0.00    +0.128 A 
ATOM     30  C   UNL     1       3.782   2.698  -0.088  0.00  0.00    +0.036 A 
ATOM     31  C   UNL     1       3.582   1.522   0.610  0.00  0.00    +0.050 A 
ATOM     32  C   UNL     1       2.324   0.942   0.645  0.00  0.00    +0.141 A 
BRANCH  29  33
ATOM     33  N   UNL     1       2.950   4.559  -1.499  0.00  0.00    +0.056 N 
ATOM     34  O   UNL     1       4.058   5.064  -1.526  0.00  0.00    -0.126 OA
ATOM     35  O   UNL     1       2.024   5.090  -2.085  0.00  0.00    -0.126 OA
ENDBRANCH  29  33
BRANCH  32  36
ATOM     36  O   UNL     1       2.126  -0.215   1.330  0.00  0.00    -0.493 OA
ATOM     37  C   UNL     1       3.260  -0.780   1.992  0.00  0.00    +0.277 C 
ENDBRANCH  32  36
ENDBRANCH  25  27
ENDBRANCH  22  23
ENDBRANCH  20  22
ENDBRANCH   1  20
TORSDOF 9
