REMARK  Name = ZINC21467992
REMARK  9 active torsions:
REMARK  status: ('A' for Active; 'I' for Inactive)
REMARK    1  A    between atoms: C_1  and  C_2
REMARK    2  A    between atoms: C_5  and  N_9
REMARK    3  A    between atoms: C_7  and  C_8
REMARK    4  A    between atoms: C_10  and  C_29
REMARK    5  A    between atoms: C_13  and  S_14
REMARK    6  A    between atoms: S_14  and  C_15
REMARK    7  A    between atoms: C_15  and  C_17
REMARK    8  A    between atoms: C_15  and  C_18
REMARK    9  A    between atoms: N_20  and  C_21
REMARK                            x       y       z     vdW  Elec       q    Type
REMARK                         _______ _______ _______ _____ _____    ______ ____
ROOT
ATOM      1  N   UNL     1      -7.687   1.957   0.677  0.00  0.00    -0.270 N 
ATOM      2  C   UNL     1      -8.368   3.132   0.442  0.00  0.00    +0.169 A 
ATOM      3  N   UNL     1      -7.493   4.000  -0.011  0.00  0.00    -0.128 NA
ATOM      4  N   UNL     1      -6.328   3.460  -0.070  0.00  0.00    -0.122 NA
ATOM      5  C   UNL     1      -6.388   2.210   0.334  0.00  0.00    +0.197 A 
ENDROOT
BRANCH   1  10
ATOM      6  C   UNL     1      -9.830  -2.912   2.655  0.00  0.00    +0.044 C 
ATOM      7  C   UNL     1      -9.260  -1.619   2.130  0.00  0.00    -0.047 A 
ATOM      8  C   UNL     1      -9.252  -0.492   2.932  0.00  0.00    +0.005 A 
ATOM      9  C   UNL     1      -8.732   0.694   2.454  0.00  0.00    +0.026 A 
ATOM     10  C   UNL     1      -8.216   0.754   1.166  0.00  0.00    +0.051 A 
ATOM     11  C   UNL     1      -8.230  -0.377   0.362  0.00  0.00    +0.030 A 
ATOM     12  C   UNL     1      -8.747  -1.562   0.848  0.00  0.00    -0.046 A 
ATOM     13  C   UNL     1      -8.759  -2.792  -0.023  0.00  0.00    +0.044 C 
ENDBRANCH   1  10
BRANCH   2  14
ATOM     14  C   UNL     1      -9.810   3.370   0.659  0.00  0.00    +0.022 A 
ATOM     15  C   UNL     1     -10.697   2.301   0.839  0.00  0.00    +0.031 A 
ATOM     16  C   UNL     1     -12.034   2.569   1.042  0.00  0.00    +0.111 A 
ATOM     17  N   UNL     1     -12.481   3.811   1.059  0.00  0.00    -0.263 NA
ATOM     18  C   UNL     1     -11.681   4.846   0.888  0.00  0.00    +0.111 A 
ATOM     19  C   UNL     1     -10.329   4.670   0.684  0.00  0.00    +0.031 A 
ENDBRANCH   2  14
BRANCH   5  20
ATOM     20  S   UNL     1      -5.043   1.074   0.422  0.00  0.00    -0.073 S 
BRANCH  20  21
ATOM     21  C   UNL     1      -3.702   2.128  -0.184  0.00  0.00    +0.137 C 
ATOM     22  C   UNL     1      -3.965   2.497  -1.645  0.00  0.00    +0.029 C 
BRANCH  21  23
ATOM     23  C   UNL     1      -2.395   1.385  -0.081  0.00  0.00    +0.230 C 
ATOM     24  O   UNL     1      -2.384   0.172  -0.088  0.00  0.00    -0.274 OA
ATOM     25  N   UNL     1      -1.238   2.069   0.019  0.00  0.00    -0.283 N 
ATOM     26  H   UNL     1      -1.253   3.165   0.117  0.00  0.00    +0.155 HD
BRANCH  25  27
ATOM     27  C   UNL     1      -0.016   1.385  -0.001  0.00  0.00    +0.053 A 
ATOM     28  C   UNL     1       0.076   0.144  -0.617  0.00  0.00    +0.025 A 
ATOM     29  C   UNL     1       1.283  -0.526  -0.641  0.00  0.00    +0.003 A 
ATOM     30  C   UNL     1       2.401   0.037  -0.053  0.00  0.00    +0.021 A 
ATOM     31  C   UNL     1       2.314   1.273   0.562  0.00  0.00    +0.061 A 
ATOM     32  C   UNL     1       1.107   1.950   0.589  0.00  0.00    +0.080 A 
ATOM     33 CL   UNL     1       0.998   3.502   1.359  0.00  0.00    -0.080 Cl
ATOM     34 CL   UNL     1       3.720   1.976   1.299  0.00  0.00    -0.082 Cl
ENDBRANCH  25  27
ENDBRANCH  21  23
ENDBRANCH  20  21
ENDBRANCH   5  20
TORSDOF 6
