REMARK  Name = ZINC12311318
REMARK  7 active torsions:
REMARK  status: ('A' for Active; 'I' for Inactive)
REMARK    1  A    between atoms: C_1  and  C_2
REMARK    2  A    between atoms: C_2  and  O_3
REMARK    3  A    between atoms: O_3  and  C_4
REMARK    4  A    between atoms: C_4  and  C_6
REMARK    5  A    between atoms: C_6  and  N_52
REMARK    6  A    between atoms: C_7  and  C_26
REMARK    7  A    between atoms: C_16  and  C_18
REMARK                            x       y       z     vdW  Elec       q    Type
REMARK                         _______ _______ _______ _____ _____    ______ ____
ROOT
ATOM      1  C   UNL     1      -0.620   3.365  -1.100  0.00  0.00    -0.001 C 
ATOM      2  C   UNL     1      -1.049   3.956   0.217  0.00  0.00    -0.035 A 
ATOM      3  C   UNL     1      -1.362   5.302   0.291  0.00  0.00    +0.019 A 
ATOM      4  C   UNL     1      -1.756   5.857   1.494  0.00  0.00    +0.018 A 
ATOM      5  C   UNL     1      -1.839   5.072   2.631  0.00  0.00    +0.017 A 
ATOM      6  C   UNL     1      -1.528   3.728   2.564  0.00  0.00    +0.024 A 
ATOM      7  C   UNL     1      -1.135   3.168   1.356  0.00  0.00    +0.028 A 
ATOM      8  N   UNL     1      -0.824   1.804   1.287  0.00  0.00    -0.353 N 
ATOM      9  C   UNL     1      -0.144   1.308   0.081  0.00  0.00    +0.049 C 
ATOM     10 BR   UNL     1      -2.183   7.697   1.588  0.00  0.00    -0.050 Br
ATOM     11  H   UNL     1      -1.051   1.203   2.014  0.00  0.00    +0.145 HD
ATOM     12  N   UNL     1      -0.828   1.904  -1.089  0.00  0.00    +0.409 N 
ATOM     13  H   UNL     1      -1.834   1.710  -1.023  0.00  0.00    -0.076 HD
ENDROOT
BRANCH   9  14
ATOM     14  C   UNL     1      -0.256  -0.194   0.014  0.00  0.00    -0.044 A 
ATOM     15  C   UNL     1      -1.499  -0.797   0.065  0.00  0.00    +0.005 A 
ATOM     16  C   UNL     1      -1.603  -2.173  -0.002  0.00  0.00    +0.020 A 
ATOM     17  C   UNL     1      -0.462  -2.948  -0.109  0.00  0.00    +0.041 A 
ATOM     18  C   UNL     1       0.782  -2.345  -0.155  0.00  0.00    +0.020 A 
ATOM     19  C   UNL     1       0.885  -0.968  -0.094  0.00  0.00    +0.005 A 
ATOM     20 CL   UNL     1      -0.591  -4.678  -0.187  0.00  0.00    -0.084 Cl
ENDBRANCH   9  14
BRANCH   1  21
ATOM     21  C   UNL     1      -1.448   3.964  -2.208  0.00  0.00    -0.057 A 
ATOM     22  C   UNL     1      -2.714   3.474  -2.467  0.00  0.00    +0.002 A 
ATOM     23  C   UNL     1      -3.475   4.026  -3.481  0.00  0.00    +0.000 A 
ATOM     24  C   UNL     1      -2.965   5.061  -4.242  0.00  0.00    +0.000 A 
ATOM     25  C   UNL     1      -1.697   5.547  -3.987  0.00  0.00    +0.000 A 
ATOM     26  C   UNL     1      -0.938   4.998  -2.970  0.00  0.00    +0.002 A 
ENDBRANCH   1  21
BRANCH  12  27
ATOM     27  C   UNL     1      -0.306   1.310  -2.338  0.00  0.00    +0.048 C 
BRANCH  27  28
ATOM     28  C   UNL     1       1.170   1.580  -2.474  0.00  0.00    +0.290 C 
ATOM     29  O   UNL     1       1.764   2.149  -1.589  0.00  0.00    -0.253 OA
BRANCH  28  30
ATOM     30  O   UNL     1       1.825   1.188  -3.578  0.00  0.00    -0.466 OA
BRANCH  30  32
ATOM     31  C   UNL     1       3.757   1.157  -5.061  0.00  0.00    +0.048 C 
ATOM     32  C   UNL     1       3.216   1.588  -3.696  0.00  0.00    +0.228 C 
ENDBRANCH  30  32
ENDBRANCH  28  30
ENDBRANCH  27  28
ENDBRANCH  12  27
TORSDOF 6
