REMARK  Name = ZINC63071444
REMARK  8 active torsions:
REMARK  status: ('A' for Active; 'I' for Inactive)
REMARK    1  A    between atoms: C_1  and  C_2
REMARK    2  A    between atoms: C_5  and  O_8
REMARK    3  A    between atoms: O_8  and  C_9
REMARK    4  A    between atoms: C_9  and  C_10
REMARK    5  A    between atoms: C_10  and  C_11
REMARK    6  A    between atoms: C_10  and  N_12
REMARK    7  A    between atoms: N_15  and  C_16
REMARK    8  A    between atoms: C_16  and  C_17
REMARK                            x       y       z     vdW  Elec       q    Type
REMARK                         _______ _______ _______ _____ _____    ______ ____
ROOT
ATOM      1  N   UNL     1       1.374  -6.674   0.443  0.00  0.00    -0.294 N 
ATOM      2  C   UNL     1       1.843  -7.931   0.575  0.00  0.00    +0.300 C 
ATOM      3  O   UNL     1       1.227  -8.742   1.239  0.00  0.00    -0.253 OA
ATOM      4  N   UNL     1       2.993  -8.288  -0.029  0.00  0.00    -0.295 N 
ATOM      5  H   UNL     1       1.865  -6.026  -0.087  0.00  0.00    +0.151 HD
ATOM      6  H   UNL     1       3.484  -7.641  -0.559  0.00  0.00    +0.151 HD
ENDROOT
BRANCH   1   7
ATOM      7  C   UNL     1       0.123  -6.285   1.099  0.00  0.00    +0.109 C 
ATOM      8  C   UNL     1      -1.060  -6.664   0.206  0.00  0.00    +0.031 C 
BRANCH   7   9
ATOM      9  C   UNL     1       0.120  -4.774   1.337  0.00  0.00    +0.251 C 
BRANCH   9  10
ATOM     10  O   UNL     1       0.114  -4.094   0.080  0.00  0.00    -0.490 OA
BRANCH  10  15
ATOM     11  C   UNL     1       0.098   1.537   0.219  0.00  0.00    +0.044 C 
ATOM     12  C   UNL     1       0.102   0.030   0.182  0.00  0.00    -0.050 A 
ATOM     13  C   UNL     1       0.101  -0.630  -1.032  0.00  0.00    +0.007 A 
ATOM     14  C   UNL     1       0.105  -2.011  -1.069  0.00  0.00    +0.046 A 
ATOM     15  C   UNL     1       0.111  -2.736   0.114  0.00  0.00    +0.121 A 
ATOM     16  C   UNL     1       0.113  -2.071   1.331  0.00  0.00    +0.046 A 
ATOM     17  C   UNL     1       0.114  -0.689   1.363  0.00  0.00    +0.007 A 
ENDBRANCH  10  15
ENDBRANCH   9  10
ENDBRANCH   7   9
ENDBRANCH   1   7
BRANCH   4  18
ATOM     18  C   UNL     1       3.502  -9.654   0.115  0.00  0.00    +0.142 C 
BRANCH  18  19
ATOM     19  C   UNL     1       4.793  -9.792  -0.652  0.00  0.00    -0.014 A 
ATOM     20  C   UNL     1       4.778 -10.183  -1.985  0.00  0.00    +0.010 A 
ATOM     21  C   UNL     1       5.984 -10.298  -2.652  0.00  0.00    +0.042 A 
ATOM     22  C   UNL     1       7.164 -10.020  -1.969  0.00  0.00    +0.099 A 
ATOM     23  N   UNL     1       7.136  -9.650  -0.698  0.00  0.00    -0.349 N 
ATOM     24  C   UNL     1       6.000  -9.527  -0.038  0.00  0.00    +0.089 A 
ATOM     25  N   UNL     1       8.384 -10.132  -2.627  0.00  0.00    -0.317 N 
ATOM     26  C   UNL     1       9.630  -9.719  -1.968  0.00  0.00    +0.106 C 
ATOM     27  C   UNL     1      10.625 -10.883  -2.022  0.00  0.00    +0.019 C 
ATOM     28  C   UNL     1      10.800 -11.332  -3.474  0.00  0.00    +0.003 C 
ATOM     29  C   UNL     1       9.458 -11.818  -4.026  0.00  0.00    +0.019 C 
ATOM     30  C   UNL     1       8.451 -10.671  -3.992  0.00  0.00    +0.106 C 
ATOM     31  H   UNL     1       7.971  -9.462  -0.241  0.00  0.00    +0.167 HD
ENDBRANCH  18  19
ENDBRANCH   4  18
TORSDOF 6
