REMARK  Name = ZINC03876642
REMARK  10 active torsions:
REMARK  status: ('A' for Active; 'I' for Inactive)
REMARK    1  A    between atoms: C_1  and  C_2
REMARK    2  A    between atoms: C_2  and  C_39
REMARK    3  A    between atoms: C_3  and  N_24
REMARK    4  A    between atoms: N_5  and  C_14
REMARK    5  A    between atoms: N_8  and  C_9
REMARK    6  A    between atoms: C_9  and  C_10
REMARK    7  A    between atoms: C_10  and  O_12
REMARK    8  A    between atoms: O_12  and  C_13
REMARK    9  A    between atoms: N_24  and  O_38
REMARK   10  A    between atoms: N_27  and  C_28
REMARK                            x       y       z     vdW  Elec       q    Type
REMARK                         _______ _______ _______ _____ _____    ______ ____
ROOT
ATOM      1  C   UNL     1      -5.228  -4.667   1.351  0.00  0.00    +0.035 C 
ATOM      2  C   UNL     1      -4.822  -3.278   0.853  0.00  0.00    +0.071 C 
ATOM      3  C   UNL     1      -3.288  -3.136   0.838  0.00  0.00    +0.224 C 
ATOM      4  N   UNL     1      -2.970  -2.896  -0.578  0.00  0.00    -0.231 N 
ATOM      5  C   UNL     1      -4.105  -2.893  -1.289  0.00  0.00    +0.312 C 
ATOM      6  O   UNL     1      -4.133  -2.716  -2.492  0.00  0.00    -0.252 OA
ATOM      7  N   UNL     1      -5.206  -3.102  -0.556  0.00  0.00    -0.266 N 
ATOM      8  C   UNL     1      -5.454  -2.188   1.721  0.00  0.00    +0.035 C 
ENDROOT
BRANCH   4   9
ATOM      9  C   UNL     1      -1.688  -2.702  -1.098  0.00  0.00    +0.047 A 
ATOM     10  C   UNL     1      -0.803  -3.755  -1.175  0.00  0.00    +0.024 A 
ATOM     11  C   UNL     1       0.475  -3.573  -1.696  0.00  0.00    +0.002 A 
ATOM     12  C   UNL     1       0.889  -2.352  -2.133  0.00  0.00    +0.008 A 
ATOM     13  C   UNL     1       0.018  -1.251  -2.066  0.00  0.00    -0.016 A 
ATOM     14  C   UNL     1      -1.287  -1.424  -1.542  0.00  0.00    +0.004 A 
ATOM     15  C   UNL     1      -2.155  -0.323  -1.476  0.00  0.00    +0.010 A 
ATOM     16  C   UNL     1      -1.734   0.895  -1.914  0.00  0.00    +0.001 A 
ATOM     17  C   UNL     1      -0.451   1.067  -2.430  0.00  0.00    +0.001 A 
ATOM     18  C   UNL     1       0.418   0.022  -2.510  0.00  0.00    +0.008 A 
ENDBRANCH   4   9
BRANCH   3  19
ATOM     19  N   UNL     1      -2.868  -1.998   1.659  0.00  0.00    -0.144 N 
ATOM     20  C   UNL     1      -3.378  -0.773   1.424  0.00  0.00    +0.331 C 
ATOM     21  O   UNL     1      -4.271  -0.632   0.611  0.00  0.00    -0.250 OA
ATOM     22  N   UNL     1      -2.898   0.296   2.090  0.00  0.00    -0.267 N 
ATOM     23  H   UNL     1      -2.132   0.197   2.678  0.00  0.00    +0.156 HD
BRANCH  22  24
ATOM     24  C   UNL     1      -3.503   1.544   1.935  0.00  0.00    +0.043 A 
ATOM     25  C   UNL     1      -4.817   1.635   1.530  0.00  0.00    +0.024 A 
ATOM     26  C   UNL     1      -5.431   2.874   1.378  0.00  0.00    +0.002 A 
ATOM     27  C   UNL     1      -4.751   4.030   1.617  0.00  0.00    +0.008 A 
ATOM     28  C   UNL     1      -3.408   3.981   2.026  0.00  0.00    -0.016 A 
ATOM     29  C   UNL     1      -2.772   2.725   2.186  0.00  0.00    +0.003 A 
ATOM     30  C   UNL     1      -1.430   2.679   2.595  0.00  0.00    +0.010 A 
ATOM     31  C   UNL     1      -0.757   3.838   2.833  0.00  0.00    +0.001 A 
ATOM     32  C   UNL     1      -1.381   5.074   2.676  0.00  0.00    +0.001 A 
ATOM     33  C   UNL     1      -2.681   5.158   2.281  0.00  0.00    +0.008 A 
ENDBRANCH  22  24
BRANCH  19  34
ATOM     34  O   UNL     1      -1.927  -2.186   2.701  0.00  0.00    -0.289 OA
ATOM     35  H   UNL     1      -1.677  -3.109   2.843  0.00  0.00    +0.242 HD
ENDBRANCH  19  34
ENDBRANCH   3  19
BRANCH   7  36
ATOM     36  C   UNL     1      -6.575  -3.149  -1.075  0.00  0.00    +0.230 C 
BRANCH  36  37
ATOM     37  C   UNL     1      -7.172  -1.766  -1.044  0.00  0.00    +0.324 C 
ATOM     38  O   UNL     1      -6.520  -0.836  -0.630  0.00  0.00    -0.249 OA
BRANCH  37  39
ATOM     39  O   UNL     1      -8.427  -1.566  -1.475  0.00  0.00    -0.467 OA
ATOM     40  C   UNL     1      -8.936  -0.207  -1.416  0.00  0.00    +0.280 C 
ENDBRANCH  37  39
ENDBRANCH  36  37
ENDBRANCH   7  36
TORSDOF 7
