REMARK  Name = ZINC41709334
REMARK  7 active torsions:
REMARK  status: ('A' for Active; 'I' for Inactive)
REMARK    1  A    between atoms: C_1  and  C_2
REMARK    2  A    between atoms: C_5  and  N_9
REMARK    3  A    between atoms: C_10  and  C_12
REMARK    4  A    between atoms: C_12  and  C_22
REMARK    5  A    between atoms: C_13  and  C_14
REMARK    6  A    between atoms: C_17  and  O_21
REMARK    7  A    between atoms: C_18  and  O_20
REMARK                            x       y       z     vdW  Elec       q    Type
REMARK                         _______ _______ _______ _____ _____    ______ ____
ROOT
ATOM      1  C   UNL     1       0.220  -6.330   1.120  0.00  0.00    +0.114 C 
ATOM      2  C   UNL     1       0.424  -7.011   2.300  0.00  0.00    +0.032 C 
ENDROOT
BRANCH   2   3
ATOM      3  C   UNL     1       0.663  -8.456   2.280  0.00  0.00    -0.020 A 
ATOM      4  C   UNL     1       0.273  -9.249   3.368  0.00  0.00    +0.012 A 
ATOM      5  C   UNL     1       0.499 -10.607   3.345  0.00  0.00    +0.050 A 
ATOM      6  C   UNL     1       1.113 -11.194   2.246  0.00  0.00    +0.158 A 
ATOM      7  C   UNL     1       1.505 -10.413   1.158  0.00  0.00    +0.159 A 
ATOM      8  C   UNL     1       1.278  -9.052   1.169  0.00  0.00    +0.057 A 
BRANCH   7   9
ATOM      9  O   UNL     1       2.105 -10.993   0.085  0.00  0.00    -0.503 OA
ATOM     10  H   UNL     1       1.489 -11.286  -0.600  0.00  0.00    +0.292 HD
ENDBRANCH   7   9
BRANCH   6  11
ATOM     11  O   UNL     1       1.333 -12.534   2.230  0.00  0.00    -0.503 OA
ATOM     12  H   UNL     1       0.607 -13.048   1.851  0.00  0.00    +0.292 HD
ENDBRANCH   6  11
ENDBRANCH   2   3
BRANCH   1  14
ATOM     13  N   UNL     1      -0.064  -4.195  -0.030  0.00  0.00    -0.281 N 
ATOM     14  C   UNL     1       0.136  -4.861   1.124  0.00  0.00    +0.259 C 
ATOM     15  O   UNL     1       0.245  -4.248   2.169  0.00  0.00    -0.269 OA
ATOM     16  H   UNL     1      -0.225  -4.685  -0.852  0.00  0.00    +0.155 HD
BRANCH  13  21
ATOM     17  C   UNL     1       0.044   1.478  -0.091  0.00  0.00    +0.047 C 
ATOM     18  C   UNL     1       0.015  -0.029  -0.074  0.00  0.00    -0.015 A 
ATOM     19  C   UNL     1       0.508  -0.741  -1.153  0.00  0.00    +0.008 A 
ATOM     20  C   UNL     1       0.484  -2.121  -1.141  0.00  0.00    +0.024 A 
ATOM     21  C   UNL     1      -0.037  -2.797  -0.044  0.00  0.00    +0.036 A 
ATOM     22  C   UNL     1      -0.532  -2.081   1.038  0.00  0.00    +0.062 A 
ATOM     23  C   UNL     1      -0.500  -0.698   1.023  0.00  0.00    +0.128 A 
ATOM     24  F   UNL     1      -0.976  -0.001   2.078  0.00  0.00    -0.205 F 
ENDBRANCH  13  21
ENDBRANCH   1  14
BRANCH   1  25
ATOM     25  C   UNL     1       0.091  -7.051  -0.110  0.00  0.00    +0.104 C 
ATOM     26  N   UNL     1      -0.012  -7.624  -1.086  0.00  0.00    -0.191 NA
ENDBRANCH   1  25
TORSDOF 6
