REMARK  Name = ZINC15837634
REMARK  6 active torsions:
REMARK  status: ('A' for Active; 'I' for Inactive)
REMARK    1  A    between atoms: C_1  and  C_2
REMARK    2  A    between atoms: C_3  and  C_30
REMARK    3  A    between atoms: C_4  and  C_21
REMARK    4  A    between atoms: C_10  and  C_15
REMARK    5  A    between atoms: C_25  and  N_27
REMARK    6  A    between atoms: N_32  and  C_33
REMARK                            x       y       z     vdW  Elec       q    Type
REMARK                         _______ _______ _______ _____ _____    ______ ____
ROOT
ATOM      1  C   UNL     1       3.724   5.073  -2.465  0.00  0.00    +0.061 C 
ATOM      2  C   UNL     1       3.080   4.573  -1.197  0.00  0.00    +0.029 C 
ATOM      3  C   UNL     1       1.829   4.088  -1.232  0.00  0.00    +0.131 C 
ATOM      4  C   UNL     1       1.156   3.576   0.007  0.00  0.00    +0.072 C 
ATOM      5  C   UNL     1       1.859   4.067   1.248  0.00  0.00    +0.025 C 
ATOM      6  C   UNL     1       3.115   4.558   1.180  0.00  0.00    +0.049 C 
ATOM      7  N   UNL     1       3.773   4.618  -0.019  0.00  0.00    -0.260 NA
ATOM      8  C   UNL     1       3.824   5.053   2.416  0.00  0.00    +0.064 C 
ATOM      9  C   UNL     1       3.335   4.274   3.637  0.00  0.00    +0.032 C 
ATOM     10  C   UNL     1       1.818   4.452   3.753  0.00  0.00    +0.088 C 
ATOM     11  C   UNL     1       1.173   3.997   2.472  0.00  0.00    +0.162 C 
ATOM     12  O   UNL     1       0.038   3.563   2.497  0.00  0.00    -0.292 OA
ENDROOT
BRANCH   9  13
ATOM     13  C   UNL     1       4.003   4.806   4.879  0.00  0.00    -0.044 A 
ATOM     14  C   UNL     1       3.856   6.136   5.228  0.00  0.00    +0.004 A 
ATOM     15  C   UNL     1       4.465   6.623   6.369  0.00  0.00    +0.000 A 
ATOM     16  C   UNL     1       5.231   5.783   7.156  0.00  0.00    +0.000 A 
ATOM     17  C   UNL     1       5.382   4.455   6.804  0.00  0.00    +0.000 A 
ATOM     18  C   UNL     1       4.769   3.966   5.666  0.00  0.00    +0.004 A 
ENDBRANCH   9  13
BRANCH   4  19
ATOM     19  C   UNL     1       1.179   2.070  -0.012  0.00  0.00    -0.037 A 
ATOM     20  C   UNL     1       2.386   1.397  -0.036  0.00  0.00    +0.004 A 
ATOM     21  C   UNL     1       2.407   0.015  -0.054  0.00  0.00    +0.003 A 
ATOM     22  C   UNL     1       1.220  -0.694  -0.048  0.00  0.00    +0.033 A 
ATOM     23  C   UNL     1       0.013  -0.021  -0.024  0.00  0.00    +0.126 A 
ATOM     24  C   UNL     1      -0.007   1.361  -0.007  0.00  0.00    +0.037 A 
BRANCH  23  25
ATOM     25  N   UNL     1      -1.257  -0.781  -0.019  0.00  0.00    +0.056 N 
ATOM     26  O   UNL     1      -2.321  -0.188   0.002  0.00  0.00    -0.126 OA
ATOM     27  O   UNL     1      -1.239  -1.999  -0.034  0.00  0.00    -0.126 OA
ENDBRANCH  23  25
ENDBRANCH   4  19
BRANCH   3  28
ATOM     28  C   UNL     1       1.130   4.060  -2.463  0.00  0.00    +0.227 C 
ATOM     29  O   UNL     1       1.664   4.475  -3.476  0.00  0.00    -0.275 OA
ATOM     30  N   UNL     1      -0.126   3.575  -2.514  0.00  0.00    -0.285 N 
ATOM     31  H   UNL     1      -0.527   3.183  -1.722  0.00  0.00    +0.155 HD
BRANCH  30  32
ATOM     32  C   UNL     1      -0.852   3.636  -3.709  0.00  0.00    +0.034 A 
ATOM     33  C   UNL     1      -2.224   3.847  -3.679  0.00  0.00    +0.026 A 
ATOM     34  C   UNL     1      -2.938   3.912  -4.860  0.00  0.00    +0.040 A 
ATOM     35  C   UNL     1      -2.288   3.756  -6.072  0.00  0.00    +0.124 A 
ATOM     36  C   UNL     1      -0.920   3.541  -6.104  0.00  0.00    +0.040 A 
ATOM     37  C   UNL     1      -0.202   3.480  -4.926  0.00  0.00    +0.026 A 
ATOM     38  F   UNL     1      -2.988   3.816  -7.226  0.00  0.00    -0.205 F 
ENDBRANCH  30  32
ENDBRANCH   3  28
TORSDOF 5
