REMARK  Name = ZINC08781015
REMARK  10 active torsions:
REMARK  status: ('A' for Active; 'I' for Inactive)
REMARK    1  A    between atoms: C_1  and  C_2
REMARK    2  A    between atoms: C_2  and  C_3
REMARK    3  A    between atoms: C_2  and  C_4
REMARK    4  A    between atoms: C_7  and  C_10
REMARK    5  A    between atoms: C_10  and  N_11
REMARK    6  A    between atoms: N_11  and  C_12
REMARK    7  A    between atoms: C_14  and  N_21
REMARK    8  A    between atoms: C_17  and  N_18
REMARK    9  A    between atoms: N_24  and  S_27
REMARK   10  A    between atoms: S_27  and  C_30
REMARK                            x       y       z     vdW  Elec       q    Type
REMARK                         _______ _______ _______ _____ _____    ______ ____
ROOT
ATOM      1  C   UNL     1      -2.252   5.449  -3.613  0.00  0.00    +0.060 A 
ATOM      2  C   UNL     1      -1.938   4.917  -2.370  0.00  0.00    +0.048 A 
ATOM      3  C   UNL     1      -1.658   3.563  -2.248  0.00  0.00    +0.032 A 
ATOM      4  C   UNL     1      -1.687   2.746  -3.372  0.00  0.00    +0.025 A 
ATOM      5  C   UNL     1      -2.006   3.277  -4.607  0.00  0.00    +0.036 A 
ATOM      6  C   UNL     1      -2.285   4.625  -4.731  0.00  0.00    +0.147 A 
ENDROOT
BRANCH   3   7
ATOM      7  N   UNL     1      -1.342   3.024  -1.000  0.00  0.00    -0.327 N 
ATOM      8  C   UNL     1      -1.083   1.582  -1.099  0.00  0.00    +0.122 C 
ATOM      9  C   UNL     1      -0.566   1.065   0.247  0.00  0.00    +0.128 C 
ATOM     10  N   UNL     1      -1.518   1.454   1.299  0.00  0.00    -0.178 NA
ATOM     11  C   UNL     1      -1.936   2.863   1.371  0.00  0.00    +0.128 C 
ATOM     12  C   UNL     1      -2.399   3.309  -0.020  0.00  0.00    +0.122 C 
BRANCH  10  13
ATOM     13  S   UNL     1      -2.108   0.336   2.368  0.00  0.00    +0.029 S 
ATOM     14  O   UNL     1      -3.364   0.856   2.780  0.00  0.00    -0.158 OA
ATOM     15  O   UNL     1      -2.028  -0.904   1.677  0.00  0.00    -0.158 OA
ATOM     16  C   UNL     1      -0.939   0.354   3.755  0.00  0.00    +0.215 C 
ENDBRANCH  10  13
ENDBRANCH   3   7
BRANCH   6  17
ATOM     17  N   UNL     1      -2.619   5.191  -6.057  0.00  0.00    +0.058 N 
ATOM     18  O   UNL     1      -3.293   4.548  -6.842  0.00  0.00    -0.126 OA
ATOM     19  O   UNL     1      -2.221   6.301  -6.363  0.00  0.00    -0.126 OA
ENDBRANCH   6  17
BRANCH   1  20
ATOM     20  N   UNL     1      -2.534   6.811  -3.739  0.00  0.00    -0.338 N 
ATOM     21  H   UNL     1      -2.836   7.167  -4.590  0.00  0.00    +0.146 HD
BRANCH  20  22
ATOM     22  C   UNL     1      -2.375   7.702  -2.588  0.00  0.00    +0.137 C 
BRANCH  22  26
ATOM     23  C   UNL     1      -3.414  11.689  -3.717  0.00  0.00    -0.045 A 
ATOM     24  C   UNL     1      -4.382  10.837  -3.218  0.00  0.00    +0.004 A 
ATOM     25  C   UNL     1      -4.045   9.547  -2.852  0.00  0.00    +0.005 A 
ATOM     26  C   UNL     1      -2.741   9.108  -2.986  0.00  0.00    -0.030 A 
ATOM     27  C   UNL     1      -1.773   9.962  -3.481  0.00  0.00    +0.005 A 
ATOM     28  C   UNL     1      -2.110  11.250  -3.850  0.00  0.00    +0.004 A 
BRANCH  23  30
ATOM     29  C   UNL     1      -2.970  14.089  -3.284  0.00  0.00    +0.012 C 
ATOM     30  C   UNL     1      -3.781  13.095  -4.117  0.00  0.00    +0.013 C 
ATOM     31  C   UNL     1      -3.471  13.300  -5.601  0.00  0.00    +0.012 C 
ENDBRANCH  23  30
ENDBRANCH  22  26
ENDBRANCH  20  22
ENDBRANCH   1  20
TORSDOF 7
