REMARK  Name = ZINC23517349
REMARK  8 active torsions:
REMARK  status: ('A' for Active; 'I' for Inactive)
REMARK    1  A    between atoms: C_1  and  C_2
REMARK    2  A    between atoms: C_2  and  C_4
REMARK    3  A    between atoms: C_2  and  S_17
REMARK    4  A    between atoms: N_6  and  C_7
REMARK    5  A    between atoms: S_17  and  C_18
REMARK    6  A    between atoms: C_21  and  C_26
REMARK    7  A    between atoms: N_22  and  C_23
REMARK    8  A    between atoms: C_23  and  C_24
REMARK                            x       y       z     vdW  Elec       q    Type
REMARK                         _______ _______ _______ _____ _____    ______ ____
ROOT
ATOM      1  C   UNL     1       1.851   2.150   1.430  0.00  0.00    +0.029 C 
ATOM      2  C   UNL     1       1.279   2.115   0.012  0.00  0.00    +0.137 C 
ENDROOT
BRANCH   2   3
ATOM      3  C   UNL     1      -0.016   1.343   0.012  0.00  0.00    +0.230 C 
ATOM      4  O   UNL     1      -1.074   1.936   0.016  0.00  0.00    -0.274 OA
ATOM      5  N   UNL     1       0.002  -0.004   0.002  0.00  0.00    -0.284 N 
ATOM      6  H   UNL     1       0.958  -0.541  -0.095  0.00  0.00    +0.155 HD
BRANCH   5   7
ATOM      7  C   UNL     1      -1.191  -0.719   0.115  0.00  0.00    +0.043 A 
ATOM      8  C   UNL     1      -2.287  -0.150   0.729  0.00  0.00    +0.024 A 
ATOM      9  C   UNL     1      -3.482  -0.854   0.839  0.00  0.00    +0.004 A 
ATOM     10  C   UNL     1      -3.599  -2.123   0.358  0.00  0.00    +0.028 A 
ATOM     11  C   UNL     1      -2.505  -2.742  -0.270  0.00  0.00    +0.073 A 
ATOM     12  C   UNL     1      -1.286  -2.031  -0.393  0.00  0.00    +0.022 A 
ATOM     13  C   UNL     1      -0.193  -2.653  -1.021  0.00  0.00    +0.013 A 
ATOM     14  C   UNL     1      -0.357  -3.926  -1.489  0.00  0.00    +0.020 A 
ATOM     15  C   UNL     1      -1.583  -4.570  -1.336  0.00  0.00    +0.111 A 
ATOM     16  N   UNL     1      -2.600  -3.986  -0.750  0.00  0.00    -0.255 NA
ENDBRANCH   5   7
ENDBRANCH   2   3
BRANCH   2  17
ATOM     17  S   UNL     1       0.974   3.805  -0.558  0.00  0.00    -0.074 S 
BRANCH  17  18
ATOM     18  C   UNL     1       2.627   4.415  -0.605  0.00  0.00    +0.193 A 
ATOM     19  N   UNL     1       3.713   3.750  -0.288  0.00  0.00    -0.122 NA
ATOM     20  N   UNL     1       4.745   4.500  -0.440  0.00  0.00    -0.133 NA
ATOM     21  C   UNL     1       4.382   5.682  -0.853  0.00  0.00    +0.137 A 
ATOM     22  N   UNL     1       3.019   5.670  -0.973  0.00  0.00    -0.302 N 
BRANCH  21  23
ATOM     23  C   UNL     1       5.293   6.846  -1.144  0.00  0.00    +0.057 C 
ATOM     24  C   UNL     1       6.800   6.581  -1.140  0.00  0.00    +0.012 C 
ATOM     25  C   UNL     1       6.158   7.370   0.004  0.00  0.00    +0.012 C 
ENDBRANCH  21  23
BRANCH  22  26
ATOM     26  C   UNL     1       2.160   6.774  -1.405  0.00  0.00    +0.152 C 
BRANCH  26  27
ATOM     27  C   UNL     1       1.742   7.585  -0.206  0.00  0.00    -0.013 C 
ATOM     28  C   UNL     1       1.967   8.875  -0.177  0.00  0.00    +0.005 C 
ENDBRANCH  26  27
ENDBRANCH  22  26
ENDBRANCH  17  18
ENDBRANCH   2  17
TORSDOF 7
