REMARK  Name = ZINC22739181
REMARK  9 active torsions:
REMARK  status: ('A' for Active; 'I' for Inactive)
REMARK    1  A    between atoms: C_1  and  C_2
REMARK    2  A    between atoms: C_3  and  C_31
REMARK    3  A    between atoms: N_9  and  C_12
REMARK    4  A    between atoms: C_12  and  C_13
REMARK    5  A    between atoms: N_15  and  C_16
REMARK    6  A    between atoms: C_17  and  C_27
REMARK    7  A    between atoms: C_22  and  C_26
REMARK    8  A    between atoms: C_27  and  O_29
REMARK    9  A    between atoms: O_29  and  C_30
REMARK                            x       y       z     vdW  Elec       q    Type
REMARK                         _______ _______ _______ _____ _____    ______ ____
ROOT
ATOM      1  C   UNL     1       2.227  -6.106  -3.026  0.00  0.00    +0.238 C 
ATOM      2  O   UNL     1       2.199  -5.214  -3.848  0.00  0.00    -0.273 OA
ATOM      3  N   UNL     1       1.930  -5.845  -1.738  0.00  0.00    -0.278 N 
ATOM      4  H   UNL     1       1.956  -6.654  -0.993  0.00  0.00    +0.155 HD
ENDROOT
BRANCH   3   5
ATOM      5  C   UNL     1       1.592  -4.558  -1.351  0.00  0.00    +0.086 A 
ATOM      6  C   UNL     1       1.258  -4.096  -0.085  0.00  0.00    +0.091 A 
ATOM      7  C   UNL     1       0.941  -2.684   0.053  0.00  0.00    -0.021 A 
ATOM      8  C   UNL     1       1.008  -1.966  -1.089  0.00  0.00    -0.004 A 
ATOM      9  S   UNL     1       1.484  -3.133  -2.332  0.00  0.00    -0.077 S 
ATOM     10  C   UNL     1       0.736  -0.502  -1.252  0.00  0.00    +0.046 C 
ATOM     11  C   UNL     1       0.002  -0.004   0.002  0.00  0.00    -0.009 C 
ATOM     12  C   UNL     1       0.742  -0.514   1.242  0.00  0.00    +0.008 C 
ATOM     13  C   UNL     1       0.557  -2.027   1.373  0.00  0.00    +0.037 C 
ATOM     14  C   UNL     1      -0.019   1.526   0.010  0.00  0.00    +0.008 C 
BRANCH   6  15
ATOM     15  C   UNL     1       1.226  -4.998   1.068  0.00  0.00    +0.342 C 
ATOM     16  O   UNL     1       0.198  -5.582   1.355  0.00  0.00    -0.245 OA
BRANCH  15  17
ATOM     17  O   UNL     1       2.336  -5.182   1.812  0.00  0.00    -0.464 OA
ATOM     18  C   UNL     1       2.231  -6.090   2.940  0.00  0.00    +0.280 C 
ENDBRANCH  15  17
ENDBRANCH   6  15
ENDBRANCH   3   5
BRANCH   1  19
ATOM     19  C   UNL     1       2.594  -7.506  -3.446  0.00  0.00    +0.222 C 
BRANCH  19  28
ATOM     20  C   UNL     1       6.904  -6.832  -6.676  0.00  0.00    +0.045 C 
ATOM     21  C   UNL     1       5.635  -7.121  -7.436  0.00  0.00    -0.026 A 
ATOM     22  C   UNL     1       5.648  -7.190  -8.777  0.00  0.00    -0.008 A 
ATOM     23  S   UNL     1       3.949  -7.544  -9.187  0.00  0.00    -0.073 S 
ATOM     24  C   UNL     1       3.274  -7.590  -7.547  0.00  0.00    +0.116 A 
ATOM     25  C   UNL     1       4.386  -7.329  -6.727  0.00  0.00    +0.075 A 
ATOM     26  C   UNL     1       4.125  -7.305  -5.319  0.00  0.00    +0.263 A 
ATOM     27  O   UNL     1       5.025  -7.087  -4.526  0.00  0.00    -0.267 OA
ATOM     28  N   UNL     1       2.871  -7.528  -4.885  0.00  0.00    -0.290 N 
ATOM     29  C   UNL     1       1.857  -7.778  -5.753  0.00  0.00    +0.203 A 
ATOM     30  N   UNL     1       2.062  -7.801  -7.042  0.00  0.00    -0.230 NA
ATOM     31  C   UNL     1       6.817  -7.010  -9.710  0.00  0.00    +0.052 C 
ENDBRANCH  19  28
ENDBRANCH   1  19
TORSDOF 5
