REMARK  Name = ZINC39827244
REMARK  16 active torsions:
REMARK  status: ('A' for Active; 'I' for Inactive)
REMARK    1  A    between atoms: C_1  and  C_2
REMARK    2  A    between atoms: C_2  and  C_3
REMARK    3  A    between atoms: C_3  and  O_4
REMARK    4  A    between atoms: O_4  and  C_5
REMARK    5  A    between atoms: C_8  and  C_11
REMARK    6  A    between atoms: C_11  and  C_13
REMARK    7  A    between atoms: N_17  and  C_31
REMARK    8  A    between atoms: C_18  and  C_20
REMARK    9  A    between atoms: C_23  and  O_28
REMARK   10  A    between atoms: C_24  and  O_26
REMARK   11  A    between atoms: O_26  and  C_27
REMARK   12  A    between atoms: O_28  and  C_29
REMARK   13  A    between atoms: C_29  and  C_30
REMARK   14  A    between atoms: C_31  and  C_32
REMARK   15  A    between atoms: C_32  and  O_33
REMARK   16  A    between atoms: O_33  and  C_34
REMARK                            x       y       z     vdW  Elec       q    Type
REMARK                         _______ _______ _______ _____ _____    ______ ____
ROOT
ATOM      1  C   UNL     1       3.437  -5.929   5.696  0.00  0.00    +0.076 C 
ATOM      2  C   UNL     1       3.962  -6.617   6.736  0.00  0.00    +0.249 C 
ATOM      3  C   UNL     1       3.789  -8.065   6.498  0.00  0.00    +0.288 C 
ATOM      4  O   UNL     1       4.156  -8.944   7.251  0.00  0.00    -0.266 OA
ATOM      5  N   UNL     1       3.163  -8.265   5.324  0.00  0.00    -0.281 N 
ATOM      6  C   UNL     1       2.886  -6.952   4.730  0.00  0.00    +0.145 C 
ATOM      7  O   UNL     1       4.553  -6.066   7.822  0.00  0.00    -0.282 OA
ENDROOT
BRANCH   6   8
ATOM      8  C   UNL     1       3.580  -6.832   3.398  0.00  0.00    -0.019 A 
ATOM      9  C   UNL     1       4.805  -7.442   3.201  0.00  0.00    +0.009 A 
ATOM     10  C   UNL     1       5.446  -7.336   1.980  0.00  0.00    +0.050 A 
ATOM     11  C   UNL     1       4.860  -6.617   0.951  0.00  0.00    +0.162 A 
ATOM     12  C   UNL     1       3.627  -6.003   1.149  0.00  0.00    +0.162 A 
ATOM     13  C   UNL     1       2.988  -6.118   2.373  0.00  0.00    +0.055 A 
BRANCH  12  14
ATOM     14  O   UNL     1       3.047  -5.297   0.141  0.00  0.00    -0.491 OA
ATOM     15  C   UNL     1       1.731  -4.793   0.376  0.00  0.00    +0.277 C 
ENDBRANCH  12  14
BRANCH  11  16
ATOM     16  O   UNL     1       5.489  -6.511  -0.250  0.00  0.00    -0.489 OA
BRANCH  16  17
ATOM     17  C   UNL     1       6.752  -7.166  -0.381  0.00  0.00    +0.226 C 
ATOM     18  C   UNL     1       7.302  -6.936  -1.791  0.00  0.00    +0.048 C 
ENDBRANCH  16  17
ENDBRANCH  11  16
ENDBRANCH   6   8
BRANCH   1  19
ATOM     19  C   UNL     1       3.403  -4.471   5.539  0.00  0.00    +0.195 C 
ATOM     20  O   UNL     1       4.439  -3.851   5.383  0.00  0.00    -0.287 OA
BRANCH  19  24
ATOM     21  C   UNL     1      -0.310  -2.412   5.630  0.00  0.00    +0.121 A 
ATOM     22  C   UNL     1       0.878  -1.695   5.532  0.00  0.00    +0.046 A 
ATOM     23  C   UNL     1       2.083  -2.359   5.503  0.00  0.00    +0.015 A 
ATOM     24  C   UNL     1       2.112  -3.755   5.571  0.00  0.00    +0.022 A 
ATOM     25  C   UNL     1       0.916  -4.471   5.670  0.00  0.00    +0.015 A 
ATOM     26  C   UNL     1      -0.285  -3.800   5.704  0.00  0.00    +0.046 A 
BRANCH  21  27
ATOM     27  O   UNL     1      -1.497  -1.754   5.659  0.00  0.00    -0.492 OA
BRANCH  27  28
ATOM     28  C   UNL     1      -1.450  -0.328   5.579  0.00  0.00    +0.229 C 
BRANCH  28  30
ATOM     29  C   UNL     1      -2.822   1.760   5.541  0.00  0.00    +0.007 C 
ATOM     30  C   UNL     1      -2.873   0.233   5.626  0.00  0.00    +0.038 C 
ENDBRANCH  28  30
ENDBRANCH  27  28
ENDBRANCH  21  27
ENDBRANCH  19  24
ENDBRANCH   1  19
BRANCH   5  31
ATOM     31  C   UNL     1       2.814  -9.564   4.744  0.00  0.00    +0.137 C 
BRANCH  31  32
ATOM     32  C   UNL     1       1.417  -9.974   5.213  0.00  0.00    +0.178 C 
BRANCH  32  33
ATOM     33  O   UNL     1       0.452  -9.056   4.694  0.00  0.00    -0.381 OA
ATOM     34  C   UNL     1      -0.893  -9.350   5.076  0.00  0.00    +0.194 C 
ENDBRANCH  32  33
ENDBRANCH  31  32
ENDBRANCH   5  31
TORSDOF 12
