REMARK  Name = ZINC03212755
REMARK  7 active torsions:
REMARK  status: ('A' for Active; 'I' for Inactive)
REMARK    1  A    between atoms: C_1  and  C_2
REMARK    2  A    between atoms: C_5  and  S_8
REMARK    3  A    between atoms: S_8  and  C_11
REMARK    4  A    between atoms: C_12  and  N_23
REMARK    5  A    between atoms: C_14  and  C_16
REMARK    6  A    between atoms: N_23  and  C_24
REMARK    7  A    between atoms: C_24  and  C_25
REMARK                            x       y       z     vdW  Elec       q    Type
REMARK                         _______ _______ _______ _____ _____    ______ ____
ROOT
ATOM      1  C   UNL     1       0.025  -0.534   1.682  0.00  0.00    +0.243 A 
ATOM      2  C   UNL     1      -1.059  -0.789   2.455  0.00  0.00    +0.233 A 
ATOM      3  O   UNL     1      -0.603  -1.167   3.666  0.00  0.00    -0.420 OA
ATOM      4  C   UNL     1       0.743  -1.139   3.624  0.00  0.00    +0.233 A 
ATOM      5  N   UNL     1       1.119  -0.763   2.425  0.00  0.00    -0.188 NA
ENDROOT
BRANCH   4   6
ATOM      6  C   UNL     1       1.647  -1.482   4.740  0.00  0.00    +0.055 A 
ATOM      7  C   UNL     1       3.031  -1.418   4.568  0.00  0.00    +0.014 A 
ATOM      8  C   UNL     1       3.869  -1.734   5.617  0.00  0.00    +0.001 A 
ATOM      9  C   UNL     1       3.342  -2.125   6.835  0.00  0.00    +0.001 A 
ATOM     10  C   UNL     1       1.972  -2.196   7.013  0.00  0.00    +0.021 A 
ATOM     11  C   UNL     1       1.121  -1.877   5.973  0.00  0.00    +0.053 A 
ATOM     12 CL   UNL     1      -0.599  -1.967   6.197  0.00  0.00    -0.083 Cl
ENDBRANCH   4   6
BRANCH   1  13
ATOM     13  S   UNL     1       0.002  -0.004   0.002  0.00  0.00    +0.047 S 
ATOM     14  O   UNL     1      -1.243  -0.424  -0.539  0.00  0.00    -0.163 OA
ATOM     15  O   UNL     1       1.248  -0.390  -0.563  0.00  0.00    -0.163 OA
BRANCH  13  20
ATOM     16  C   UNL     1      -0.080   6.029   0.035  0.00  0.00    +0.044 C 
ATOM     17  C   UNL     1      -0.059   4.522   0.026  0.00  0.00    -0.050 A 
ATOM     18  C   UNL     1       1.147   3.847   0.012  0.00  0.00    +0.005 A 
ATOM     19  C   UNL     1       1.166   2.465   0.004  0.00  0.00    +0.028 A 
ATOM     20  C   UNL     1      -0.022   1.758   0.012  0.00  0.00    +0.095 A 
ATOM     21  C   UNL     1      -1.228   2.433   0.021  0.00  0.00    +0.028 A 
ATOM     22  C   UNL     1      -1.247   3.815   0.033  0.00  0.00    +0.005 A 
ENDBRANCH  13  20
ENDBRANCH   1  13
BRANCH   2  23
ATOM     23  N   UNL     1      -2.391  -0.682   2.070  0.00  0.00    -0.308 N 
ATOM     24  H   UNL     1      -2.614  -0.400   1.169  0.00  0.00    +0.149 HD
BRANCH  23  25
ATOM     25  C   UNL     1      -3.457  -0.995   3.025  0.00  0.00    +0.139 C 
BRANCH  25  26
ATOM     26  C   UNL     1      -4.797  -0.800   2.364  0.00  0.00    -0.030 A 
ATOM     27  C   UNL     1      -5.426   0.429   2.426  0.00  0.00    +0.005 A 
ATOM     28  C   UNL     1      -6.653   0.609   1.815  0.00  0.00    +0.000 A 
ATOM     29  C   UNL     1      -7.256  -0.444   1.151  0.00  0.00    +0.000 A 
ATOM     30  C   UNL     1      -6.629  -1.675   1.095  0.00  0.00    +0.000 A 
ATOM     31  C   UNL     1      -5.399  -1.853   1.701  0.00  0.00    +0.005 A 
ENDBRANCH  25  26
ENDBRANCH  23  25
ENDBRANCH   2  23
TORSDOF 6
