REMARK  Name = ZINC06808052
REMARK  8 active torsions:
REMARK  status: ('A' for Active; 'I' for Inactive)
REMARK    1  A    between atoms: C_1  and  C_2
REMARK    2  A    between atoms: C_2  and  C_3
REMARK    3  A    between atoms: C_3  and  C_30
REMARK    4  A    between atoms: C_13  and  C_28
REMARK    5  A    between atoms: C_14  and  C_16
REMARK    6  A    between atoms: N_18  and  C_19
REMARK    7  A    between atoms: C_22  and  C_25
REMARK    8  A    between atoms: C_25  and  C_27
REMARK                            x       y       z     vdW  Elec       q    Type
REMARK                         _______ _______ _______ _____ _____    ______ ____
ROOT
ATOM      1  C   UNL     1      -1.728   0.098   0.086  0.00  0.00    +0.115 C 
ATOM      2  C   UNL     1      -1.494  -1.420   0.075  0.00  0.00    +0.127 C 
ATOM      3  C   UNL     1      -2.860  -2.082   0.113  0.00  0.00    +0.171 C 
ATOM      4  O   UNL     1      -3.108  -3.071  -0.546  0.00  0.00    -0.292 OA
ATOM      5  C   UNL     1      -3.865  -1.467   0.989  0.00  0.00    +0.070 A 
ATOM      6  C   UNL     1      -3.618  -0.197   1.525  0.00  0.00    +0.133 A 
ATOM      7  C   UNL     1      -4.572   0.395   2.350  0.00  0.00    +0.050 A 
ATOM      8  C   UNL     1      -5.750  -0.253   2.645  0.00  0.00    +0.050 A 
ATOM      9  C   UNL     1      -6.015  -1.519   2.128  0.00  0.00    +0.137 A 
ATOM     10  C   UNL     1      -5.070  -2.137   1.293  0.00  0.00    +0.038 A 
ATOM     11  C   UNL     1      -5.615  -3.392   0.933  0.00  0.00    +0.008 A 
ATOM     12  C   UNL     1      -6.827  -3.486   1.541  0.00  0.00    +0.194 A 
ATOM     13  O   UNL     1      -7.059  -2.363   2.252  0.00  0.00    -0.450 OA
ATOM     14  C   UNL     1      -4.973  -4.427   0.045  0.00  0.00    +0.048 C 
ATOM     15  O   UNL     1      -2.461   0.454   1.257  0.00  0.00    -0.485 OA
ATOM     16  C   UNL     1      -2.523   0.502  -1.158  0.00  0.00    +0.056 C 
ENDROOT
BRANCH  12  17
ATOM     17  C   UNL     1      -7.742  -4.633   1.439  0.00  0.00    +0.284 C 
ATOM     18  O   UNL     1      -7.434  -5.599   0.768  0.00  0.00    -0.266 OA
ATOM     19  N   UNL     1      -8.922  -4.612   2.089  0.00  0.00    -0.279 N 
ATOM     20  H   UNL     1      -9.201  -3.814   2.563  0.00  0.00    +0.155 HD
BRANCH  19  21
ATOM     21  C   UNL     1      -9.741  -5.738   2.080  0.00  0.00    +0.034 A 
ATOM     22  C   UNL     1      -9.173  -7.010   2.084  0.00  0.00    +0.024 A 
ATOM     23  C   UNL     1      -9.973  -8.117   2.075  0.00  0.00    +0.013 A 
ATOM     24  C   UNL     1     -11.366  -7.972   2.063  0.00  0.00    +0.017 A 
ATOM     25  C   UNL     1     -11.933  -6.691   2.059  0.00  0.00    +0.013 A 
ATOM     26  C   UNL     1     -11.126  -5.589   2.074  0.00  0.00    +0.024 A 
BRANCH  24  27
ATOM     27  C   UNL     1     -12.229  -9.159   2.053  0.00  0.00    +0.160 C 
ATOM     28  O   UNL     1     -11.739 -10.265   1.958  0.00  0.00    -0.292 OA
ATOM     29  C   UNL     1     -13.725  -9.005   2.160  0.00  0.00    +0.091 C 
ENDBRANCH  24  27
ENDBRANCH  19  21
ENDBRANCH  12  17
BRANCH   1  31
ATOM     30  C   UNL     1      -0.613   2.334   0.102  0.00  0.00    +0.008 C 
ATOM     31  C   UNL     1      -0.380   0.822   0.087  0.00  0.00    +0.045 C 
ENDBRANCH   1  31
TORSDOF 4
