REMARK  Name = ZINC09264351
REMARK  5 active torsions:
REMARK  status: ('A' for Active; 'I' for Inactive)
REMARK    1  A    between atoms: C_1  and  O_2
REMARK    2  A    between atoms: O_2  and  C_3
REMARK    3  A    between atoms: C_6  and  C_9
REMARK    4  A    between atoms: C_21  and  C_23
REMARK    5  A    between atoms: C_31  and  C_34
REMARK                            x       y       z     vdW  Elec       q    Type
REMARK                         _______ _______ _______ _____ _____    ______ ____
ROOT
ATOM      1  C   UNL     1       0.060  -4.250  -0.023  0.00  0.00    +0.252 C 
ATOM      2  O   UNL     1      -0.982  -4.873   0.060  0.00  0.00    -0.270 OA
ATOM      3  N   UNL     1       1.230  -4.907  -0.140  0.00  0.00    -0.251 N 
ATOM      4  C   UNL     1       2.424  -4.189  -0.146  0.00  0.00    +0.059 A 
ATOM      5  C   UNL     1       2.736  -3.317  -1.179  0.00  0.00    +0.025 A 
ATOM      6  C   UNL     1       3.954  -2.660  -1.171  0.00  0.00    +0.002 A 
ATOM      7  C   UNL     1       4.858  -2.871  -0.146  0.00  0.00    +0.002 A 
ATOM      8  C   UNL     1       4.543  -3.726   0.897  0.00  0.00    +0.025 A 
ATOM      9  C   UNL     1       3.315  -4.364   0.902  0.00  0.00    +0.053 A 
ATOM     10  N   UNL     1       2.899  -5.171   1.955  0.00  0.00    -0.316 N 
ATOM     11  C   UNL     1       2.633  -6.500   1.859  0.00  0.00    +0.018 C 
ATOM     12  C   UNL     1       1.888  -7.069   0.897  0.00  0.00    +0.040 C 
ATOM     13  C   UNL     1       1.230  -6.350  -0.251  0.00  0.00    +0.182 C 
ATOM     14  C   UNL     1       1.672  -8.468   0.896  0.00  0.00    +0.164 C 
ATOM     15  O   UNL     1       0.972  -8.952   0.028  0.00  0.00    -0.292 OA
ATOM     16  C   UNL     1       2.276  -9.373   1.927  0.00  0.00    +0.091 C 
ATOM     17  C   UNL     1       3.578  -8.738   2.431  0.00  0.00    +0.068 C 
ATOM     18  C   UNL     1       3.240  -7.347   2.965  0.00  0.00    +0.063 C 
ATOM     19  H   UNL     1       2.790  -4.754   2.824  0.00  0.00    +0.152 HD
ENDROOT
BRANCH   1  23
ATOM     20  C   UNL     1       0.007  -0.005   0.054  0.00  0.00    +0.120 A 
ATOM     21  C   UNL     1       0.986  -0.699   0.757  0.00  0.00    +0.046 A 
ATOM     22  C   UNL     1       1.003  -2.075   0.739  0.00  0.00    +0.016 A 
ATOM     23  C   UNL     1       0.041  -2.775   0.004  0.00  0.00    +0.037 A 
ATOM     24  C   UNL     1      -0.937  -2.073  -0.705  0.00  0.00    +0.016 A 
ATOM     25  C   UNL     1      -0.950  -0.696  -0.678  0.00  0.00    +0.046 A 
BRANCH  20  27
ATOM     26  C   UNL     1       1.005   1.999   0.851  0.00  0.00    +0.277 C 
ATOM     27  O   UNL     1      -0.009   1.352   0.079  0.00  0.00    -0.495 OA
ENDBRANCH  20  27
ENDBRANCH   1  23
BRANCH  13  28
ATOM     28  C   UNL     1       1.946  -6.732  -1.522  0.00  0.00    +0.130 A 
ATOM     29  C   UNL     1       1.579  -7.712  -2.367  0.00  0.00    +0.047 A 
ATOM     30  C   UNL     1       2.525  -7.722  -3.417  0.00  0.00    +0.041 A 
ATOM     31  C   UNL     1       3.413  -6.748  -3.152  0.00  0.00    +0.195 A 
ATOM     32  O   UNL     1       3.054  -6.147  -2.005  0.00  0.00    -0.466 OA
ENDBRANCH  13  28
BRANCH  17  33
ATOM     33  C   UNL     1       4.165  -9.580   3.534  0.00  0.00    +0.109 A 
ATOM     34  C   UNL     1       5.387 -10.142   3.529  0.00  0.00    +0.045 A 
ATOM     35  C   UNL     1       5.524 -10.836   4.753  0.00  0.00    +0.041 A 
ATOM     36  C   UNL     1       4.375 -10.662   5.430  0.00  0.00    +0.195 A 
ATOM     37  O   UNL     1       3.555  -9.901   4.687  0.00  0.00    -0.468 OA
ENDBRANCH  17  33
TORSDOF 4
