REMARK  Name = ZINC28797863
REMARK  7 active torsions:
REMARK  status: ('A' for Active; 'I' for Inactive)
REMARK    1  A    between atoms: C_4  and  N_7
REMARK    2  A    between atoms: C_8  and  C_29
REMARK    3  A    between atoms: C_11  and  S_12
REMARK    4  A    between atoms: S_12  and  C_13
REMARK    5  A    between atoms: C_13  and  C_14
REMARK    6  A    between atoms: N_16  and  C_17
REMARK    7  A    between atoms: C_18  and  C_27
REMARK                            x       y       z     vdW  Elec       q    Type
REMARK                         _______ _______ _______ _____ _____    ______ ____
ROOT
ATOM      1  C   UNL     1      -0.013   1.086   0.008  0.00  0.00    +0.173 C 
ENDROOT
BRANCH   1   2
ATOM      2  C   UNL     1      -0.742   1.585  -1.213  0.00  0.00    +0.228 C 
ATOM      3  O   UNL     1      -1.736   2.268  -1.088  0.00  0.00    -0.275 OA
ATOM      4  N   UNL     1      -0.288   1.272  -2.443  0.00  0.00    -0.278 N 
ATOM      5  H   UNL     1       0.614   0.653  -2.556  0.00  0.00    +0.155 HD
BRANCH   4   6
ATOM      6  C   UNL     1      -0.960   1.732  -3.568  0.00  0.00    +0.090 A 
ATOM      7  C   UNL     1      -0.649   1.524  -4.901  0.00  0.00    +0.084 A 
ATOM      8  C   UNL     1      -1.525   2.115  -5.902  0.00  0.00    -0.018 A 
ATOM      9  C   UNL     1      -2.558   2.830  -5.404  0.00  0.00    -0.004 A 
ATOM     10  S   UNL     1      -2.386   2.712  -3.644  0.00  0.00    -0.077 S 
ATOM     11  C   UNL     1      -3.609   3.573  -6.168  0.00  0.00    +0.043 C 
ATOM     12  C   UNL     1      -4.184   2.659  -7.258  0.00  0.00    +0.005 C 
ATOM     13  C   UNL     1      -3.350   2.834  -8.523  0.00  0.00    +0.001 C 
ATOM     14  C   UNL     1      -1.894   3.118  -8.158  0.00  0.00    +0.005 C 
ATOM     15  C   UNL     1      -1.296   1.939  -7.398  0.00  0.00    +0.037 C 
BRANCH   7  16
ATOM     16  C   UNL     1       0.494   0.750  -5.282  0.00  0.00    +0.102 C 
ATOM     17  N   UNL     1       1.401   0.137  -5.585  0.00  0.00    -0.191 NA
ENDBRANCH   7  16
ENDBRANCH   4   6
ENDBRANCH   1   2
BRANCH   1  18
ATOM     18  S   UNL     1      -0.860   1.669   1.497  0.00  0.00    -0.076 S 
BRANCH  18  23
ATOM     19  N   UNL     1       0.015   1.071   4.089  0.00  0.00    -0.274 N 
ATOM     20  C   UNL     1       1.049   0.362   4.642  0.00  0.00    +0.142 A 
ATOM     21  N   UNL     1       1.754  -0.123   3.659  0.00  0.00    -0.133 NA
ATOM     22  N   UNL     1       1.240   0.221   2.533  0.00  0.00    -0.122 NA
ATOM     23  C   UNL     1       0.174   0.961   2.735  0.00  0.00    +0.197 A 
BRANCH  19  27
ATOM     24  C   UNL     1      -2.989   3.135   6.114  0.00  0.00    +0.000 A 
ATOM     25  C   UNL     1      -3.309   2.037   5.337  0.00  0.00    +0.002 A 
ATOM     26  C   UNL     1      -2.316   1.351   4.665  0.00  0.00    +0.026 A 
ATOM     27  C   UNL     1      -0.995   1.766   4.770  0.00  0.00    +0.050 A 
ATOM     28  C   UNL     1      -0.676   2.865   5.556  0.00  0.00    +0.026 A 
ATOM     29  C   UNL     1      -1.674   3.550   6.221  0.00  0.00    +0.002 A 
ENDBRANCH  19  27
BRANCH  20  30
ATOM     30  C   UNL     1       1.321   0.178   6.113  0.00  0.00    +0.057 C 
ATOM     31  C   UNL     1       2.643  -0.480   6.510  0.00  0.00    +0.012 C 
ATOM     32  C   UNL     1       1.330  -1.252   6.656  0.00  0.00    +0.012 C 
ENDBRANCH  20  30
ENDBRANCH  18  23
ENDBRANCH   1  18
TORSDOF 7
