REMARK  Name = ZINC39709759
REMARK  10 active torsions:
REMARK  status: ('A' for Active; 'I' for Inactive)
REMARK    1  A    between atoms: C_1  and  C_2
REMARK    2  A    between atoms: C_2  and  N_3
REMARK    3  A    between atoms: N_3  and  C_4
REMARK    4  A    between atoms: N_3  and  S_6
REMARK    5  A    between atoms: C_4  and  C_5
REMARK    6  A    between atoms: S_6  and  C_9
REMARK    7  A    between atoms: C_12  and  S_15
REMARK    8  A    between atoms: S_15  and  N_18
REMARK    9  A    between atoms: N_18  and  C_19
REMARK   10  A    between atoms: C_24  and  C_25
REMARK                            x       y       z     vdW  Elec       q    Type
REMARK                         _______ _______ _______ _____ _____    ______ ____
ROOT
ATOM      1  S   UNL     1      -4.967   4.227   3.629  0.00  0.00    +0.092 S 
ATOM      2  O   UNL     1      -6.361   3.955   3.603  0.00  0.00    -0.148 OA
ATOM      3  O   UNL     1      -4.285   4.598   4.820  0.00  0.00    -0.148 OA
ENDROOT
BRANCH   1   7
ATOM      4  C   UNL     1      -2.898   0.520   2.058  0.00  0.00    +0.106 A 
ATOM      5  C   UNL     1      -2.215   1.396   2.881  0.00  0.00    +0.030 A 
ATOM      6  C   UNL     1      -2.847   2.528   3.361  0.00  0.00    +0.031 A 
ATOM      7  C   UNL     1      -4.161   2.784   3.017  0.00  0.00    +0.110 A 
ATOM      8  C   UNL     1      -4.843   1.909   2.192  0.00  0.00    +0.031 A 
ATOM      9  C   UNL     1      -4.210   0.779   1.709  0.00  0.00    +0.030 A 
BRANCH   4  10
ATOM     10  S   UNL     1      -2.092  -0.923   1.446  0.00  0.00    +0.061 S 
ATOM     11  O   UNL     1      -3.116  -1.857   1.133  0.00  0.00    -0.153 OA
ATOM     12  O   UNL     1      -1.043  -1.219   2.357  0.00  0.00    -0.153 OA
BRANCH  10  13
ATOM     13  N   UNL     1      -1.372  -0.511   0.012  0.00  0.00    -0.177 NA
BRANCH  13  15
ATOM     14  C   UNL     1      -0.019   1.526   0.010  0.00  0.00    +0.022 C 
ATOM     15  C   UNL     1       0.002  -0.004   0.002  0.00  0.00    +0.106 C 
ENDBRANCH  13  15
BRANCH  13  16
ATOM     16  C   UNL     1      -2.110  -0.654  -1.245  0.00  0.00    +0.106 C 
ATOM     17  C   UNL     1      -1.773  -2.003  -1.884  0.00  0.00    +0.022 C 
ENDBRANCH  13  16
ENDBRANCH  10  13
ENDBRANCH   4  10
ENDBRANCH   1   7
BRANCH   1  18
ATOM     18  N   UNL     1      -4.700   5.439   2.533  0.00  0.00    -0.097 NA
BRANCH  18  19
ATOM     19  C   UNL     1      -5.224   6.706   2.758  0.00  0.00    +0.092 A 
ATOM     20  C   UNL     1      -5.967   6.959   3.903  0.00  0.00    +0.077 A 
ATOM     21  C   UNL     1      -6.486   8.223   4.123  0.00  0.00    +0.164 A 
ATOM     22  C   UNL     1      -6.270   9.246   3.201  0.00  0.00    +0.163 A 
ATOM     23  C   UNL     1      -5.536   9.012   2.060  0.00  0.00    +0.066 A 
ATOM     24  C   UNL     1      -4.999   7.737   1.829  0.00  0.00    +0.091 A 
ATOM     25  O   UNL     1      -6.791  10.487   3.438  0.00  0.00    -0.488 OA
ATOM     26  C   UNL     1      -8.215  10.588   3.377  0.00  0.00    +0.232 C 
ATOM     27  C   UNL     1      -8.841  10.195   4.706  0.00  0.00    +0.082 C 
ATOM     28  C   UNL     1      -8.606   8.732   5.046  0.00  0.00    +0.232 C 
ATOM     29  O   UNL     1      -7.215   8.475   5.247  0.00  0.00    -0.488 OA
BRANCH  24  30
ATOM     30  C   UNL     1      -4.210   7.479   0.619  0.00  0.00    +0.389 C 
ATOM     31  O   UNL     1      -4.016   8.378  -0.189  0.00  0.00    -0.241 OA
ATOM     32  O   UNL     1      -3.747   6.364   0.417  0.00  0.00    -0.241 OA
ENDBRANCH  24  30
ENDBRANCH  18  19
ENDBRANCH   1  18
TORSDOF 8
