REMARK  Name = ZINC19798478
REMARK  8 active torsions:
REMARK  status: ('A' for Active; 'I' for Inactive)
REMARK    1  A    between atoms: C_1  and  C_2
REMARK    2  A    between atoms: C_3  and  C_29
REMARK    3  A    between atoms: C_4  and  C_20
REMARK    4  A    between atoms: C_10  and  C_15
REMARK    5  A    between atoms: C_24  and  N_26
REMARK    6  A    between atoms: C_29  and  O_31
REMARK    7  A    between atoms: O_31  and  C_32
REMARK    8  A    between atoms: C_32  and  C_33
REMARK                            x       y       z     vdW  Elec       q    Type
REMARK                         _______ _______ _______ _____ _____    ______ ____
ROOT
ATOM      1  C   UNL     1      -0.013   1.086   0.008  0.00  0.00    +0.061 C 
ATOM      2  C   UNL     1      -0.718   1.572   1.248  0.00  0.00    +0.016 C 
ATOM      3  C   UNL     1      -0.850   2.892   1.467  0.00  0.00    +0.065 C 
ATOM      4  C   UNL     1      -1.558   3.412   2.684  0.00  0.00    +0.092 C 
ATOM      5  C   UNL     1      -1.663   2.345   3.745  0.00  0.00    +0.024 C 
ATOM      6  C   UNL     1      -1.492   1.043   3.432  0.00  0.00    +0.016 C 
ATOM      7  N   UNL     1      -1.215   0.668   2.145  0.00  0.00    -0.321 N 
ATOM      8  C   UNL     1      -1.595  -0.030   4.488  0.00  0.00    +0.060 C 
ATOM      9  C   UNL     1      -2.581   0.410   5.572  0.00  0.00    +0.039 C 
ATOM     10  C   UNL     1      -2.090   1.733   6.168  0.00  0.00    +0.088 C 
ATOM     11  C   UNL     1      -1.946   2.744   5.063  0.00  0.00    +0.162 C 
ATOM     12  O   UNL     1      -2.078   3.925   5.313  0.00  0.00    -0.292 OA
ATOM     13  H   UNL     1      -1.397  -0.372   1.835  0.00  0.00    +0.152 HD
ENDROOT
BRANCH   4  14
ATOM     14  C   UNL     1      -2.943   3.864   2.299  0.00  0.00    -0.033 A 
ATOM     15  C   UNL     1      -3.846   2.958   1.774  0.00  0.00    +0.005 A 
ATOM     16  C   UNL     1      -5.118   3.373   1.426  0.00  0.00    +0.003 A 
ATOM     17  C   UNL     1      -5.484   4.695   1.593  0.00  0.00    +0.033 A 
ATOM     18  C   UNL     1      -4.580   5.602   2.114  0.00  0.00    +0.126 A 
ATOM     19  C   UNL     1      -3.309   5.186   2.467  0.00  0.00    +0.037 A 
BRANCH  18  20
ATOM     20  N   UNL     1      -4.972   7.018   2.292  0.00  0.00    +0.056 N 
ATOM     21  O   UNL     1      -4.175   7.817   2.751  0.00  0.00    -0.126 OA
ATOM     22  O   UNL     1      -6.091   7.384   1.982  0.00  0.00    -0.126 OA
ENDBRANCH  18  20
ENDBRANCH   4  14
BRANCH   9  23
ATOM     23  C   UNL     1      -2.646  -0.639   6.653  0.00  0.00    -0.006 A 
ATOM     24  C   UNL     1      -3.712  -1.359   7.081  0.00  0.00    +0.011 A 
ATOM     25  C   UNL     1      -3.535  -2.278   8.098  0.00  0.00    +0.008 A 
ATOM     26  C   UNL     1      -2.301  -2.431   8.639  0.00  0.00    +0.045 A 
ATOM     27  S   UNL     1      -1.338  -1.260   7.697  0.00  0.00    -0.101 S 
ENDBRANCH   9  23
BRANCH   3  28
ATOM     28  C   UNL     1      -0.314   3.807   0.531  0.00  0.00    +0.338 C 
ATOM     29  O   UNL     1       0.258   3.398  -0.461  0.00  0.00    -0.245 OA
BRANCH  28  30
ATOM     30  O   UNL     1      -0.439   5.135   0.739  0.00  0.00    -0.459 OA
BRANCH  30  31
ATOM     31  C   UNL     1       0.125   6.002  -0.247  0.00  0.00    +0.264 C 
BRANCH  31  32
ATOM     32  C   UNL     1      -0.113   7.458   0.158  0.00  0.00    +0.156 C 
ATOM     33  C   UNL     1       0.390   8.400  -0.957  0.00  0.00    +0.037 C 
ATOM     34  C   UNL     1       1.028   9.560  -0.144  0.00  0.00    +0.031 C 
ATOM     35  C   UNL     1       1.591   8.789   1.077  0.00  0.00    +0.160 C 
ATOM     36  O   UNL     1       0.626   7.759   1.347  0.00  0.00    -0.373 OA
ENDBRANCH  31  32
ENDBRANCH  30  31
ENDBRANCH  28  30
ENDBRANCH   3  28
TORSDOF 7
