REMARK  Name = ZINC02747101
REMARK  12 active torsions:
REMARK  status: ('A' for Active; 'I' for Inactive)
REMARK    1  A    between atoms: C_1  and  C_2
REMARK    2  A    between atoms: C_3  and  N_34
REMARK    3  A    between atoms: C_4  and  C_33
REMARK    4  A    between atoms: N_5  and  C_7
REMARK    5  A    between atoms: C_7  and  C_8
REMARK    6  A    between atoms: C_11  and  C_13
REMARK    7  A    between atoms: N_15  and  C_16
REMARK    8  A    between atoms: C_17  and  C_30
REMARK    9  A    between atoms: C_22  and  C_26
REMARK   10  A    between atoms: C_26  and  C_27
REMARK   11  A    between atoms: C_26  and  C_28
REMARK   12  A    between atoms: C_26  and  C_29
REMARK                            x       y       z     vdW  Elec       q    Type
REMARK                         _______ _______ _______ _____ _____    ______ ____
ROOT
ATOM      1  C   UNL     1       3.560   0.619  -0.029  0.00  0.00    +0.284 C 
ATOM      2  O   UNL     1       4.194   1.658  -0.029  0.00  0.00    -0.266 OA
ATOM      3  N   UNL     1       4.206  -0.564  -0.042  0.00  0.00    -0.273 N 
ATOM      4  H   UNL     1       3.700  -1.392  -0.042  0.00  0.00    +0.156 HD
ENDROOT
BRANCH   3   5
ATOM      5  C   UNL     1       5.590  -0.598  -0.055  0.00  0.00    +0.085 A 
ATOM      6  C   UNL     1       6.426  -1.706  -0.064  0.00  0.00    +0.068 A 
ATOM      7  C   UNL     1       7.859  -1.466  -0.082  0.00  0.00    -0.023 A 
ATOM      8  C   UNL     1       8.225  -0.165  -0.078  0.00  0.00    -0.004 A 
ATOM      9  S   UNL     1       6.699   0.733  -0.057  0.00  0.00    -0.077 S 
ATOM     10  C   UNL     1       9.619   0.381  -0.089  0.00  0.00    +0.046 C 
ATOM     11  C   UNL     1      10.579  -0.751  -0.485  0.00  0.00    -0.000 C 
ATOM     12  C   UNL     1      10.247  -1.992   0.347  0.00  0.00    +0.009 C 
ATOM     13  C   UNL     1       8.904  -2.574  -0.099  0.00  0.00    +0.037 C 
BRANCH   6  14
ATOM     14  C   UNL     1       5.884  -3.068  -0.059  0.00  0.00    +0.244 C 
ATOM     15  O   UNL     1       5.649  -3.632  -1.112  0.00  0.00    -0.270 OA
ATOM     16  N   UNL     1       5.645  -3.694   1.110  0.00  0.00    -0.325 N 
ATOM     17  H   UNL     1       5.832  -3.244   1.948  0.00  0.00    +0.145 HD
ATOM     18  H   UNL     1       5.286  -4.595   1.113  0.00  0.00    +0.145 HD
ENDBRANCH   6  14
BRANCH  11  19
ATOM     19  C   UNL     1      12.021  -0.320  -0.211  0.00  0.00    -0.035 C 
ATOM     20  C   UNL     1      12.973  -1.455  -0.590  0.00  0.00    +0.011 C 
ATOM     21  C   UNL     1      12.349   0.921  -1.044  0.00  0.00    +0.011 C 
ATOM     22  C   UNL     1      12.182   0.007   1.275  0.00  0.00    +0.011 C 
ENDBRANCH  11  19
ENDBRANCH   3   5
BRANCH   1  26
ATOM     23  C   UNL     1       0.002  -0.004   0.002  0.00  0.00    +0.127 A 
ATOM     24  C   UNL     1      -0.016   1.347   0.009  0.00  0.00    +0.047 A 
ATOM     25  C   UNL     1       1.319   1.779  -0.001  0.00  0.00    +0.055 A 
ATOM     26  C   UNL     1       2.095   0.654  -0.014  0.00  0.00    +0.190 A 
ATOM     27  O   UNL     1       1.276  -0.418  -0.012  0.00  0.00    -0.453 OA
BRANCH  23  28
ATOM     28  C   UNL     1      -1.211  -0.898   0.009  0.00  0.00    +0.218 C 
BRANCH  28  33
ATOM     29  C   UNL     1      -1.566  -3.121  -4.478  0.00  0.00    +0.070 C 
ATOM     30  C   UNL     1      -1.757  -2.169  -3.325  0.00  0.00    +0.090 A 
ATOM     31  C   UNL     1      -2.589  -1.044  -3.320  0.00  0.00    +0.169 A 
ATOM     32  C   UNL     1      -2.489  -0.458  -2.105  0.00  0.00    +0.067 A 
ATOM     33  N   UNL     1      -1.617  -1.181  -1.370  0.00  0.00    -0.259 N 
ATOM     34  N   UNL     1      -1.174  -2.251  -2.157  0.00  0.00    -0.174 NA
ATOM     35  C   UNL     1      -3.217   0.781  -1.653  0.00  0.00    +0.068 C 
BRANCH  31  36
ATOM     36  N   UNL     1      -3.434  -0.581  -4.444  0.00  0.00    +0.060 N 
ATOM     37  O   UNL     1      -4.579  -0.983  -4.550  0.00  0.00    -0.126 OA
ATOM     38  O   UNL     1      -2.985   0.201  -5.261  0.00  0.00    -0.126 OA
ENDBRANCH  31  36
ENDBRANCH  28  33
ENDBRANCH  23  28
ENDBRANCH   1  26
TORSDOF 7
