REMARK  Name = ZINC11591353
REMARK  8 active torsions:
REMARK  status: ('A' for Active; 'I' for Inactive)
REMARK    1  A    between atoms: C_1  and  C_2
REMARK    2  A    between atoms: C_2  and  C_3
REMARK    3  A    between atoms: C_3  and  C_4
REMARK    4  A    between atoms: C_4  and  C_6
REMARK    5  A    between atoms: C_4  and  C_27
REMARK    6  A    between atoms: C_6  and  N_7
REMARK    7  A    between atoms: C_8  and  C_10
REMARK    8  A    between atoms: C_10  and  N_11
REMARK                            x       y       z     vdW  Elec       q    Type
REMARK                         _______ _______ _______ _____ _____    ______ ____
ROOT
ATOM      1  C   UNL     1      -3.005  -2.360  -0.248  0.00  0.00    +0.213 C 
ENDROOT
BRANCH   1   2
ATOM      2  N   UNL     1      -2.986  -3.824  -0.256  0.00  0.00    -0.215 N 
ATOM      3  C   UNL     1      -2.894  -4.575  -1.373  0.00  0.00    +0.252 C 
ATOM      4  O   UNL     1      -2.816  -4.182  -2.517  0.00  0.00    -0.272 OA
ATOM      5  C   UNL     1      -2.908  -6.009  -0.897  0.00  0.00    +0.144 C 
ATOM      6  C   UNL     1      -4.112  -6.746  -1.474  0.00  0.00    +0.081 C 
ATOM      7  C   UNL     1      -3.948  -8.244  -1.179  0.00  0.00    +0.232 C 
ATOM      8  O   UNL     1      -2.788  -8.716  -1.865  0.00  0.00    -0.492 OA
ATOM      9  C   UNL     1      -1.634  -8.012  -1.730  0.00  0.00    +0.126 A 
ATOM     10  C   UNL     1      -1.629  -6.704  -1.273  0.00  0.00    +0.027 A 
ATOM     11  C   UNL     1      -0.431  -6.021  -1.157  0.00  0.00    +0.010 A 
ATOM     12  C   UNL     1       0.759  -6.638  -1.492  0.00  0.00    +0.001 A 
ATOM     13  C   UNL     1       0.758  -7.944  -1.944  0.00  0.00    +0.004 A 
ATOM     14  C   UNL     1      -0.434  -8.630  -2.063  0.00  0.00    +0.046 A 
ATOM     15  N   UNL     1      -3.023  -5.900   0.563  0.00  0.00    -0.281 N 
ATOM     16  C   UNL     1      -3.062  -4.584   0.844  0.00  0.00    +0.310 C 
ATOM     17  O   UNL     1      -3.155  -4.136   1.970  0.00  0.00    -0.252 OA
ATOM     18  H   UNL     1      -3.064  -6.632   1.199  0.00  0.00    +0.152 HD
ENDBRANCH   1   2
BRANCH   1  20
ATOM     19  N   UNL     1      -1.368  -0.510  -0.108  0.00  0.00    -0.313 N 
ATOM     20  C   UNL     1      -1.596  -1.839  -0.134  0.00  0.00    +0.231 C 
ATOM     21  O   UNL     1      -0.666  -2.615  -0.067  0.00  0.00    -0.274 OA
ATOM     22  H   UNL     1      -2.112   0.110  -0.162  0.00  0.00    +0.149 HD
BRANCH  19  23
ATOM     23  C   UNL     1       0.002  -0.004   0.002  0.00  0.00    +0.112 C 
BRANCH  23  24
ATOM     24  C   UNL     1      -0.019   1.526   0.010  0.00  0.00    +0.038 C 
BRANCH  24  25
ATOM     25  C   UNL     1       1.395   2.047  -0.000  0.00  0.00    -0.024 A 
ATOM     26  C   UNL     1       2.260   1.719   1.027  0.00  0.00    +0.007 A 
ATOM     27  C   UNL     1       3.557   2.197   1.018  0.00  0.00    +0.020 A 
ATOM     28  C   UNL     1       3.990   3.005  -0.019  0.00  0.00    +0.042 A 
ATOM     29  C   UNL     1       3.125   3.333  -1.047  0.00  0.00    +0.040 A 
ATOM     30  C   UNL     1       1.828   2.850  -1.041  0.00  0.00    +0.046 A 
ATOM     31 CL   UNL     1       0.744   3.255  -2.334  0.00  0.00    -0.083 Cl
ATOM     32 CL   UNL     1       5.619   3.605  -0.031  0.00  0.00    -0.083 Cl
ENDBRANCH  24  25
BRANCH  24  33
ATOM     33  C   UNL     1      -0.735   2.019   1.269  0.00  0.00    +0.009 C 
BRANCH  33  35
ATOM     34  C   UNL     1      -1.582   4.036   2.476  0.00  0.00    +0.004 C 
ATOM     35  C   UNL     1      -0.866   3.543   1.217  0.00  0.00    -0.003 C 
ENDBRANCH  33  35
ENDBRANCH  24  33
ENDBRANCH  23  24
ENDBRANCH  19  23
ENDBRANCH   1  20
TORSDOF 7
