REMARK  Name = ZINC35969987
REMARK  10 active torsions:
REMARK  status: ('A' for Active; 'I' for Inactive)
REMARK    1  A    between atoms: C_1  and  C_2
REMARK    2  A    between atoms: C_3  and  C_31
REMARK    3  A    between atoms: C_4  and  C_24
REMARK    4  A    between atoms: C_7  and  C_12
REMARK    5  A    between atoms: C_13  and  N_15
REMARK    6  A    between atoms: C_18  and  N_21
REMARK    7  A    between atoms: N_21  and  C_22
REMARK    8  A    between atoms: N_21  and  C_23
REMARK    9  A    between atoms: C_31  and  O_33
REMARK   10  A    between atoms: O_33  and  C_34
REMARK                            x       y       z     vdW  Elec       q    Type
REMARK                         _______ _______ _______ _____ _____    ______ ____
ROOT
ATOM      1  C   UNL     1      -0.290   1.471  -0.076  0.00  0.00    +0.066 C 
ATOM      2  C   UNL     1      -0.170  -0.031  -0.046  0.00  0.00    +0.053 C 
ATOM      3  C   UNL     1      -1.311  -0.810  -0.025  0.00  0.00    +0.083 C 
ATOM      4  C   UNL     1      -1.138  -2.312   0.004  0.00  0.00    +0.151 C 
ATOM      5  N   UNL     1       0.255  -2.833   0.007  0.00  0.00    -0.267 N 
ATOM      6  C   UNL     1       0.647  -4.157   0.031  0.00  0.00    +0.048 C 
ATOM      7  C   UNL     1       1.973  -4.418   0.029  0.00  0.00    +0.072 C 
ATOM      8  S   UNL     1       2.672  -2.779  -0.006  0.00  0.00    -0.060 S 
ATOM      9  C   UNL     1       1.247  -1.892  -0.016  0.00  0.00    +0.166 C 
ATOM     10  N   UNL     1       1.027  -0.594  -0.046  0.00  0.00    -0.230 NA
ENDROOT
BRANCH   4  11
ATOM     11  C   UNL     1      -1.831  -2.835   1.235  0.00  0.00    -0.004 A 
ATOM     12  C   UNL     1      -3.027  -3.519   1.118  0.00  0.00    +0.007 A 
ATOM     13  C   UNL     1      -3.663  -3.998   2.247  0.00  0.00    +0.000 A 
ATOM     14  C   UNL     1      -3.103  -3.795   3.495  0.00  0.00    +0.001 A 
ATOM     15  C   UNL     1      -1.908  -3.112   3.614  0.00  0.00    +0.020 A 
ATOM     16  C   UNL     1      -1.268  -2.637   2.483  0.00  0.00    +0.046 A 
ATOM     17 CL   UNL     1       0.237  -1.784   2.631  0.00  0.00    -0.083 Cl
ENDBRANCH   4  11
BRANCH   6  18
ATOM     18  C   UNL     1      -0.342  -5.243   0.058  0.00  0.00    +0.091 C 
ATOM     19  C   UNL     1       0.062  -6.518   0.218  0.00  0.00    +0.241 C 
ATOM     20  O   UNL     1       1.385  -6.811   0.247  0.00  0.00    -0.271 OA
BRANCH  19  21
ATOM     21  N   UNL     1      -0.875  -7.529   0.355  0.00  0.00    -0.298 N 
ATOM     22  C   UNL     1      -0.601  -8.694   1.208  0.00  0.00    +0.106 C 
ATOM     23  C   UNL     1      -0.811  -9.968   0.385  0.00  0.00    +0.004 C 
ATOM     24  C   UNL     1      -2.215  -9.952  -0.224  0.00  0.00    -0.066 C 
ATOM     25  C   UNL     1      -2.354  -8.746  -1.157  0.00  0.00    +0.004 C 
ATOM     26  C   UNL     1      -2.164  -7.455  -0.347  0.00  0.00    +0.106 C 
BRANCH  24  27
ATOM     27  N   UNL     1      -2.432 -11.188  -0.987  0.00  0.00    +0.378 N 
ATOM     28  C   UNL     1      -2.300 -12.345  -0.092  0.00  0.00    -0.096 C 
ATOM     29  C   UNL     1      -3.780 -11.172  -1.571  0.00  0.00    -0.096 C 
ATOM     30  H   UNL     1      -1.746 -11.253  -1.724  0.00  0.00    -0.082 HD
ENDBRANCH  24  27
ENDBRANCH  19  21
ENDBRANCH   6  18
BRANCH   3  31
ATOM     31  C   UNL     1      -2.584  -0.228  -0.030  0.00  0.00    +0.339 C 
ATOM     32  O   UNL     1      -2.702   0.982   0.055  0.00  0.00    -0.245 OA
BRANCH  31  33
ATOM     33  O   UNL     1      -3.683  -1.009  -0.130  0.00  0.00    -0.465 OA
ATOM     34  C   UNL     1      -4.950  -0.348  -0.129  0.00  0.00    +0.280 C 
ENDBRANCH  31  33
ENDBRANCH   3  31
TORSDOF 6
