REMARK  Name = ZINC40850396
REMARK  9 active torsions:
REMARK  status: ('A' for Active; 'I' for Inactive)
REMARK    1  A    between atoms: C_1  and  C_2
REMARK    2  A    between atoms: C_4  and  C_33
REMARK    3  A    between atoms: C_9  and  C_27
REMARK    4  A    between atoms: C_11  and  S_13
REMARK    5  A    between atoms: S_13  and  C_14
REMARK    6  A    between atoms: C_14  and  C_15
REMARK    7  A    between atoms: C_15  and  C_16
REMARK    8  A    between atoms: N_18  and  C_19
REMARK    9  A    between atoms: C_23  and  C_25
REMARK                            x       y       z     vdW  Elec       q    Type
REMARK                         _______ _______ _______ _____ _____    ______ ____
ROOT
ATOM      1  C   UNL     1      -0.063   1.501   0.012  0.00  0.00    +0.067 C 
ATOM      2  C   UNL     1      -0.033  -0.005   0.003  0.00  0.00    +0.061 A 
ATOM      3  C   UNL     1      -0.027  -0.818  -1.137  0.00  0.00    +0.048 A 
ATOM      4  C   UNL     1       0.003  -2.107  -0.730  0.00  0.00    +0.045 A 
ATOM      5  N   UNL     1       0.016  -2.109   0.629  0.00  0.00    -0.202 N 
ATOM      6  N   UNL     1      -0.002  -0.776   1.059  0.00  0.00    -0.169 NA
ATOM      7  C   UNL     1       0.046  -3.237   1.450  0.00  0.00    +0.253 A 
ATOM      8  N   UNL     1       0.050  -3.077   2.762  0.00  0.00    -0.211 NA
ATOM      9  C   UNL     1       0.079  -4.131   3.579  0.00  0.00    +0.077 A 
ATOM     10  C   UNL     1       0.105  -5.411   3.031  0.00  0.00    +0.063 A 
ATOM     11  C   UNL     1       0.100  -5.536   1.641  0.00  0.00    +0.103 A 
ATOM     12  N   UNL     1       0.065  -4.437   0.893  0.00  0.00    -0.204 NA
ATOM     13  C   UNL     1       0.018  -3.322  -1.622  0.00  0.00    +0.066 C 
ENDROOT
BRANCH   9  14
ATOM     14  C   UNL     1       0.084  -3.942   5.050  0.00  0.00    +0.001 A 
ATOM     15  C   UNL     1       0.120  -5.048   5.897  0.00  0.00    +0.010 A 
ATOM     16  C   UNL     1       0.124  -4.867   7.265  0.00  0.00    +0.001 A 
ATOM     17  C   UNL     1       0.093  -3.590   7.796  0.00  0.00    +0.000 A 
ATOM     18  C   UNL     1       0.057  -2.488   6.960  0.00  0.00    +0.001 A 
ATOM     19  C   UNL     1       0.058  -2.658   5.590  0.00  0.00    +0.010 A 
ENDBRANCH   9  14
BRANCH  11  20
ATOM     20  S   UNL     1       0.133  -7.129   0.888  0.00  0.00    -0.105 S 
BRANCH  20  21
ATOM     21  C   UNL     1       0.114  -6.774  -0.890  0.00  0.00    +0.085 C 
BRANCH  21  22
ATOM     22  C   UNL     1       0.140  -8.088  -1.673  0.00  0.00    +0.107 C 
BRANCH  22  23
ATOM     23  C   UNL     1       0.124  -7.793  -3.151  0.00  0.00    +0.218 C 
ATOM     24  O   UNL     1       0.096  -6.645  -3.540  0.00  0.00    -0.275 OA
ATOM     25  N   UNL     1       0.142  -8.806  -4.040  0.00  0.00    -0.285 N 
ATOM     26  H   UNL     1       0.233  -9.721  -3.732  0.00  0.00    +0.155 HD
BRANCH  25  27
ATOM     27  C   UNL     1       0.031  -8.536  -5.409  0.00  0.00    +0.035 A 
ATOM     28  C   UNL     1      -0.658  -9.416  -6.237  0.00  0.00    +0.023 A 
ATOM     29  C   UNL     1      -0.771  -9.155  -7.589  0.00  0.00    +0.003 A 
ATOM     30  C   UNL     1      -0.202  -8.019  -8.128  0.00  0.00    +0.019 A 
ATOM     31  C   UNL     1       0.491  -7.129  -7.305  0.00  0.00    +0.054 A 
ATOM     32  C   UNL     1       0.602  -7.390  -5.939  0.00  0.00    +0.042 A 
BRANCH  31  33
ATOM     33  C   UNL     1       1.083  -5.949  -7.861  0.00  0.00    +0.099 C 
ATOM     34  N   UNL     1       1.552  -5.013  -8.302  0.00  0.00    -0.191 NA
ENDBRANCH  31  33
ENDBRANCH  25  27
ENDBRANCH  22  23
ENDBRANCH  21  22
ENDBRANCH  20  21
ENDBRANCH  11  20
TORSDOF 7
