REMARK  Name = ZINC39697091
REMARK  7 active torsions:
REMARK  status: ('A' for Active; 'I' for Inactive)
REMARK    1  A    between atoms: C_1  and  C_2
REMARK    2  A    between atoms: C_5  and  C_8
REMARK    3  A    between atoms: C_8  and  N_9
REMARK    4  A    between atoms: C_10  and  C_12
REMARK    5  A    between atoms: C_23  and  C_25
REMARK    6  A    between atoms: C_30  and  O_31
REMARK    7  A    between atoms: O_31  and  C_32
REMARK                            x       y       z     vdW  Elec       q    Type
REMARK                         _______ _______ _______ _____ _____    ______ ____
ROOT
ATOM      1  C   UNL     1      -2.383  -6.579  -0.396  0.00  0.00    +0.100 C 
ATOM      2  C   UNL     1      -3.223  -6.009  -1.561  0.00  0.00    +0.121 C 
ATOM      3  N   UNL     1      -3.195  -7.069  -2.597  0.00  0.00    -0.296 N 
ATOM      4  C   UNL     1      -3.306  -8.334  -1.833  0.00  0.00    +0.115 C 
ATOM      5  C   UNL     1      -2.443  -8.105  -0.576  0.00  0.00    -0.004 C 
ATOM      6  C   UNL     1      -1.041  -8.667  -0.790  0.00  0.00    -0.010 C 
ATOM      7  C   UNL     1      -1.120 -10.191  -0.910  0.00  0.00    -0.082 C 
ATOM      8  N   UNL     1      -1.710 -10.749   0.313  0.00  0.00    +0.379 N 
ATOM      9  C   UNL     1      -3.092 -10.277   0.463  0.00  0.00    -0.082 C 
ATOM     10  C   UNL     1      -3.096  -8.755   0.639  0.00  0.00    -0.010 C 
ATOM     11  C   UNL     1      -3.091  -6.917  -3.932  0.00  0.00    +0.252 C 
ATOM     12  O   UNL     1      -3.176  -7.885  -4.663  0.00  0.00    -0.270 OA
ATOM     13  H   UNL     1      -1.706 -11.757   0.257  0.00  0.00    -0.086 HD
ATOM     14  H   UNL     1      -1.168 -10.457   1.111  0.00  0.00    -0.086 HD
ENDROOT
BRANCH  11  15
ATOM     15  C   UNL     1      -2.873  -5.575  -4.507  0.00  0.00    +0.099 A 
ATOM     16  C   UNL     1      -3.452  -4.445  -3.917  0.00  0.00    +0.020 A 
ATOM     17  C   UNL     1      -3.218  -3.210  -4.494  0.00  0.00    +0.021 A 
ATOM     18  C   UNL     1      -2.426  -3.127  -5.626  0.00  0.00    +0.114 A 
ATOM     19  N   UNL     1      -1.891  -4.205  -6.165  0.00  0.00    -0.220 NA
ATOM     20  C   UNL     1      -2.078  -5.409  -5.650  0.00  0.00    +0.233 A 
BRANCH  20  21
ATOM     21  O   UNL     1      -1.504  -6.487  -6.234  0.00  0.00    -0.437 OA
BRANCH  21  22
ATOM     22  C   UNL     1      -0.824  -6.298  -7.395  0.00  0.00    +0.130 A 
ATOM     23  C   UNL     1      -1.404  -6.648  -8.606  0.00  0.00    +0.046 A 
ATOM     24  C   UNL     1      -0.711  -6.455  -9.785  0.00  0.00    +0.004 A 
ATOM     25  C   UNL     1       0.561  -5.912  -9.759  0.00  0.00    +0.000 A 
ATOM     26  C   UNL     1       1.142  -5.563  -8.554  0.00  0.00    +0.004 A 
ATOM     27  C   UNL     1       0.450  -5.749  -7.372  0.00  0.00    +0.046 A 
ENDBRANCH  21  22
ENDBRANCH  20  21
ENDBRANCH  11  15
BRANCH   1  29
ATOM     28  N   UNL     1      -0.218  -5.960   0.627  0.00  0.00    -0.309 N 
ATOM     29  C   UNL     1      -0.960  -6.094  -0.490  0.00  0.00    +0.219 C 
ATOM     30  O   UNL     1      -0.480  -5.826  -1.571  0.00  0.00    -0.275 OA
ATOM     31  H   UNL     1      -0.602  -6.174   1.492  0.00  0.00    +0.149 HD
BRANCH  28  32
ATOM     32  C   UNL     1       1.166  -5.489   0.536  0.00  0.00    +0.161 C 
BRANCH  32  37
ATOM     33  C   UNL     1       3.457  -5.305   5.739  0.00  0.00    +0.067 C 
ATOM     34  C   UNL     1       2.855  -5.367   4.359  0.00  0.00    +0.056 A 
ATOM     35  C   UNL     1       2.113  -4.301   3.879  0.00  0.00    +0.134 A 
ATOM     36  N   UNL     1       1.586  -4.356   2.669  0.00  0.00    -0.255 NA
ATOM     37  C   UNL     1       1.768  -5.427   1.917  0.00  0.00    +0.076 A 
ATOM     38  C   UNL     1       2.509  -6.492   2.396  0.00  0.00    +0.136 A 
ATOM     39  N   UNL     1       3.041  -6.435   3.605  0.00  0.00    -0.257 NA
ENDBRANCH  32  37
ENDBRANCH  28  32
ENDBRANCH   1  29
TORSDOF 6
