REMARK  Name = ZINC13273315
REMARK  8 active torsions:
REMARK  status: ('A' for Active; 'I' for Inactive)
REMARK    1  A    between atoms: C_3  and  S_21
REMARK    2  A    between atoms: C_4  and  N_18
REMARK    3  A    between atoms: C_6  and  S_7
REMARK    4  A    between atoms: S_7  and  N_10
REMARK    5  A    between atoms: C_13  and  C_16
REMARK    6  A    between atoms: S_21  and  C_22
REMARK    7  A    between atoms: C_25  and  C_30
REMARK    8  A    between atoms: N_26  and  C_27
REMARK                            x       y       z     vdW  Elec       q    Type
REMARK                         _______ _______ _______ _____ _____    ______ ____
ROOT
ATOM      1  C   UNL     1       3.360   6.805   1.886  0.00  0.00    +0.030 A 
ATOM      2  C   UNL     1       2.625   5.691   1.532  0.00  0.00    +0.019 A 
ATOM      3  C   UNL     1       1.266   5.637   1.817  0.00  0.00    +0.046 A 
ATOM      4  C   UNL     1       0.654   6.702   2.467  0.00  0.00    +0.142 A 
ATOM      5  C   UNL     1       1.396   7.810   2.823  0.00  0.00    +0.062 A 
ATOM      6  C   UNL     1       2.748   7.862   2.533  0.00  0.00    +0.108 A 
ENDROOT
BRANCH   6   7
ATOM      7  S   UNL     1       3.691   9.279   2.990  0.00  0.00    +0.061 S 
ATOM      8  O   UNL     1       4.815   9.315   2.122  0.00  0.00    -0.153 OA
ATOM      9  O   UNL     1       2.775  10.360   3.096  0.00  0.00    -0.153 OA
BRANCH   7  10
ATOM     10  N   UNL     1       4.278   9.005   4.514  0.00  0.00    -0.177 NA
ATOM     11  C   UNL     1       3.511   9.417   5.697  0.00  0.00    +0.110 C 
ATOM     12  C   UNL     1       4.398  10.285   6.588  0.00  0.00    +0.032 C 
ATOM     13  C   UNL     1       5.690   9.529   6.908  0.00  0.00    +0.105 C 
ATOM     14  C   UNL     1       6.446   9.236   5.610  0.00  0.00    +0.032 C 
ATOM     15  C   UNL     1       5.580   8.351   4.708  0.00  0.00    +0.110 C 
BRANCH  13  16
ATOM     16  C   UNL     1       6.553  10.371   7.812  0.00  0.00    +0.359 C 
ATOM     17  O   UNL     1       7.659  10.702   7.455  0.00  0.00    -0.246 OA
ATOM     18  O   UNL     1       6.093  10.754   9.014  0.00  0.00    -0.246 OA
ENDBRANCH  13  16
ENDBRANCH   7  10
ENDBRANCH   6   7
BRANCH   4  19
ATOM     19  N   UNL     1      -0.792   6.648   2.777  0.00  0.00    +0.058 N 
ATOM     20  O   UNL     1      -1.329   7.581   3.348  0.00  0.00    -0.126 OA
ATOM     21  O   UNL     1      -1.447   5.670   2.463  0.00  0.00    -0.126 OA
ENDBRANCH   4  19
BRANCH   3  22
ATOM     22  S   UNL     1       0.323   4.221   1.360  0.00  0.00    -0.048 S 
BRANCH  22  23
ATOM     23  C   UNL     1      -0.500   4.848  -0.066  0.00  0.00    +0.197 A 
ATOM     24  N   UNL     1      -0.312   6.021  -0.623  0.00  0.00    -0.122 NA
ATOM     25  N   UNL     1      -1.080   6.147  -1.645  0.00  0.00    -0.133 NA
ATOM     26  C   UNL     1      -1.794   5.069  -1.804  0.00  0.00    +0.137 A 
ATOM     27  N   UNL     1      -1.454   4.205  -0.801  0.00  0.00    -0.302 N 
BRANCH  27  28
ATOM     28  C   UNL     1      -1.997   2.864  -0.566  0.00  0.00    +0.091 C 
ATOM     29  C   UNL     1      -1.205   1.932   0.353  0.00  0.00    +0.027 C 
ATOM     30  C   UNL     1      -2.519   2.549   0.837  0.00  0.00    +0.027 C 
ENDBRANCH  27  28
BRANCH  26  31
ATOM     31  C   UNL     1      -2.808   4.821  -2.891  0.00  0.00    +0.057 C 
ATOM     32  C   UNL     1      -2.885   5.839  -4.031  0.00  0.00    +0.012 C 
ATOM     33  C   UNL     1      -3.997   5.780  -2.980  0.00  0.00    +0.012 C 
ENDBRANCH  26  31
ENDBRANCH  22  23
ENDBRANCH   3  22
TORSDOF 8
