REMARK  Name = ZINC36227358
REMARK  5 active torsions:
REMARK  status: ('A' for Active; 'I' for Inactive)
REMARK    1  A    between atoms: C_1  and  C_2
REMARK    2  A    between atoms: C_10  and  C_11
REMARK    3  A    between atoms: N_13  and  C_14
REMARK    4  A    between atoms: C_19  and  C_24
REMARK    5  A    between atoms: C_21  and  C_23
REMARK                            x       y       z     vdW  Elec       q    Type
REMARK                         _______ _______ _______ _____ _____    ______ ____
ROOT
ATOM      1  C   UNL     1       0.554   1.501  -0.103  0.00  0.00    +0.046 C 
ATOM      2  C   UNL     1       0.522  -0.006  -0.101  0.00  0.00    -0.019 A 
ATOM      3  C   UNL     1       0.151  -0.702  -1.259  0.00  0.00    +0.051 A 
ATOM      4  C   UNL     1      -0.231  -0.192  -2.536  0.00  0.00    +0.133 A 
ATOM      5  N   UNL     1      -0.546  -1.040  -3.501  0.00  0.00    -0.220 NA
ATOM      6  C   UNL     1      -0.521  -2.349  -3.326  0.00  0.00    +0.224 A 
ATOM      7  N   UNL     1      -0.176  -2.882  -2.170  0.00  0.00    -0.228 NA
ATOM      8  C   UNL     1       0.154  -2.114  -1.152  0.00  0.00    +0.114 A 
ATOM      9  S   UNL     1       0.664  -2.396   0.524  0.00  0.00    -0.064 S 
ATOM     10  C   UNL     1       0.859  -0.694   1.024  0.00  0.00    +0.079 A 
ATOM     11  N   UNL     1      -0.271   1.169  -2.761  0.00  0.00    -0.310 N 
ATOM     12  C   UNL     1       0.943   1.923  -3.115  0.00  0.00    +0.111 C 
ATOM     13  C   UNL     1       0.755   2.480  -4.526  0.00  0.00    +0.054 C 
ATOM     14  C   UNL     1      -0.592   3.138  -4.668  0.00  0.00    -0.041 A 
ATOM     15  C   UNL     1      -0.759   4.046  -5.706  0.00  0.00    +0.004 A 
ATOM     16  C   UNL     1      -1.970   4.677  -5.898  0.00  0.00    +0.000 A 
ATOM     17  C   UNL     1      -3.030   4.404  -5.053  0.00  0.00    +0.000 A 
ATOM     18  C   UNL     1      -2.866   3.505  -4.019  0.00  0.00    +0.005 A 
ATOM     19  C   UNL     1      -1.645   2.874  -3.821  0.00  0.00    -0.027 A 
ATOM     20  C   UNL     1      -1.526   1.922  -2.663  0.00  0.00    +0.142 C 
ENDROOT
BRANCH  10  21
ATOM     21  C   UNL     1       1.279  -0.166   2.328  0.00  0.00    +0.251 C 
ATOM     22  O   UNL     1       1.359   1.036   2.501  0.00  0.00    -0.270 OA
ATOM     23  N   UNL     1       1.575  -1.012   3.334  0.00  0.00    -0.308 N 
ATOM     24  H   UNL     1       1.511  -1.970   3.197  0.00  0.00    +0.149 HD
BRANCH  23  25
ATOM     25  C   UNL     1       1.993  -0.485   4.636  0.00  0.00    +0.076 C 
ATOM     26  C   UNL     1       3.499  -0.214   4.616  0.00  0.00    +0.022 C 
ATOM     27  C   UNL     1       3.936   0.336   5.975  0.00  0.00    +0.002 C 
ATOM     28  C   UNL     1       3.616  -0.687   7.066  0.00  0.00    +0.003 C 
ATOM     29  C   UNL     1       2.111  -0.959   7.086  0.00  0.00    -0.009 C 
ATOM     30  C   UNL     1       1.674  -1.509   5.727  0.00  0.00    +0.009 C 
ATOM     31  C   UNL     1       2.423  -2.812   5.440  0.00  0.00    +0.009 C 
ATOM     32  C   UNL     1       1.791  -1.982   8.178  0.00  0.00    +0.008 C 
ENDBRANCH  23  25
ENDBRANCH  10  21
TORSDOF 2
