REMARK  Name = ZINC54946336
REMARK  12 active torsions:
REMARK  status: ('A' for Active; 'I' for Inactive)
REMARK    1  A    between atoms: C_1  and  C_2
REMARK    2  A    between atoms: C_5  and  O_28
REMARK    3  A    between atoms: C_6  and  N_8
REMARK    4  A    between atoms: C_9  and  C_11
REMARK    5  A    between atoms: N_13  and  C_14
REMARK    6  A    between atoms: C_14  and  C_15
REMARK    7  A    between atoms: C_15  and  C_16
REMARK    8  A    between atoms: C_15  and  C_17
REMARK    9  A    between atoms: C_15  and  N_18
REMARK   10  A    between atoms: C_20  and  C_27
REMARK   11  A    between atoms: C_23  and  C_26
REMARK   12  A    between atoms: O_28  and  C_29
REMARK                            x       y       z     vdW  Elec       q    Type
REMARK                         _______ _______ _______ _____ _____    ______ ____
ROOT
ATOM      1  C   UNL     1      -1.507  -4.532   6.249  0.00  0.00    +0.299 C 
ATOM      2  O   UNL     1      -0.674  -4.758   5.396  0.00  0.00    -0.265 OA
ATOM      3  N   UNL     1      -1.323  -3.520   7.120  0.00  0.00    -0.309 N 
ATOM      4  H   UNL     1      -1.989  -3.340   7.802  0.00  0.00    +0.149 HD
ENDROOT
BRANCH   1   6
ATOM      5  N   UNL     1      -2.919  -6.390   5.464  0.00  0.00    -0.275 N 
ATOM      6  C   UNL     1      -2.735  -5.377   6.335  0.00  0.00    +0.303 C 
ATOM      7  O   UNL     1      -3.569  -5.152   7.188  0.00  0.00    -0.265 OA
ATOM      8  H   UNL     1      -2.227  -6.606   4.819  0.00  0.00    +0.155 HD
BRANCH   5  14
ATOM      9  C   UNL     1      -6.614  -8.369   8.031  0.00  0.00    +0.044 C 
ATOM     10  C   UNL     1      -5.920  -8.103   6.720  0.00  0.00    -0.048 A 
ATOM     11  C   UNL     1      -6.459  -8.591   5.544  0.00  0.00    +0.007 A 
ATOM     12  C   UNL     1      -5.827  -8.350   4.338  0.00  0.00    +0.048 A 
ATOM     13  C   UNL     1      -4.650  -7.620   4.305  0.00  0.00    +0.141 A 
ATOM     14  C   UNL     1      -4.106  -7.128   5.490  0.00  0.00    +0.076 A 
ATOM     15  C   UNL     1      -4.750  -7.369   6.697  0.00  0.00    +0.030 A 
BRANCH  13  16
ATOM     16  O   UNL     1      -4.027  -7.383   3.120  0.00  0.00    -0.493 OA
ATOM     17  C   UNL     1      -4.642  -7.918   1.946  0.00  0.00    +0.277 C 
ENDBRANCH  13  16
ENDBRANCH   5  14
ENDBRANCH   1   6
BRANCH   3  18
ATOM     18  C   UNL     1      -0.118  -2.691   7.036  0.00  0.00    +0.092 C 
BRANCH  18  19
ATOM     19  C   UNL     1      -0.096  -1.704   8.204  0.00  0.00    -0.055 C 
ATOM     20  C   UNL     1      -0.065  -2.477   9.525  0.00  0.00    -0.008 C 
ATOM     21  C   UNL     1       1.149  -0.820   8.102  0.00  0.00    -0.008 C 
BRANCH  19  22
ATOM     22  N   UNL     1      -1.299  -0.863   8.158  0.00  0.00    +0.384 N 
ATOM     23  C   UNL     1      -1.385  -0.206   6.848  0.00  0.00    -0.075 C 
ATOM     24  C   UNL     1      -2.679   0.607   6.764  0.00  0.00    -0.031 C 
ATOM     25  C   UNL     1      -2.680   1.667   7.869  0.00  0.00    +0.003 C 
ATOM     26  C   UNL     1      -2.516   0.977   9.226  0.00  0.00    -0.031 C 
ATOM     27  C   UNL     1      -1.228   0.150   9.218  0.00  0.00    -0.075 C 
ATOM     28  C   UNL     1      -2.439   2.033  10.331  0.00  0.00    +0.005 C 
ATOM     29  C   UNL     1      -2.765   1.291   5.398  0.00  0.00    +0.005 C 
ATOM     30  H   UNL     1      -2.116  -1.438   8.297  0.00  0.00    -0.081 HD
ENDBRANCH  19  22
ENDBRANCH  18  19
ENDBRANCH   3  18
TORSDOF 6
