REMARK  Name = ZINC61669245
REMARK  5 active torsions:
REMARK  status: ('A' for Active; 'I' for Inactive)
REMARK    1  A    between atoms: C_1  and  O_2
REMARK    2  A    between atoms: O_2  and  C_3
REMARK    3  A    between atoms: C_6  and  C_10
REMARK    4  A    between atoms: C_12  and  C_15
REMARK    5  A    between atoms: C_18  and  N_21
REMARK                            x       y       z     vdW  Elec       q    Type
REMARK                         _______ _______ _______ _____ _____    ______ ____
ROOT
ATOM      1  C   UNL     1       2.494  -2.490  -4.363  0.00  0.00    +0.259 A 
ATOM      2  N   UNL     1       2.603  -3.785  -4.553  0.00  0.00    -0.187 NA
ATOM      3  C   UNL     1       3.257  -4.025  -5.700  0.00  0.00    +0.202 A 
ATOM      4  N   UNL     1       3.572  -2.880  -6.256  0.00  0.00    -0.056 NA
ATOM      5  O   UNL     1       3.077  -1.862  -5.399  0.00  0.00    -0.332 OA
ENDROOT
BRANCH   1   9
ATOM      6  C   UNL     1       0.606  -0.607  -1.055  0.00  0.00    +0.155 A 
ATOM      7  C   UNL     1       1.172   0.165  -2.061  0.00  0.00    +0.049 A 
ATOM      8  C   UNL     1       1.786  -0.443  -3.136  0.00  0.00    +0.017 A 
ATOM      9  C   UNL     1       1.837  -1.836  -3.213  0.00  0.00    +0.042 A 
ATOM     10  C   UNL     1       1.267  -2.610  -2.199  0.00  0.00    +0.055 A 
ATOM     11  C   UNL     1       0.659  -1.995  -1.125  0.00  0.00    +0.165 A 
ATOM     12  F   UNL     1       0.111  -2.742  -0.141  0.00  0.00    -0.202 F 
BRANCH   6  14
ATOM     13  C   UNL     1      -0.017   1.425   0.010  0.00  0.00    +0.277 C 
ATOM     14  O   UNL     1       0.002  -0.004   0.002  0.00  0.00    -0.492 OA
ENDBRANCH   6  14
ENDBRANCH   1   9
BRANCH   3  15
ATOM     15  C   UNL     1       3.571  -5.367  -6.250  0.00  0.00    +0.023 A 
ATOM     16  C   UNL     1       3.175  -6.513  -5.563  0.00  0.00    +0.013 A 
ATOM     17  C   UNL     1       3.468  -7.758  -6.075  0.00  0.00    +0.023 A 
ATOM     18  C   UNL     1       4.159  -7.872  -7.276  0.00  0.00    +0.025 A 
ATOM     19  C   UNL     1       4.556  -6.730  -7.963  0.00  0.00    +0.023 A 
ATOM     20  C   UNL     1       4.259  -5.483  -7.457  0.00  0.00    +0.013 A 
BRANCH  18  21
ATOM     21  N   UNL     1       4.455  -9.133  -7.792  0.00  0.00    -0.358 N 
ATOM     22  H   UNL     1       4.179  -9.930  -7.314  0.00  0.00    +0.142 HD
ATOM     23  H   UNL     1       4.937  -9.213  -8.630  0.00  0.00    +0.142 HD
ENDBRANCH  18  21
ENDBRANCH   3  15
TORSDOF 4
