REMARK  Name = ZINC35001592
REMARK  13 active torsions:
REMARK  status: ('A' for Active; 'I' for Inactive)
REMARK    1  A    between atoms: C_1  and  C_2
REMARK    2  A    between atoms: C_2  and  C_3
REMARK    3  A    between atoms: C_3  and  C_4
REMARK    4  A    between atoms: C_4  and  C_5
REMARK    5  A    between atoms: N_7  and  C_8
REMARK    6  A    between atoms: N_7  and  C_26
REMARK    7  A    between atoms: C_8  and  C_9
REMARK    8  A    between atoms: C_11  and  N_23
REMARK    9  A    between atoms: C_14  and  S_15
REMARK   10  A    between atoms: S_15  and  C_16
REMARK   11  A    between atoms: C_19  and  C_22
REMARK   12  A    between atoms: N_29  and  C_32
REMARK   13  A    between atoms: C_32  and  C_33
REMARK                            x       y       z     vdW  Elec       q    Type
REMARK                         _______ _______ _______ _____ _____    ______ ____
ROOT
ATOM      1  C   UNL     1      -2.921  -2.582   0.095  0.00  0.00    +0.216 C 
ATOM      2  O   UNL     1      -3.882  -1.843   0.038  0.00  0.00    -0.276 OA
ATOM      3  N   UNL     1      -3.086  -3.912  -0.042  0.00  0.00    -0.294 N 
ENDROOT
BRANCH   3   4
ATOM      4  C   UNL     1      -1.956  -4.817   0.182  0.00  0.00    +0.073 C 
ATOM      5  C   UNL     1      -1.000  -4.748  -1.012  0.00  0.00    +0.004 C 
ATOM      6  C   UNL     1       0.217  -5.635  -0.737  0.00  0.00    -0.077 C 
ATOM      7  N   UNL     1       0.906  -5.164   0.471  0.00  0.00    +0.382 N 
ATOM      8  C   UNL     1       0.019  -5.294   1.633  0.00  0.00    -0.077 C 
ATOM      9  C   UNL     1      -1.205  -4.395   1.449  0.00  0.00    +0.004 C 
ATOM     10  H   UNL     1       1.165  -4.196   0.353  0.00  0.00    -0.081 HD
BRANCH   7  11
ATOM     11  C   UNL     1       2.116  -5.968   0.687  0.00  0.00    -0.043 C 
BRANCH  11  12
ATOM     12  C   UNL     1       2.889  -5.409   1.854  0.00  0.00    -0.064 A 
ATOM     13  C   UNL     1       3.847  -4.435   1.645  0.00  0.00    +0.002 A 
ATOM     14  C   UNL     1       4.556  -3.922   2.715  0.00  0.00    +0.000 A 
ATOM     15  C   UNL     1       4.306  -4.383   3.994  0.00  0.00    +0.000 A 
ATOM     16  C   UNL     1       3.347  -5.356   4.203  0.00  0.00    +0.000 A 
ATOM     17  C   UNL     1       2.635  -5.866   3.134  0.00  0.00    +0.002 A 
ENDBRANCH  11  12
ENDBRANCH   7  11
ENDBRANCH   3   4
BRANCH   1  18
ATOM     18  C   UNL     1      -1.544  -2.012   0.318  0.00  0.00    +0.096 C 
BRANCH  18  19
ATOM     19  C   UNL     1      -1.509  -0.559  -0.162  0.00  0.00    +0.009 C 
BRANCH  19  21
ATOM     20  C   UNL     1      -0.076   1.471  -0.416  0.00  0.00    +0.004 C 
ATOM     21  C   UNL     1      -0.111   0.019   0.064  0.00  0.00    -0.003 C 
ENDBRANCH  19  21
ENDBRANCH  18  19
ENDBRANCH   1  18
BRANCH   3  22
ATOM     22  C   UNL     1      -4.395  -4.454  -0.415  0.00  0.00    +0.144 C 
BRANCH  22  23
ATOM     23  C   UNL     1      -4.545  -4.417  -1.915  0.00  0.00    -0.014 A 
ATOM     24  C   UNL     1      -5.157  -3.338  -2.522  0.00  0.00    +0.039 A 
ATOM     25  C   UNL     1      -5.296  -3.304  -3.897  0.00  0.00    +0.127 A 
ATOM     26  C   UNL     1      -4.821  -4.349  -4.670  0.00  0.00    +0.034 A 
ATOM     27  C   UNL     1      -4.207  -5.430  -4.070  0.00  0.00    +0.017 A 
ATOM     28  C   UNL     1      -4.062  -5.466  -2.688  0.00  0.00    +0.018 A 
BRANCH  25  29
ATOM     29  N   UNL     1      -5.954  -2.147  -4.545  0.00  0.00    +0.056 N 
ATOM     30  O   UNL     1      -6.369  -1.233  -3.871  0.00  0.00    -0.126 OA
ATOM     31  O   UNL     1      -6.075  -2.115  -5.747  0.00  0.00    -0.126 OA
ENDBRANCH  25  29
BRANCH  28  32
ATOM     32  S   UNL     1      -3.273  -6.840  -1.918  0.00  0.00    -0.089 S 
BRANCH  32  33
ATOM     33  C   UNL     1      -2.739  -7.837  -3.269  0.00  0.00    +0.013 A 
ATOM     34  C   UNL     1      -1.450  -7.700  -3.769  0.00  0.00    +0.015 A 
ATOM     35  C   UNL     1      -1.035  -8.483  -4.828  0.00  0.00    +0.004 A 
ATOM     36  C   UNL     1      -1.901  -9.403  -5.391  0.00  0.00    -0.050 A 
ATOM     37  C   UNL     1      -3.185  -9.543  -4.896  0.00  0.00    +0.004 A 
ATOM     38  C   UNL     1      -3.605  -8.767  -3.833  0.00  0.00    +0.015 A 
ATOM     39  C   UNL     1      -1.445 -10.256  -6.547  0.00  0.00    +0.044 C 
ENDBRANCH  32  33
ENDBRANCH  28  32
ENDBRANCH  22  23
ENDBRANCH   3  22
TORSDOF 11
