REMARK  Name = ZINC09790527
REMARK  9 active torsions:
REMARK  status: ('A' for Active; 'I' for Inactive)
REMARK    1  A    between atoms: C_1  and  C_2
REMARK    2  A    between atoms: C_2  and  O_3
REMARK    3  A    between atoms: O_3  and  C_4
REMARK    4  A    between atoms: C_7  and  O_10
REMARK    5  A    between atoms: O_10  and  C_11
REMARK    6  A    between atoms: C_11  and  C_12
REMARK    7  A    between atoms: C_12  and  N_13
REMARK    8  A    between atoms: C_16  and  C_20
REMARK    9  A    between atoms: C_16  and  C_21
REMARK                            x       y       z     vdW  Elec       q    Type
REMARK                         _______ _______ _______ _____ _____    ______ ____
ROOT
ATOM      1  N   UNL     1       7.327   4.795   1.209  0.00  0.00    -0.221 N 
ATOM      2  C   UNL     1       6.781   6.013   1.394  0.00  0.00    +0.251 C 
ATOM      3  O   UNL     1       6.160   6.668   0.585  0.00  0.00    -0.272 OA
ATOM      4  C   UNL     1       7.104   6.393   2.826  0.00  0.00    +0.135 C 
ATOM      5  N   UNL     1       7.872   5.239   3.325  0.00  0.00    -0.281 N 
ATOM      6  C   UNL     1       7.950   4.360   2.310  0.00  0.00    +0.310 C 
ATOM      7  O   UNL     1       8.521   3.290   2.386  0.00  0.00    -0.252 OA
ATOM      8  C   UNL     1       5.823   6.581   3.642  0.00  0.00    +0.047 C 
ATOM      9  H   UNL     1       8.249   5.135   4.213  0.00  0.00    +0.152 HD
ENDROOT
BRANCH   4  10
ATOM     10  C   UNL     1       7.942   7.644   2.862  0.00  0.00    -0.012 A 
ATOM     11  C   UNL     1       7.742   8.635   1.919  0.00  0.00    +0.010 A 
ATOM     12  C   UNL     1       8.508   9.787   1.946  0.00  0.00    +0.050 A 
ATOM     13  C   UNL     1       9.476   9.945   2.924  0.00  0.00    +0.162 A 
ATOM     14  C   UNL     1       9.676   8.951   3.870  0.00  0.00    +0.162 A 
ATOM     15  C   UNL     1       8.905   7.801   3.843  0.00  0.00    +0.055 A 
ATOM     16  O   UNL     1      10.633   9.116   4.829  0.00  0.00    -0.488 OA
ATOM     17  C   UNL     1      11.986   9.099   4.371  0.00  0.00    +0.232 C 
ATOM     18  C   UNL     1      12.405  10.475   3.875  0.00  0.00    +0.082 C 
ATOM     19  C   UNL     1      11.620  10.911   2.647  0.00  0.00    +0.232 C 
ATOM     20  O   UNL     1      10.237  11.077   2.963  0.00  0.00    -0.488 OA
ENDBRANCH   4  10
BRANCH   1  21
ATOM     21  C   UNL     1       7.254   4.043  -0.046  0.00  0.00    +0.159 C 
BRANCH  21  22
ATOM     22  C   UNL     1       6.005   3.158  -0.038  0.00  0.00    +0.248 C 
BRANCH  22  23
ATOM     23  O   UNL     1       4.838   3.983  -0.023  0.00  0.00    -0.490 OA
BRANCH  23  27
ATOM     24  C   UNL     1       1.186   2.059   0.002  0.00  0.00    +0.121 A 
ATOM     25  C   UNL     1       2.359   1.319  -0.008  0.00  0.00    +0.049 A 
ATOM     26  C   UNL     1       3.581   1.963  -0.021  0.00  0.00    +0.049 A 
ATOM     27  C   UNL     1       3.635   3.349  -0.014  0.00  0.00    +0.121 A 
ATOM     28  C   UNL     1       2.462   4.088   0.001  0.00  0.00    +0.049 A 
ATOM     29  C   UNL     1       1.240   3.445   0.009  0.00  0.00    +0.049 A 
BRANCH  24  30
ATOM     30  O   UNL     1      -0.017   1.425   0.010  0.00  0.00    -0.492 OA
BRANCH  30  32
ATOM     31  C   UNL     1      -1.433  -0.534   0.013  0.00  0.00    +0.048 C 
ATOM     32  C   UNL     1       0.002  -0.004   0.002  0.00  0.00    +0.225 C 
ENDBRANCH  30  32
ENDBRANCH  24  30
ENDBRANCH  23  27
ENDBRANCH  22  23
ENDBRANCH  21  22
ENDBRANCH   1  21
TORSDOF 7
