REMARK  Name = ZINC34920406
REMARK  14 active torsions:
REMARK  status: ('A' for Active; 'I' for Inactive)
REMARK    1  A    between atoms: C_1  and  C_2
REMARK    2  A    between atoms: C_2  and  O_3
REMARK    3  A    between atoms: O_3  and  C_4
REMARK    4  A    between atoms: C_7  and  C_10
REMARK    5  A    between atoms: C_10  and  C_11
REMARK    6  A    between atoms: C_12  and  C_25
REMARK    7  A    between atoms: N_14  and  C_19
REMARK    8  A    between atoms: C_19  and  C_20
REMARK    9  A    between atoms: C_28  and  O_34
REMARK   10  A    between atoms: C_29  and  O_31
REMARK   11  A    between atoms: O_31  and  C_32
REMARK   12  A    between atoms: C_32  and  C_33
REMARK   13  A    between atoms: O_34  and  C_35
REMARK   14  A    between atoms: C_35  and  C_36
REMARK                            x       y       z     vdW  Elec       q    Type
REMARK                         _______ _______ _______ _____ _____    ______ ____
ROOT
ATOM      1  C   UNL     1      -3.427  -6.538   0.012  0.00  0.00    +0.076 C 
ATOM      2  C   UNL     1      -4.688  -5.705   0.028  0.00  0.00    +0.145 C 
ATOM      3  N   UNL     1      -5.803  -6.654   0.130  0.00  0.00    -0.276 N 
ATOM      4  C   UNL     1      -5.287  -7.896   0.170  0.00  0.00    +0.288 C 
ATOM      5  O   UNL     1      -5.938  -8.919   0.254  0.00  0.00    -0.266 OA
ATOM      6  C   UNL     1      -3.813  -7.833   0.092  0.00  0.00    +0.249 C 
ATOM      7  O   UNL     1      -2.981  -8.899   0.102  0.00  0.00    -0.282 OA
ENDROOT
BRANCH   2   8
ATOM      8  C   UNL     1      -4.683  -4.781   1.219  0.00  0.00    -0.019 A 
ATOM      9  C   UNL     1      -4.916  -5.286   2.485  0.00  0.00    +0.009 A 
ATOM     10  C   UNL     1      -4.913  -4.443   3.580  0.00  0.00    +0.050 A 
ATOM     11  C   UNL     1      -4.676  -3.088   3.410  0.00  0.00    +0.162 A 
ATOM     12  C   UNL     1      -4.441  -2.580   2.136  0.00  0.00    +0.162 A 
ATOM     13  C   UNL     1      -4.441  -3.432   1.043  0.00  0.00    +0.055 A 
BRANCH  12  14
ATOM     14  O   UNL     1      -4.208  -1.251   1.965  0.00  0.00    -0.489 OA
BRANCH  14  15
ATOM     15  C   UNL     1      -3.852  -0.820   0.650  0.00  0.00    +0.226 C 
ATOM     16  C   UNL     1      -3.516   0.673   0.676  0.00  0.00    +0.048 C 
ENDBRANCH  14  15
ENDBRANCH  12  14
BRANCH  11  17
ATOM     17  O   UNL     1      -4.673  -2.257   4.486  0.00  0.00    -0.484 OA
BRANCH  17  18
ATOM     18  C   UNL     1      -4.922  -2.848   5.763  0.00  0.00    +0.256 C 
BRANCH  18  19
ATOM     19  C   UNL     1      -4.880  -1.781   6.827  0.00  0.00    +0.006 C 
ATOM     20  C   UNL     1      -5.804  -1.745   7.755  0.00  0.00    +0.007 C 
ENDBRANCH  18  19
ENDBRANCH  17  18
ENDBRANCH  11  17
ENDBRANCH   2   8
BRANCH   1  21
ATOM     21  C   UNL     1      -2.051  -6.040  -0.079  0.00  0.00    +0.195 C 
ATOM     22  O   UNL     1      -1.287  -6.188   0.856  0.00  0.00    -0.287 OA
BRANCH  21  26
ATOM     23  C   UNL     1      -0.732  -4.080  -3.608  0.00  0.00    +0.121 A 
ATOM     24  C   UNL     1       0.119  -4.182  -2.513  0.00  0.00    +0.046 A 
ATOM     25  C   UNL     1      -0.305  -4.817  -1.367  0.00  0.00    +0.015 A 
ATOM     26  C   UNL     1      -1.593  -5.358  -1.306  0.00  0.00    +0.022 A 
ATOM     27  C   UNL     1      -2.445  -5.253  -2.409  0.00  0.00    +0.015 A 
ATOM     28  C   UNL     1      -2.015  -4.612  -3.549  0.00  0.00    +0.046 A 
BRANCH  23  29
ATOM     29  O   UNL     1      -0.311  -3.453  -4.736  0.00  0.00    -0.492 OA
BRANCH  29  31
ATOM     30  C   UNL     1       1.312  -2.264  -6.075  0.00  0.00    +0.048 C 
ATOM     31  C   UNL     1       1.019  -2.929  -4.729  0.00  0.00    +0.225 C 
ENDBRANCH  29  31
ENDBRANCH  23  29
ENDBRANCH  21  26
ENDBRANCH   1  21
BRANCH   3  32
ATOM     32  C   UNL     1      -7.226  -6.309   0.179  0.00  0.00    +0.183 C 
BRANCH  32  33
ATOM     33  C   UNL     1      -7.781  -6.264  -1.221  0.00  0.00    +0.122 A 
ATOM     34  C   UNL     1      -8.330  -7.298  -1.884  0.00  0.00    +0.046 A 
ATOM     35  C   UNL     1      -8.713  -6.813  -3.155  0.00  0.00    +0.041 A 
ATOM     36  C   UNL     1      -8.376  -5.512  -3.194  0.00  0.00    +0.195 A 
ATOM     37  O   UNL     1      -7.817  -5.183  -2.017  0.00  0.00    -0.466 OA
ENDBRANCH  32  33
ENDBRANCH   3  32
TORSDOF 12
