REMARK  Name = ZINC63513799
REMARK  7 active torsions:
REMARK  status: ('A' for Active; 'I' for Inactive)
REMARK    1  A    between atoms: C_7  and  C_10
REMARK    2  A    between atoms: C_10  and  C_11
REMARK    3  A    between atoms: C_11  and  N_12
REMARK    4  A    between atoms: C_13  and  C_15
REMARK    5  A    between atoms: C_15  and  N_16
REMARK    6  A    between atoms: N_30  and  C_31
REMARK    7  A    between atoms: C_31  and  C_32
REMARK                            x       y       z     vdW  Elec       q    Type
REMARK                         _______ _______ _______ _____ _____    ______ ____
ROOT
ATOM      1  N   UNL     1      -1.395  -6.566  -4.151  0.00  0.00    -0.212 N 
ATOM      2  C   UNL     1      -0.762  -7.652  -4.686  0.00  0.00    +0.257 C 
ATOM      3  O   UNL     1       0.123  -8.234  -4.096  0.00  0.00    -0.272 OA
ATOM      4  C   UNL     1      -1.229  -8.084  -6.056  0.00  0.00    +0.194 C 
ATOM      5  C   UNL     1      -2.747  -7.936  -6.058  0.00  0.00    +0.006 C 
ATOM      6  C   UNL     1      -3.347  -6.873  -5.507  0.00  0.00    +0.094 C 
ATOM      7  N   UNL     1      -2.452  -5.985  -4.889  0.00  0.00    -0.268 N 
ATOM      8  C   UNL     1      -3.257  -9.169  -6.630  0.00  0.00    +0.003 A 
ATOM      9  C   UNL     1      -4.549  -9.521  -7.034  0.00  0.00    +0.010 A 
ATOM     10  C   UNL     1      -4.728 -10.799  -7.540  0.00  0.00    +0.001 A 
ATOM     11  C   UNL     1      -3.679 -11.691  -7.643  0.00  0.00    +0.002 A 
ATOM     12  C   UNL     1      -2.389 -11.360  -7.253  0.00  0.00    +0.024 A 
ATOM     13  C   UNL     1      -2.181 -10.080  -6.745  0.00  0.00    +0.038 A 
ATOM     14  N   UNL     1      -0.971  -9.496  -6.328  0.00  0.00    -0.310 N 
ATOM     15  H   UNL     1      -2.554  -5.024  -4.967  0.00  0.00    +0.170 HD
ENDROOT
BRANCH   1  16
ATOM     16  C   UNL     1      -0.995  -6.024  -2.850  0.00  0.00    +0.226 C 
BRANCH  16  18
ATOM     17  N   UNL     1       0.590  -4.334  -1.983  0.00  0.00    -0.314 N 
ATOM     18  C   UNL     1       0.068  -4.974  -3.048  0.00  0.00    +0.232 C 
ATOM     19  O   UNL     1       0.453  -4.705  -4.166  0.00  0.00    -0.274 OA
ATOM     20  H   UNL     1       0.282  -4.550  -1.089  0.00  0.00    +0.149 HD
BRANCH  17  21
ATOM     21  C   UNL     1       1.622  -3.313  -2.176  0.00  0.00    +0.108 C 
BRANCH  21  22
ATOM     22  C   UNL     1       2.040  -2.747  -0.817  0.00  0.00    +0.052 C 
BRANCH  22  29
ATOM     23  C   UNL     1       1.850   1.822  -1.187  0.00  0.00    +0.001 A 
ATOM     24  C   UNL     1       3.103   2.424  -1.367  0.00  0.00    +0.002 A 
ATOM     25  C   UNL     1       4.251   1.716  -1.425  0.00  0.00    +0.026 A 
ATOM     26  C   UNL     1       4.228   0.299  -1.301  0.00  0.00    +0.043 A 
ATOM     27  N   UNL     1       5.187  -0.594  -1.324  0.00  0.00    -0.380 N 
ATOM     28  C   UNL     1       4.592  -1.924  -1.149  0.00  0.00    +0.144 C 
ATOM     29  C   UNL     1       3.102  -1.697  -1.015  0.00  0.00    -0.040 C 
ATOM     30  C   UNL     1       2.917  -0.361  -1.110  0.00  0.00    -0.001 A 
ATOM     31  C   UNL     1       1.717   0.483  -1.058  0.00  0.00    +0.010 A 
ATOM     32  H   UNL     1       6.132  -0.408  -1.438  0.00  0.00    +0.160 HD
ENDBRANCH  22  29
ENDBRANCH  21  22
ENDBRANCH  17  21
ENDBRANCH  16  18
ENDBRANCH   1  16
BRANCH  14  33
ATOM     33  C   UNL     1       0.320 -10.172  -6.181  0.00  0.00    +0.141 C 
BRANCH  33  34
ATOM     34  C   UNL     1       1.135  -9.977  -7.434  0.00  0.00    -0.030 A 
ATOM     35  C   UNL     1       1.058 -10.903  -8.458  0.00  0.00    +0.008 A 
ATOM     36  C   UNL     1       1.804 -10.726  -9.607  0.00  0.00    +0.038 A 
ATOM     37  C   UNL     1       2.629  -9.621  -9.733  0.00  0.00    +0.123 A 
ATOM     38  C   UNL     1       2.705  -8.694  -8.707  0.00  0.00    +0.038 A 
ATOM     39  C   UNL     1       1.954  -8.871  -7.560  0.00  0.00    +0.008 A 
ATOM     40  F   UNL     1       3.360  -9.447 -10.856  0.00  0.00    -0.205 F 
ENDBRANCH  33  34
ENDBRANCH  14  33
TORSDOF 7
