REMARK  Name = ZINC34747324
REMARK  6 active torsions:
REMARK  status: ('A' for Active; 'I' for Inactive)
REMARK    1  A    between atoms: C_1  and  C_2
REMARK    2  A    between atoms: C_5  and  C_9
REMARK    3  A    between atoms: C_6  and  C_8
REMARK    4  A    between atoms: C_9  and  N_10
REMARK    5  A    between atoms: N_29  and  C_30
REMARK    6  A    between atoms: C_30  and  C_31
REMARK                            x       y       z     vdW  Elec       q    Type
REMARK                         _______ _______ _______ _____ _____    ______ ____
ROOT
ATOM      1  N   UNL     1      -2.970  -4.304   0.351  0.00  0.00    +0.384 N 
ATOM      2  C   UNL     1      -4.201  -4.839  -0.243  0.00  0.00    -0.059 C 
ATOM      3  C   UNL     1      -4.261  -6.353  -0.018  0.00  0.00    +0.089 C 
ATOM      4  N   UNL     1      -4.118  -6.615   1.423  0.00  0.00    -0.304 N 
ATOM      5  C   UNL     1      -2.998  -5.982   2.136  0.00  0.00    +0.089 C 
ATOM      6  C   UNL     1      -2.998  -4.485   1.808  0.00  0.00    -0.059 C 
ATOM      7  C   UNL     1      -5.006  -7.428   2.083  0.00  0.00    +0.202 A 
ATOM      8  N   UNL     1      -5.555  -7.013   3.206  0.00  0.00    -0.208 NA
ATOM      9  C   UNL     1      -6.417  -7.778   3.865  0.00  0.00    +0.117 A 
ATOM     10  C   UNL     1      -6.785  -9.055   3.408  0.00  0.00    +0.076 A 
ATOM     11  C   UNL     1      -7.744  -9.781   4.242  0.00  0.00    -0.023 A 
ATOM     12  C   UNL     1      -8.179  -9.160   5.357  0.00  0.00    -0.004 A 
ATOM     13  S   UNL     1      -7.349  -7.594   5.365  0.00  0.00    -0.073 S 
ATOM     14  C   UNL     1      -9.152  -9.686   6.367  0.00  0.00    +0.043 C 
ATOM     15  C   UNL     1      -9.876 -10.896   5.760  0.00  0.00    +0.005 C 
ATOM     16  C   UNL     1      -8.834 -11.828   5.134  0.00  0.00    +0.005 C 
ATOM     17  C   UNL     1      -8.242 -11.179   3.883  0.00  0.00    +0.037 C 
ATOM     18  C   UNL     1      -6.172  -9.479   2.186  0.00  0.00    +0.264 A 
ATOM     19  O   UNL     1      -6.431 -10.572   1.712  0.00  0.00    -0.267 OA
ATOM     20  N   UNL     1      -5.311  -8.652   1.565  0.00  0.00    -0.276 N 
ATOM     21  H   UNL     1      -2.175  -4.793  -0.032  0.00  0.00    -0.081 HD
ENDROOT
BRANCH   1  22
ATOM     22  C   UNL     1      -2.859  -2.873   0.040  0.00  0.00    -0.043 C 
BRANCH  22  27
ATOM     23  C   UNL     1      -2.139  -2.187  -5.653  0.00  0.00    +0.044 C 
ATOM     24  C   UNL     1      -2.327  -2.366  -4.168  0.00  0.00    -0.050 A 
ATOM     25  C   UNL     1      -3.562  -2.129  -3.594  0.00  0.00    +0.003 A 
ATOM     26  C   UNL     1      -3.734  -2.293  -2.233  0.00  0.00    +0.002 A 
ATOM     27  C   UNL     1      -2.672  -2.695  -1.445  0.00  0.00    -0.061 A 
ATOM     28  C   UNL     1      -1.437  -2.933  -2.019  0.00  0.00    -0.049 A 
ATOM     29  C   UNL     1      -1.266  -2.773  -3.381  0.00  0.00    +0.007 A 
ATOM     30  C   UNL     1      -0.279  -3.370  -1.160  0.00  0.00    +0.044 C 
ENDBRANCH  22  27
ENDBRANCH   1  22
BRANCH  20  31
ATOM     31  C   UNL     1      -4.684  -9.078   0.311  0.00  0.00    +0.163 C 
BRANCH  31  32
ATOM     32  C   UNL     1      -3.399  -9.806   0.614  0.00  0.00    -0.028 A 
ATOM     33  C   UNL     1      -2.226  -9.095   0.787  0.00  0.00    +0.005 A 
ATOM     34  C   UNL     1      -1.048  -9.762   1.064  0.00  0.00    +0.000 A 
ATOM     35  C   UNL     1      -1.043 -11.141   1.169  0.00  0.00    +0.000 A 
ATOM     36  C   UNL     1      -2.216 -11.851   0.997  0.00  0.00    +0.000 A 
ATOM     37  C   UNL     1      -3.395 -11.184   0.724  0.00  0.00    +0.005 A 
ENDBRANCH  31  32
ENDBRANCH  20  31
TORSDOF 4
