REMARK  Name = ZINC37674718
REMARK  3 active torsions:
REMARK  status: ('A' for Active; 'I' for Inactive)
REMARK    1  A    between atoms: C_6  and  O_12
REMARK    2  A    between atoms: C_7  and  O_11
REMARK    3  A    between atoms: O_12  and  C_13
REMARK                            x       y       z     vdW  Elec       q    Type
REMARK                         _______ _______ _______ _____ _____    ______ ____
ROOT
ATOM      1  C   UNL     1       0.194   1.603  -0.122  0.00  0.00    +0.001 A 
ATOM      2  C   UNL     1       1.413   2.272  -0.208  0.00  0.00    +0.001 A 
ATOM      3  C   UNL     1       2.590   1.586  -0.214  0.00  0.00    +0.008 A 
ATOM      4  C   UNL     1       2.578   0.183  -0.133  0.00  0.00    -0.014 A 
ATOM      5  C   UNL     1       3.774  -0.555  -0.136  0.00  0.00    +0.058 A 
ATOM      6  C   UNL     1       3.727  -1.916  -0.055  0.00  0.00    +0.172 A 
ATOM      7  C   UNL     1       2.499  -2.590   0.032  0.00  0.00    +0.160 A 
ATOM      8  C   UNL     1       1.322  -1.900   0.037  0.00  0.00    +0.057 A 
ATOM      9  C   UNL     1       1.337  -0.497  -0.045  0.00  0.00    -0.014 A 
ATOM     10  C   UNL     1       0.144   0.245  -0.042  0.00  0.00    +0.008 A 
ENDROOT
BRANCH   7  11
ATOM     11  O   UNL     1       2.482  -3.947   0.112  0.00  0.00    -0.503 OA
ATOM     12  H   UNL     1       2.511  -4.288   1.016  0.00  0.00    +0.292 HD
ENDBRANCH   7  11
BRANCH   6  13
ATOM     13  O   UNL     1       4.885  -2.629  -0.059  0.00  0.00    -0.433 OA
BRANCH  13  14
ATOM     14  C   UNL     1       5.332  -3.111  -1.246  0.00  0.00    +0.240 A 
ATOM     15  C   UNL     1       6.493  -3.880  -1.295  0.00  0.00    +0.072 A 
ATOM     16  C   UNL     1       6.908  -4.350  -2.531  0.00  0.00    +0.047 A 
ATOM     17  C   UNL     1       6.142  -4.025  -3.643  0.00  0.00    +0.152 A 
ATOM     18  N   UNL     1       5.056  -3.290  -3.503  0.00  0.00    -0.134 NA
ATOM     19  N   UNL     1       4.665  -2.857  -2.360  0.00  0.00    -0.110 NA
ATOM     20 CL   UNL     1       6.615  -4.585  -5.217  0.00  0.00    -0.060 Cl
ENDBRANCH  13  14
ENDBRANCH   6  13
TORSDOF 3
