REMARK  Name = ZINC12470533
REMARK  12 active torsions:
REMARK  status: ('A' for Active; 'I' for Inactive)
REMARK    1  A    between atoms: C_1  and  C_2
REMARK    2  A    between atoms: C_5  and  C_8
REMARK    3  A    between atoms: C_8  and  C_10
REMARK    4  A    between atoms: C_8  and  N_17
REMARK    5  A    between atoms: N_12  and  C_13
REMARK    6  A    between atoms: C_13  and  C_14
REMARK    7  A    between atoms: C_13  and  C_15
REMARK    8  A    between atoms: C_13  and  C_16
REMARK    9  A    between atoms: N_17  and  C_18
REMARK   10  A    between atoms: C_24  and  C_26
REMARK   11  A    between atoms: C_26  and  N_27
REMARK   12  A    between atoms: C_29  and  C_32
REMARK                            x       y       z     vdW  Elec       q    Type
REMARK                         _______ _______ _______ _____ _____    ______ ____
ROOT
ATOM      1  N   UNL     1       1.064  -2.986   2.149  0.00  0.00    -0.281 N 
ATOM      2  C   UNL     1       0.133  -3.667   2.846  0.00  0.00    +0.240 C 
ATOM      3  O   UNL     1      -1.008  -3.723   2.438  0.00  0.00    -0.273 OA
ENDROOT
BRANCH   1   4
ATOM      4  C   UNL     1       2.463  -3.006   2.582  0.00  0.00    +0.077 C 
ATOM      5  C   UNL     1       2.607  -2.212   3.882  0.00  0.00    +0.022 C 
ATOM      6  C   UNL     1       4.069  -2.234   4.334  0.00  0.00    +0.002 C 
ATOM      7  C   UNL     1       4.947  -1.604   3.251  0.00  0.00    +0.000 C 
ATOM      8  C   UNL     1       4.803  -2.398   1.951  0.00  0.00    +0.002 C 
ATOM      9  C   UNL     1       3.342  -2.376   1.499  0.00  0.00    +0.022 C 
ENDBRANCH   1   4
BRANCH   1  10
ATOM     10  C   UNL     1       0.677  -2.224   0.959  0.00  0.00    +0.192 C 
BRANCH  10  15
ATOM     11  C   UNL     1       3.751  -4.051  -3.581  0.00  0.00    +0.044 C 
ATOM     12  C   UNL     1       2.949  -3.574  -2.397  0.00  0.00    -0.050 A 
ATOM     13  C   UNL     1       2.348  -4.491  -1.555  0.00  0.00    +0.004 A 
ATOM     14  C   UNL     1       1.613  -4.054  -0.469  0.00  0.00    +0.006 A 
ATOM     15  C   UNL     1       1.478  -2.700  -0.225  0.00  0.00    -0.018 A 
ATOM     16  C   UNL     1       2.074  -1.783  -1.070  0.00  0.00    +0.006 A 
ATOM     17  C   UNL     1       2.814  -2.220  -2.153  0.00  0.00    +0.004 A 
ENDBRANCH  10  15
BRANCH  10  18
ATOM     18  C   UNL     1       0.945  -0.759   1.190  0.00  0.00    +0.238 C 
ATOM     19  O   UNL     1       1.518  -0.399   2.197  0.00  0.00    -0.273 OA
ATOM     20  N   UNL     1       0.547   0.151   0.279  0.00  0.00    -0.309 N 
ATOM     21  H   UNL     1       0.088  -0.137  -0.525  0.00  0.00    +0.149 HD
BRANCH  20  22
ATOM     22  C   UNL     1       0.807   1.575   0.504  0.00  0.00    +0.026 C 
ATOM     23  C   UNL     1       2.315   1.805   0.623  0.00  0.00    +0.031 C 
ATOM     24  C   UNL     1       0.258   2.386  -0.671  0.00  0.00    +0.031 C 
ATOM     25  C   UNL     1       0.120   2.021   1.797  0.00  0.00    +0.031 C 
ENDBRANCH  20  22
ENDBRANCH  10  18
ENDBRANCH   1  10
BRANCH   2  26
ATOM     26  C   UNL     1       0.509  -4.358   4.131  0.00  0.00    +0.264 C 
BRANCH  26  27
ATOM     27  N   UNL     1      -0.611  -5.183   4.588  0.00  0.00    -0.154 N 
ATOM     28  N   UNL     1      -0.805  -6.418   4.272  0.00  0.00    -0.129 NA
ATOM     29  C   UNL     1      -1.910  -6.819   4.872  0.00  0.00    +0.211 A 
ATOM     30  N   UNL     1      -2.374  -5.768   5.565  0.00  0.00    -0.107 NA
ATOM     31  N   UNL     1      -1.554  -4.791   5.372  0.00  0.00    -0.045 NA
BRANCH  29  32
ATOM     32  C   UNL     1      -2.518  -8.165   4.796  0.00  0.00    +0.060 A 
ATOM     33  C   UNL     1      -3.657  -8.632   5.394  0.00  0.00    +0.019 A 
ATOM     34  C   UNL     1      -4.032  -9.940   5.175  0.00  0.00    +0.008 A 
ATOM     35  C   UNL     1      -3.264 -10.723   4.375  0.00  0.00    +0.046 A 
ATOM     36  S   UNL     1      -1.962  -9.601   3.892  0.00  0.00    -0.093 S 
ENDBRANCH  29  32
ENDBRANCH  26  27
ENDBRANCH   2  26
TORSDOF 8
