REMARK  Name = ZINC09936896
REMARK  18 active torsions:
REMARK  status: ('A' for Active; 'I' for Inactive)
REMARK    1  A    between atoms: C_1  and  C_2
REMARK    2  A    between atoms: C_2  and  C_3
REMARK    3  A    between atoms: C_3  and  C_4
REMARK    4  A    between atoms: C_4  and  N_75
REMARK    5  A    between atoms: C_5  and  C_6
REMARK    6  A    between atoms: C_5  and  N_75
REMARK    7  A    between atoms: C_7  and  C_8
REMARK    8  A    between atoms: C_7  and  N_75
REMARK    9  A    between atoms: C_8  and  N_9
REMARK   10  A    between atoms: C_10  and  C_12
REMARK   11  A    between atoms: C_16  and  O_36
REMARK   12  A    between atoms: C_17  and  O_34
REMARK   13  A    between atoms: N_22  and  C_33
REMARK   14  A    between atoms: C_23  and  C_25
REMARK   15  A    between atoms: C_28  and  S_31
REMARK   16  A    between atoms: S_31  and  C_32
REMARK   17  A    between atoms: O_34  and  C_35
REMARK   18  A    between atoms: O_36  and  C_37
REMARK                            x       y       z     vdW  Elec       q    Type
REMARK                         _______ _______ _______ _____ _____    ______ ____
ROOT
ATOM      1  C   UNL     1      -0.932   1.721   3.667  0.00  0.00    +0.130 C 
ATOM      2  C   UNL     1      -2.340   1.187   3.671  0.00  0.00    -0.018 A 
ATOM      3  C   UNL     1      -3.372   1.926   3.137  0.00  0.00    +0.054 A 
ATOM      4  C   UNL     1      -4.662   1.413   3.126  0.00  0.00    +0.162 A 
ATOM      5  C   UNL     1      -4.918   0.147   3.651  0.00  0.00    +0.162 A 
ATOM      6  C   UNL     1      -3.888  -0.598   4.193  0.00  0.00    +0.062 A 
ATOM      7  C   UNL     1      -2.596  -0.073   4.221  0.00  0.00    +0.045 A 
ATOM      8  C   UNL     1      -1.477  -0.840   4.801  0.00  0.00    +0.247 C 
ATOM      9  O   UNL     1      -1.607  -2.022   5.052  0.00  0.00    -0.270 OA
ATOM     10  N   UNL     1      -0.309  -0.217   5.051  0.00  0.00    -0.292 N 
ATOM     11  C   UNL     1      -0.182   1.232   4.904  0.00  0.00    +0.122 C 
ATOM     12  C   UNL     1       0.852  -1.003   5.474  0.00  0.00    +0.133 C 
ENDROOT
BRANCH  11  13
ATOM     13  C   UNL     1      -0.752   1.904   6.127  0.00  0.00    -0.026 A 
ATOM     14  C   UNL     1      -1.928   1.438   6.686  0.00  0.00    +0.006 A 
ATOM     15  C   UNL     1      -2.449   2.047   7.810  0.00  0.00    +0.015 A 
ATOM     16  C   UNL     1      -1.797   3.138   8.372  0.00  0.00    +0.008 A 
ATOM     17  C   UNL     1      -0.619   3.608   7.804  0.00  0.00    +0.015 A 
ATOM     18  C   UNL     1      -0.100   2.989   6.684  0.00  0.00    +0.006 A 
BRANCH  16  19
ATOM     19  S   UNL     1      -2.463   3.924   9.802  0.00  0.00    -0.129 S 
ATOM     20  C   UNL     1      -3.968   2.978  10.162  0.00  0.00    +0.090 C 
ENDBRANCH  16  19
ENDBRANCH  11  13
BRANCH   1  22
ATOM     21  N   UNL     1      -0.701   1.556   1.210  0.00  0.00    -0.317 N 
ATOM     22  C   UNL     1      -0.219   1.243   2.429  0.00  0.00    +0.223 C 
ATOM     23  O   UNL     1       0.790   0.576   2.529  0.00  0.00    -0.275 OA
ATOM     24  H   UNL     1      -1.508   2.088   1.130  0.00  0.00    +0.149 HD
BRANCH  21  25
ATOM     25  C   UNL     1      -0.008   1.091   0.006  0.00  0.00    +0.085 C 
BRANCH  25  26
ATOM     26  C   UNL     1      -0.757   1.580  -1.235  0.00  0.00    -0.060 C 
BRANCH  26  27
ATOM     27  N   UNL     1       0.031   1.225  -2.434  0.00  0.00    +0.381 N 
ATOM     28  H   UNL     1       1.023   1.412  -2.248  0.00  0.00    -0.082 HD
BRANCH  27  29
ATOM     29  C   UNL     1      -0.406   2.043  -3.585  0.00  0.00    -0.082 C 
ATOM     30  C   UNL     1       0.190   3.445  -3.444  0.00  0.00    -0.017 C 
ENDBRANCH  27  29
BRANCH  27  31
ATOM     31  C   UNL     1      -0.137  -0.211  -2.742  0.00  0.00    -0.079 C 
BRANCH  31  32
ATOM     32  C   UNL     1       0.854  -0.599  -3.841  0.00  0.00    -0.019 C 
BRANCH  32  34
ATOM     33  C   UNL     1       1.699  -2.477  -5.255  0.00  0.00    +0.004 C 
ATOM     34  C   UNL     1       0.708  -2.089  -4.156  0.00  0.00    -0.005 C 
ENDBRANCH  32  34
ENDBRANCH  31  32
ENDBRANCH  27  31
ENDBRANCH  26  27
ENDBRANCH  25  26
ENDBRANCH  21  25
ENDBRANCH   1  22
BRANCH   5  35
ATOM     35  O   UNL     1      -6.182  -0.355   3.629  0.00  0.00    -0.491 OA
ATOM     36  C   UNL     1      -6.372  -1.658   4.184  0.00  0.00    +0.277 C 
ENDBRANCH   5  35
BRANCH   4  37
ATOM     37  O   UNL     1      -5.678   2.147   2.603  0.00  0.00    -0.491 OA
ATOM     38  C   UNL     1      -5.346   3.436   2.083  0.00  0.00    +0.277 C 
ENDBRANCH   4  37
TORSDOF 12
