REMARK  Name = ZINC35250930
REMARK  2 active torsions:
REMARK  status: ('A' for Active; 'I' for Inactive)
REMARK    1  A    between atoms: C_6  and  C_7
REMARK    2  A    between atoms: C_13  and  C_15
REMARK                            x       y       z     vdW  Elec       q    Type
REMARK                         _______ _______ _______ _____ _____    ______ ____
ROOT
ATOM      1  C   UNL     1      -1.169  -0.887   0.009  0.00  0.00    +0.264 C 
ATOM      2  O   UNL     1      -2.285  -0.416   0.124  0.00  0.00    -0.268 OA
ATOM      3  N   UNL     1      -1.009  -2.220  -0.101  0.00  0.00    -0.285 N 
ATOM      4  C   UNL     1       0.283  -2.931  -0.125  0.00  0.00    +0.109 C 
ATOM      5  C   UNL     1      -0.046  -4.367   0.357  0.00  0.00    +0.021 C 
ATOM      6  C   UNL     1      -1.436  -4.602  -0.291  0.00  0.00    +0.033 C 
ATOM      7  C   UNL     1      -2.092  -3.208  -0.212  0.00  0.00    +0.162 C 
ENDROOT
BRANCH   1  13
ATOM      8  C   UNL     1      -0.000   1.356   0.223  0.00  0.00    +0.047 A 
ATOM      9  C   UNL     1       1.323   1.794   0.108  0.00  0.00    +0.036 A 
ATOM     10  C   UNL     1       2.093   0.718  -0.185  0.00  0.00    +0.098 A 
ATOM     11  N   UNL     1       1.301  -0.380  -0.259  0.00  0.00    -0.356 N 
ATOM     12  H   UNL     1       1.601  -1.282  -0.455  0.00  0.00    +0.165 HD
ATOM     13  C   UNL     1       0.001  -0.003  -0.009  0.00  0.00    +0.103 A 
ATOM     14 BR   UNL     1       1.931   3.572   0.324  0.00  0.00    -0.049 Br
ENDBRANCH   1  13
BRANCH   7  15
ATOM     15  C   UNL     1      -2.985  -3.127   0.999  0.00  0.00    +0.231 C 
ATOM     16  O   UNL     1      -2.747  -2.324   1.876  0.00  0.00    -0.274 OA
ATOM     17  N   UNL     1      -4.050  -3.946   1.108  0.00  0.00    -0.328 N 
ATOM     18  H   UNL     1      -4.241  -4.589   0.406  0.00  0.00    +0.145 HD
ATOM     19  H   UNL     1      -4.624  -3.894   1.887  0.00  0.00    +0.145 HD
ENDBRANCH   7  15
TORSDOF 2
