REMARK  Name = ZINC08951401
REMARK  10 active torsions:
REMARK  status: ('A' for Active; 'I' for Inactive)
REMARK    1  A    between atoms: C_1  and  C_2
REMARK    2  A    between atoms: C_2  and  C_33
REMARK    3  A    between atoms: C_3  and  N_20
REMARK    4  A    between atoms: N_5  and  N_9
REMARK    5  A    between atoms: C_10  and  C_11
REMARK    6  A    between atoms: C_14  and  N_17
REMARK    7  A    between atoms: N_17  and  C_18
REMARK    8  A    between atoms: N_17  and  C_19
REMARK    9  A    between atoms: N_20  and  O_32
REMARK   10  A    between atoms: N_23  and  C_24
REMARK                            x       y       z     vdW  Elec       q    Type
REMARK                         _______ _______ _______ _____ _____    ______ ____
ROOT
ATOM      1  C   UNL     1       2.102   4.255  -0.303  0.00  0.00    +0.026 C 
ATOM      2  C   UNL     1       1.547   2.955   0.285  0.00  0.00    +0.056 C 
ATOM      3  C   UNL     1       0.093   2.715  -0.170  0.00  0.00    +0.232 C 
ATOM      4  N   UNL     1      -0.070   1.509  -0.947  0.00  0.00    -0.187 N 
ATOM      5  C   UNL     1       0.976   0.714  -1.210  0.00  0.00    +0.132 C 
ATOM      6  S   UNL     1       0.965  -0.747  -2.103  0.00  0.00    -0.026 S 
ATOM      7  S   UNL     1       2.381   1.493  -0.440  0.00  0.00    -0.091 S 
ATOM      8  C   UNL     1       1.656   2.954   1.811  0.00  0.00    +0.026 C 
ENDROOT
BRANCH   3   9
ATOM      9  N   UNL     1      -0.342   3.858  -0.977  0.00  0.00    -0.143 N 
ATOM     10  C   UNL     1      -1.529   4.446  -0.727  0.00  0.00    +0.331 C 
ATOM     11  O   UNL     1      -2.193   4.094   0.228  0.00  0.00    -0.250 OA
ATOM     12  N   UNL     1      -1.979   5.425  -1.537  0.00  0.00    -0.268 N 
ATOM     13  H   UNL     1      -1.486   5.656  -2.340  0.00  0.00    +0.156 HD
BRANCH  12  14
ATOM     14  C   UNL     1      -3.159   6.109  -1.220  0.00  0.00    +0.036 A 
ATOM     15  C   UNL     1      -4.000   6.552  -2.232  0.00  0.00    +0.025 A 
ATOM     16  C   UNL     1      -5.164   7.226  -1.917  0.00  0.00    +0.023 A 
ATOM     17  C   UNL     1      -5.493   7.460  -0.594  0.00  0.00    +0.059 A 
ATOM     18  C   UNL     1      -4.656   7.019   0.418  0.00  0.00    +0.061 A 
ATOM     19  C   UNL     1      -3.493   6.339   0.108  0.00  0.00    +0.044 A 
ATOM     20 CL   UNL     1      -5.072   7.315   2.077  0.00  0.00    -0.082 Cl
ATOM     21 CL   UNL     1      -6.956   8.307  -0.202  0.00  0.00    -0.082 Cl
ENDBRANCH  12  14
BRANCH   9  22
ATOM     22  O   UNL     1       0.483   4.343  -2.020  0.00  0.00    -0.289 OA
ATOM     23  H   UNL     1       0.151   5.147  -2.443  0.00  0.00    +0.242 HD
ENDBRANCH   9  22
ENDBRANCH   3   9
BRANCH   4  24
ATOM     24  N   UNL     1      -1.340   1.162  -1.427  0.00  0.00    -0.184 NA
ATOM     25  C   UNL     1      -1.915   0.074  -1.015  0.00  0.00    +0.138 C 
BRANCH  25  26
ATOM     26  C   UNL     1      -3.293  -0.236  -1.437  0.00  0.00    -0.005 A 
ATOM     27  C   UNL     1      -3.984   0.643  -2.276  0.00  0.00    +0.011 A 
ATOM     28  C   UNL     1      -5.269   0.346  -2.672  0.00  0.00    +0.024 A 
ATOM     29  C   UNL     1      -5.884  -0.820  -2.229  0.00  0.00    +0.029 A 
ATOM     30  C   UNL     1      -5.202  -1.694  -1.390  0.00  0.00    +0.024 A 
ATOM     31  C   UNL     1      -3.914  -1.408  -0.994  0.00  0.00    +0.011 A 
BRANCH  29  32
ATOM     32  N   UNL     1      -7.189  -1.113  -2.627  0.00  0.00    -0.336 N 
ATOM     33  C   UNL     1      -7.838  -2.341  -2.162  0.00  0.00    +0.129 C 
ATOM     34  C   UNL     1      -7.909  -0.194  -3.511  0.00  0.00    +0.129 C 
ENDBRANCH  29  32
ENDBRANCH  25  26
ENDBRANCH   4  24
TORSDOF 6
