REMARK  Name = ZINC32624157
REMARK  7 active torsions:
REMARK  status: ('A' for Active; 'I' for Inactive)
REMARK    1  A    between atoms: C_1  and  C_2
REMARK    2  A    between atoms: C_5  and  C_8
REMARK    3  A    between atoms: C_8  and  C_10
REMARK    4  A    between atoms: C_12  and  C_24
REMARK    5  A    between atoms: C_18  and  C_19
REMARK    6  A    between atoms: C_18  and  O_23
REMARK    7  A    between atoms: C_27  and  C_29
REMARK                            x       y       z     vdW  Elec       q    Type
REMARK                         _______ _______ _______ _____ _____    ______ ____
ROOT
ATOM      1  C   UNL     1       0.256   2.015  -0.016  0.00  0.00    +0.147 C 
ATOM      2  C   UNL     1      -0.574   0.853  -0.572  0.00  0.00    +0.156 C 
ATOM      3  N   UNL     1      -0.548  -0.256   0.384  0.00  0.00    -0.289 N 
ATOM      4  C   UNL     1       0.497  -0.448   1.202  0.00  0.00    +0.302 C 
ATOM      5  O   UNL     1       0.473  -1.390   1.970  0.00  0.00    -0.253 OA
ATOM      6  N   UNL     1       1.570   0.358   1.205  0.00  0.00    -0.264 N 
ATOM      7  C   UNL     1       1.665   1.502   0.297  0.00  0.00    +0.243 C 
ATOM      8  H   UNL     1      -1.398  -0.952   0.442  0.00  0.00    +0.151 HD
ATOM      9  H   UNL     1       2.387   0.145   1.910  0.00  0.00    +0.153 HD
ENDROOT
BRANCH   2  10
ATOM     10  C   UNL     1       0.010   0.399  -1.885  0.00  0.00    +0.127 A 
ATOM     11  C   UNL     1       0.221  -0.880  -2.251  0.00  0.00    +0.047 A 
ATOM     12  C   UNL     1       0.777  -0.853  -3.546  0.00  0.00    +0.050 A 
ATOM     13  C   UNL     1       0.875   0.456  -3.902  0.00  0.00    +0.135 A 
ATOM     14  O   UNL     1       0.401   1.203  -2.887  0.00  0.00    -0.458 OA
BRANCH  13  15
ATOM     15  C   UNL     1       1.405   0.968  -5.183  0.00  0.00    +0.020 A 
ATOM     16  C   UNL     1       1.450   2.343  -5.423  0.00  0.00    +0.012 A 
ATOM     17  C   UNL     1       1.946   2.816  -6.620  0.00  0.00    +0.003 A 
ATOM     18  C   UNL     1       2.398   1.932  -7.583  0.00  0.00    +0.038 A 
ATOM     19  C   UNL     1       2.357   0.566  -7.353  0.00  0.00    +0.124 A 
ATOM     20  C   UNL     1       1.867   0.080  -6.155  0.00  0.00    +0.050 A 
ATOM     21  F   UNL     1       2.801  -0.291  -8.298  0.00  0.00    -0.205 F 
ENDBRANCH  13  15
ENDBRANCH   2  10
BRANCH   7  22
ATOM     22  C   UNL     1       2.352   1.069  -1.000  0.00  0.00    +0.436 C 
ATOM     23  F   UNL     1       1.989   1.940  -2.033  0.00  0.00    -0.166 F 
ATOM     24  F   UNL     1       3.739   1.103  -0.828  0.00  0.00    -0.166 F 
ATOM     25  F   UNL     1       1.954  -0.233  -1.326  0.00  0.00    -0.166 F 
ENDBRANCH   7  22
BRANCH   1  26
ATOM     26  C   UNL     1      -0.384   2.537   1.245  0.00  0.00    +0.173 C 
ATOM     27  O   UNL     1      -0.010   2.135   2.326  0.00  0.00    -0.292 OA
BRANCH  26  32
ATOM     28  C   UNL     1      -4.601   6.431   0.928  0.00  0.00    +0.044 C 
ATOM     29  C   UNL     1      -3.495   5.410   1.011  0.00  0.00    -0.050 A 
ATOM     30  C   UNL     1      -3.071   4.954   2.247  0.00  0.00    +0.004 A 
ATOM     31  C   UNL     1      -2.060   4.020   2.331  0.00  0.00    +0.011 A 
ATOM     32  C   UNL     1      -1.464   3.534   1.164  0.00  0.00    +0.018 A 
ATOM     33  C   UNL     1      -1.894   4.004  -0.081  0.00  0.00    +0.011 A 
ATOM     34  C   UNL     1      -2.910   4.934  -0.149  0.00  0.00    +0.004 A 
ENDBRANCH  26  32
ENDBRANCH   1  26
BRANCH   7  35
ATOM     35  O   UNL     1       2.425   2.541   0.916  0.00  0.00    -0.364 OA
ATOM     36  H   UNL     1       3.468   2.357   1.215  0.00  0.00    +0.212 HD
ENDBRANCH   7  35
TORSDOF 6
