REMARK  Name = ZINC40372468
REMARK  11 active torsions:
REMARK  status: ('A' for Active; 'I' for Inactive)
REMARK    1  A    between atoms: C_4  and  C_7
REMARK    2  A    between atoms: C_7  and  O_8
REMARK    3  A    between atoms: O_8  and  C_9
REMARK    4  A    between atoms: C_12  and  C_15
REMARK    5  A    between atoms: C_15  and  N_16
REMARK    6  A    between atoms: N_16  and  C_17
REMARK    7  A    between atoms: N_16  and  C_27
REMARK    8  A    between atoms: C_17  and  C_18
REMARK    9  A    between atoms: C_27  and  C_28
REMARK   10  A    between atoms: C_30  and  C_33
REMARK   11  A    between atoms: N_35  and  C_36
REMARK                            x       y       z     vdW  Elec       q    Type
REMARK                         _______ _______ _______ _____ _____    ______ ____
ROOT
ATOM      1  N   UNL     1      10.048  -2.605   2.077  0.00  0.00    +0.389 N 
ATOM      2  H   UNL     1       9.900  -1.967   2.845  0.00  0.00    -0.080 HD
ENDROOT
BRANCH   1   3
ATOM      3  C   UNL     1       8.962  -3.593   2.046  0.00  0.00    -0.042 C 
BRANCH   3   7
ATOM      4  C   UNL     1       8.657  -5.497   5.860  0.00  0.00    +0.121 A 
ATOM      5  C   UNL     1       8.025  -4.282   5.637  0.00  0.00    +0.046 A 
ATOM      6  C   UNL     1       8.125  -3.669   4.403  0.00  0.00    +0.005 A 
ATOM      7  C   UNL     1       8.854  -4.264   3.391  0.00  0.00    -0.064 A 
ATOM      8  C   UNL     1       9.485  -5.475   3.610  0.00  0.00    +0.005 A 
ATOM      9  C   UNL     1       9.393  -6.089   4.844  0.00  0.00    +0.046 A 
BRANCH   4  10
ATOM     10  O   UNL     1       8.560  -6.102   7.072  0.00  0.00    -0.487 OA
BRANCH  10  11
ATOM     11  C   UNL     1       7.786  -5.434   8.071  0.00  0.00    +0.264 C 
BRANCH  11  15
ATOM     12  C   UNL     1       7.803  -7.739  11.667  0.00  0.00    +0.000 A 
ATOM     13  C   UNL     1       8.779  -6.784  11.454  0.00  0.00    +0.000 A 
ATOM     14  C   UNL     1       8.774  -6.038  10.290  0.00  0.00    +0.007 A 
ATOM     15  C   UNL     1       7.792  -6.248   9.339  0.00  0.00    -0.010 A 
ATOM     16  C   UNL     1       6.817  -7.203   9.552  0.00  0.00    +0.007 A 
ATOM     17  C   UNL     1       6.821  -7.948  10.717  0.00  0.00    +0.000 A 
ENDBRANCH  11  15
ENDBRANCH  10  11
ENDBRANCH   4  10
ENDBRANCH   3   7
ENDBRANCH   1   3
BRANCH   1  18
ATOM     18  C   UNL     1      10.065  -1.855   0.814  0.00  0.00    -0.042 C 
BRANCH  18  19
ATOM     19  C   UNL     1       8.805  -1.036   0.699  0.00  0.00    -0.060 A 
ATOM     20  C   UNL     1       7.721  -1.532  -0.003  0.00  0.00    +0.005 A 
ATOM     21  C   UNL     1       6.564  -0.784  -0.111  0.00  0.00    +0.050 A 
ATOM     22  C   UNL     1       6.486   0.464   0.484  0.00  0.00    +0.166 A 
ATOM     23  C   UNL     1       7.577   0.963   1.192  0.00  0.00    +0.166 A 
ATOM     24  C   UNL     1       8.732   0.206   1.300  0.00  0.00    +0.051 A 
ATOM     25  O   UNL     1       7.255   2.197   1.677  0.00  0.00    -0.453 OA
ATOM     26  C   UNL     1       6.107   2.621   0.918  0.00  0.00    +0.466 C 
ATOM     27  O   UNL     1       5.480   1.386   0.527  0.00  0.00    -0.453 OA
ENDBRANCH  18  19
ENDBRANCH   1  18
BRANCH   1  28
ATOM     28  C   UNL     1      11.333  -3.294   2.254  0.00  0.00    -0.014 C 
BRANCH  28  29
ATOM     29  C   UNL     1      12.432  -2.276   2.409  0.00  0.00    +0.063 A 
ATOM     30  N   UNL     1      12.882  -1.738   3.510  0.00  0.00    -0.241 NA
ATOM     31  C   UNL     1      13.874  -0.846   3.422  0.00  0.00    +0.133 A 
ATOM     32  C   UNL     1      14.332  -0.578   2.160  0.00  0.00    +0.079 A 
ATOM     33  S   UNL     1      13.370  -1.573   1.207  0.00  0.00    -0.082 S 
BRANCH  31  34
ATOM     34  C   UNL     1      14.441  -0.190   4.612  0.00  0.00    +0.263 C 
ATOM     35  O   UNL     1      15.344   0.616   4.491  0.00  0.00    -0.269 OA
ATOM     36  N   UNL     1      13.960  -0.483   5.837  0.00  0.00    -0.307 N 
ATOM     37  H   UNL     1      13.240  -1.126   5.934  0.00  0.00    +0.149 HD
BRANCH  36  38
ATOM     38  C   UNL     1      14.524   0.169   7.021  0.00  0.00    +0.073 C 
ATOM     39  C   UNL     1      14.800  -0.706   8.245  0.00  0.00    +0.024 C 
ATOM     40  C   UNL     1      13.631   0.281   8.258  0.00  0.00    +0.024 C 
ENDBRANCH  36  38
ENDBRANCH  31  34
ENDBRANCH  28  29
ENDBRANCH   1  28
TORSDOF 11
