REMARK  Name = ZINC36027289
REMARK  9 active torsions:
REMARK  status: ('A' for Active; 'I' for Inactive)
REMARK    1  A    between atoms: C_1  and  C_2
REMARK    2  A    between atoms: C_2  and  C_3
REMARK    3  A    between atoms: C_3  and  C_5
REMARK    4  A    between atoms: C_3  and  N_6
REMARK    5  A    between atoms: C_9  and  C_28
REMARK    6  A    between atoms: N_15  and  S_18
REMARK    7  A    between atoms: S_18  and  C_21
REMARK    8  A    between atoms: C_24  and  C_27
REMARK    9  A    between atoms: C_28  and  C_29
REMARK                            x       y       z     vdW  Elec       q    Type
REMARK                         _______ _______ _______ _____ _____    ______ ____
ROOT
ATOM      1  N   UNL     1       2.039  -0.197  -1.337  0.00  0.00    -0.311 N 
ATOM      2  C   UNL     1       2.962  -0.731  -0.510  0.00  0.00    +0.201 C 
ATOM      3  O   UNL     1       2.742  -1.533   0.373  0.00  0.00    -0.277 OA
ATOM      4  C   UNL     1       4.317  -0.162  -0.870  0.00  0.00    +0.023 C 
ATOM      5  N   UNL     1       4.136   0.418  -2.223  0.00  0.00    +0.401 N 
ATOM      6  C   UNL     1       2.694   0.728  -2.267  0.00  0.00    +0.006 C 
ATOM      7  C   UNL     1       2.468   2.172  -1.823  0.00  0.00    +0.023 C 
ATOM      8  C   UNL     1       0.966   2.479  -1.834  0.00  0.00    +0.109 C 
ATOM      9  N   UNL     1       0.428   2.155  -3.162  0.00  0.00    -0.177 NA
ATOM     10  C   UNL     1       0.658   0.811  -3.710  0.00  0.00    +0.109 C 
ATOM     11  C   UNL     1       2.162   0.519  -3.683  0.00  0.00    +0.023 C 
ATOM     12  H   UNL     1       4.687   1.256  -2.328  0.00  0.00    -0.082 HD
ATOM     13  H   UNL     1       4.373  -0.258  -2.935  0.00  0.00    -0.082 HD
ENDROOT
BRANCH   9  14
ATOM     14  S   UNL     1      -0.422   3.284  -4.025  0.00  0.00    +0.061 S 
ATOM     15  O   UNL     1      -1.250   2.565  -4.929  0.00  0.00    -0.153 OA
ATOM     16  O   UNL     1      -0.947   4.207  -3.080  0.00  0.00    -0.153 OA
BRANCH  14  17
ATOM     17  C   UNL     1       0.740   4.174  -5.006  0.00  0.00    +0.105 A 
ATOM     18  C   UNL     1       1.346   5.309  -4.500  0.00  0.00    +0.029 A 
ATOM     19  C   UNL     1       2.258   6.007  -5.270  0.00  0.00    +0.005 A 
ATOM     20  C   UNL     1       2.564   5.569  -6.545  0.00  0.00    -0.050 A 
ATOM     21  C   UNL     1       1.959   4.434  -7.051  0.00  0.00    +0.005 A 
ATOM     22  C   UNL     1       1.050   3.734  -6.279  0.00  0.00    +0.029 A 
ATOM     23  C   UNL     1       3.557   6.331  -7.385  0.00  0.00    +0.044 C 
ENDBRANCH  14  17
ENDBRANCH   9  14
BRANCH   1  24
ATOM     24  C   UNL     1       0.606  -0.499  -1.314  0.00  0.00    +0.071 C 
ATOM     25  C   UNL     1       0.333  -1.743  -2.161  0.00  0.00    +0.028 C 
BRANCH  24  27
ATOM     26  C   UNL     1       0.353   0.517   0.955  0.00  0.00    +0.005 C 
ATOM     27  C   UNL     1       0.163  -0.756   0.128  0.00  0.00    +0.019 C 
ENDBRANCH  24  27
ENDBRANCH   1  24
BRANCH   4  28
ATOM     28  C   UNL     1       5.370  -1.272  -0.900  0.00  0.00    +0.028 C 
BRANCH  28  29
ATOM     29  C   UNL     1       6.725  -0.671  -1.174  0.00  0.00    -0.048 A 
ATOM     30  C   UNL     1       7.166  -0.528  -2.476  0.00  0.00    +0.003 A 
ATOM     31  C   UNL     1       8.409   0.023  -2.728  0.00  0.00    +0.000 A 
ATOM     32  C   UNL     1       9.210   0.431  -1.677  0.00  0.00    +0.000 A 
ATOM     33  C   UNL     1       8.768   0.288  -0.376  0.00  0.00    +0.000 A 
ATOM     34  C   UNL     1       7.523  -0.259  -0.124  0.00  0.00    +0.003 A 
ENDBRANCH  28  29
ENDBRANCH   4  28
TORSDOF 6
