REMARK  Name = ZINC27907841
REMARK  13 active torsions:
REMARK  status: ('A' for Active; 'I' for Inactive)
REMARK    1  A    between atoms: C_1  and  C_2
REMARK    2  A    between atoms: C_9  and  C_11
REMARK    3  A    between atoms: N_14  and  C_17
REMARK    4  A    between atoms: C_17  and  C_18
REMARK    5  A    between atoms: C_20  and  C_29
REMARK    6  A    between atoms: C_21  and  O_28
REMARK    7  A    between atoms: C_22  and  C_24
REMARK    8  A    between atoms: C_24  and  C_25
REMARK    9  A    between atoms: C_24  and  C_26
REMARK   10  A    between atoms: C_24  and  C_27
REMARK   11  A    between atoms: C_29  and  C_30
REMARK   12  A    between atoms: C_29  and  C_31
REMARK   13  A    between atoms: C_29  and  C_32
REMARK                            x       y       z     vdW  Elec       q    Type
REMARK                         _______ _______ _______ _____ _____    ______ ____
ROOT
ATOM      1  C   UNL     1       4.744   5.208  -1.450  0.00  0.00    -0.043 C 
ENDROOT
BRANCH   1   5
ATOM      2  C   UNL     1       1.371   2.629  -1.951  0.00  0.00    +0.072 C 
ATOM      3  C   UNL     1       1.536   3.410  -0.644  0.00  0.00    -0.006 C 
ATOM      4  C   UNL     1       2.998   3.834  -0.490  0.00  0.00    -0.078 C 
ATOM      5  N   UNL     1       3.390   4.669  -1.632  0.00  0.00    +0.382 N 
ATOM      6  C   UNL     1       3.286   3.925  -2.894  0.00  0.00    -0.078 C 
ATOM      7  C   UNL     1       1.832   3.504  -3.120  0.00  0.00    -0.006 C 
ATOM      8  H   UNL     1       2.691   5.516  -1.684  0.00  0.00    -0.081 HD
BRANCH   2  16
ATOM      9  C   UNL     1       0.905  -2.103  -0.347  0.00  0.00    +0.009 C 
ATOM     10  C   UNL     1       0.109  -1.148  -1.238  0.00  0.00    +0.003 C 
ATOM     11  C   UNL     1      -1.374  -1.520  -1.191  0.00  0.00    +0.006 C 
ATOM     12  C   UNL     1      -2.169  -0.585  -2.110  0.00  0.00    +0.019 C 
ATOM     13  C   UNL     1      -2.014   0.857  -1.615  0.00  0.00    +0.108 C 
ATOM     14  N   UNL     1      -0.583   1.175  -1.519  0.00  0.00    -0.301 N 
ATOM     15  C   UNL     1       0.287   0.288  -0.735  0.00  0.00    +0.111 C 
ATOM     16  C   UNL     1      -0.078   2.260  -2.139  0.00  0.00    +0.219 C 
ATOM     17  O   UNL     1      -0.790   2.940  -2.847  0.00  0.00    -0.275 OA
ENDBRANCH   2  16
ENDBRANCH   1   5
BRANCH   1  18
ATOM     18  C   UNL     1       4.886   5.748  -0.049  0.00  0.00    -0.063 A 
ATOM     19  C   UNL     1       4.579   7.070   0.215  0.00  0.00    +0.009 A 
ATOM     20  C   UNL     1       4.702   7.565   1.499  0.00  0.00    -0.000 A 
ATOM     21  C   UNL     1       5.145   6.738   2.521  0.00  0.00    +0.124 A 
ATOM     22  C   UNL     1       5.457   5.414   2.252  0.00  0.00    -0.000 A 
ATOM     23  C   UNL     1       5.327   4.921   0.967  0.00  0.00    +0.009 A 
BRANCH  22  24
ATOM     24  C   UNL     1       5.939   4.513   3.359  0.00  0.00    -0.009 C 
ATOM     25  C   UNL     1       6.212   3.115   2.798  0.00  0.00    +0.015 C 
ATOM     26  C   UNL     1       7.227   5.082   3.956  0.00  0.00    +0.015 C 
ATOM     27  C   UNL     1       4.868   4.425   4.448  0.00  0.00    +0.015 C 
ENDBRANCH  22  24
BRANCH  20  28
ATOM     28  C   UNL     1       4.361   9.005   1.787  0.00  0.00    -0.009 C 
ATOM     29  C   UNL     1       3.902   9.689   0.498  0.00  0.00    +0.015 C 
ATOM     30  C   UNL     1       3.238   9.065   2.824  0.00  0.00    +0.015 C 
ATOM     31  C   UNL     1       5.598   9.722   2.333  0.00  0.00    +0.015 C 
ENDBRANCH  20  28
BRANCH  21  32
ATOM     32  O   UNL     1       5.272   7.224   3.783  0.00  0.00    -0.506 OA
ATOM     33  H   UNL     1       5.623   6.568   4.593  0.00  0.00    +0.292 HD
ENDBRANCH  21  32
ENDBRANCH   1  18
TORSDOF 6
