REMARK  Name = ZINC06198088
REMARK  9 active torsions:
REMARK  status: ('A' for Active; 'I' for Inactive)
REMARK    1  A    between atoms: C_1  and  C_2
REMARK    2  A    between atoms: C_2  and  C_3
REMARK    3  A    between atoms: C_10  and  C_15
REMARK    4  A    between atoms: C_15  and  C_17
REMARK    5  A    between atoms: C_15  and  N_67
REMARK    6  A    between atoms: N_21  and  C_22
REMARK    7  A    between atoms: C_22  and  C_23
REMARK    8  A    between atoms: C_26  and  O_29
REMARK    9  A    between atoms: O_29  and  C_30
REMARK                            x       y       z     vdW  Elec       q    Type
REMARK                         _______ _______ _______ _____ _____    ______ ____
ROOT
ATOM      1  C   UNL     1      -1.868   7.548  -0.115  0.00  0.00    +0.039 C 
ENDROOT
BRANCH   1   9
ATOM      2  C   UNL     1      -1.078   1.483   0.817  0.00  0.00    -0.047 A 
ATOM      3  C   UNL     1      -2.423   1.142   0.776  0.00  0.00    +0.005 A 
ATOM      4  C   UNL     1      -3.386   2.106   0.568  0.00  0.00    +0.026 A 
ATOM      5  C   UNL     1      -3.010   3.435   0.406  0.00  0.00    +0.049 A 
ATOM      6  C   UNL     1      -1.645   3.776   0.448  0.00  0.00    -0.001 A 
ATOM      7  C   UNL     1      -0.684   2.781   0.656  0.00  0.00    +0.013 A 
ATOM      8  C   UNL     1      -1.258   5.177   0.271  0.00  0.00    +0.017 A 
ATOM      9  C   UNL     1      -2.232   6.098   0.071  0.00  0.00    +0.011 A 
ATOM     10  C   UNL     1      -3.587   5.704   0.039  0.00  0.00    +0.251 A 
ATOM     11  O   UNL     1      -4.448   6.548  -0.141  0.00  0.00    -0.268 OA
ATOM     12  N   UNL     1      -3.952   4.420   0.201  0.00  0.00    -0.322 N 
ATOM     13  H   UNL     1      -4.921   4.176   0.172  0.00  0.00    +0.169 HD
BRANCH   2  15
ATOM     14  C   UNL     1       0.402  -0.159  -0.308  0.00  0.00    +0.009 C 
ATOM     15  C   UNL     1      -0.043   0.410   1.041  0.00  0.00    +0.032 C 
ENDBRANCH   2  15
ENDBRANCH   1   9
BRANCH   1  22
ATOM     16  C   UNL     1      -2.488   9.809   0.529  0.00  0.00    -0.077 C 
ATOM     17  C   UNL     1      -3.004  10.697   1.629  0.00  0.00    -0.019 C 
ATOM     18  C   UNL     1      -1.822  11.079   2.544  0.00  0.00    -0.002 C 
ATOM     19  C   UNL     1      -1.471  10.006   3.467  0.00  0.00    -0.002 C 
ATOM     20  C   UNL     1      -1.032   8.723   2.730  0.00  0.00    -0.019 C 
ATOM     21  C   UNL     1      -2.262   8.010   2.239  0.00  0.00    -0.077 C 
ATOM     22  N   UNL     1      -2.665   8.347   0.831  0.00  0.00    +0.389 N 
ATOM     23  H   UNL     1      -3.656   8.109   0.712  0.00  0.00    -0.080 HD
ENDBRANCH   1  22
BRANCH   1  24
ATOM     24  C   UNL     1      -2.214   7.978  -1.517  0.00  0.00    +0.143 A 
ATOM     25  N   UNL     1      -3.411   8.017  -2.051  0.00  0.00    -0.115 NA
ATOM     26  N   UNL     1      -3.293   8.438  -3.262  0.00  0.00    -0.023 NA
ATOM     27  N   UNL     1      -2.051   8.661  -3.518  0.00  0.00    -0.044 NA
ATOM     28  N   UNL     1      -1.354   8.389  -2.467  0.00  0.00    -0.226 N 
BRANCH  28  29
ATOM     29  C   UNL     1       0.100   8.506  -2.333  0.00  0.00    +0.182 C 
BRANCH  29  30
ATOM     30  C   UNL     1       0.754   7.247  -2.841  0.00  0.00    -0.026 A 
ATOM     31  C   UNL     1       1.114   6.250  -1.953  0.00  0.00    +0.009 A 
ATOM     32  C   UNL     1       1.708   5.092  -2.417  0.00  0.00    +0.046 A 
ATOM     33  C   UNL     1       1.954   4.935  -3.773  0.00  0.00    +0.120 A 
ATOM     34  C   UNL     1       1.597   5.939  -4.661  0.00  0.00    +0.046 A 
ATOM     35  C   UNL     1       0.998   7.093  -4.193  0.00  0.00    +0.009 A 
BRANCH  33  36
ATOM     36  O   UNL     1       2.543   3.800  -4.232  0.00  0.00    -0.495 OA
ATOM     37  C   UNL     1       2.884   2.808  -3.260  0.00  0.00    +0.277 C 
ENDBRANCH  33  36
ENDBRANCH  29  30
ENDBRANCH  28  29
ENDBRANCH   1  24
TORSDOF 7
