REMARK  Name = ZINC12614929
REMARK  9 active torsions:
REMARK  status: ('A' for Active; 'I' for Inactive)
REMARK    1  A    between atoms: C_1  and  C_2
REMARK    2  A    between atoms: N_11  and  C_15
REMARK    3  A    between atoms: C_15  and  C_16
REMARK    4  A    between atoms: N_18  and  C_19
REMARK    5  A    between atoms: C_19  and  C_20
REMARK    6  A    between atoms: N_22  and  C_23
REMARK    7  A    between atoms: C_23  and  C_24
REMARK    8  A    between atoms: C_23  and  C_25
REMARK    9  A    between atoms: C_23  and  C_26
REMARK                            x       y       z     vdW  Elec       q    Type
REMARK                         _______ _______ _______ _____ _____    ______ ____
ROOT
ATOM      1  C   UNL     1      -0.002   1.056   2.507  0.00  0.00    +0.010 C 
ATOM      2  C   UNL     1      -0.730   1.580   1.267  0.00  0.00    +0.018 C 
ATOM      3  C   UNL     1      -0.013   1.086   0.008  0.00  0.00    +0.006 C 
ATOM      4  C   UNL     1      -0.753   1.593  -1.231  0.00  0.00    +0.000 C 
ATOM      5  C   UNL     1      -2.186   1.056  -1.227  0.00  0.00    +0.003 C 
ATOM      6  C   UNL     1      -2.911   1.550   0.027  0.00  0.00    +0.035 C 
ATOM      7  C   UNL     1      -2.167   1.069   1.268  0.00  0.00    +0.115 C 
ATOM      8  C   UNL     1      -2.885   1.517   2.521  0.00  0.00    +0.247 C 
ATOM      9  O   UNL     1      -3.102   2.655   2.875  0.00  0.00    -0.273 OA
ATOM     10  N   UNL     1      -3.233   0.381   3.161  0.00  0.00    -0.215 N 
ATOM     11  C   UNL     1      -2.836  -0.706   2.489  0.00  0.00    +0.310 C 
ATOM     12  O   UNL     1      -3.035  -1.844   2.866  0.00  0.00    -0.252 OA
ATOM     13  N   UNL     1      -2.191  -0.397   1.347  0.00  0.00    -0.285 N 
ATOM     14  H   UNL     1      -1.817  -1.020   0.705  0.00  0.00    +0.151 HD
ENDROOT
BRANCH  10  15
ATOM     15  C   UNL     1      -3.956   0.343   4.435  0.00  0.00    +0.213 C 
BRANCH  15  16
ATOM     16  C   UNL     1      -2.969   0.347   5.573  0.00  0.00    +0.231 C 
ATOM     17  O   UNL     1      -1.778   0.378   5.343  0.00  0.00    -0.274 OA
ATOM     18  N   UNL     1      -3.409   0.315   6.847  0.00  0.00    -0.305 N 
ATOM     19  H   UNL     1      -4.361   0.290   7.030  0.00  0.00    +0.149 HD
BRANCH  18  20
ATOM     20  C   UNL     1      -2.449   0.319   7.953  0.00  0.00    +0.200 C 
BRANCH  20  21
ATOM     21  C   UNL     1      -3.192   0.279   9.264  0.00  0.00    +0.231 C 
ATOM     22  O   UNL     1      -4.405   0.251   9.272  0.00  0.00    -0.274 OA
ATOM     23  N   UNL     1      -2.510   0.276  10.426  0.00  0.00    -0.309 N 
ATOM     24  H   UNL     1      -1.540   0.298  10.419  0.00  0.00    +0.149 HD
BRANCH  23  25
ATOM     25  C   UNL     1      -3.233   0.237  11.699  0.00  0.00    +0.026 C 
ATOM     26  C   UNL     1      -4.083  -1.033  11.765  0.00  0.00    +0.031 C 
ATOM     27  C   UNL     1      -2.230   0.241  12.855  0.00  0.00    +0.031 C 
ATOM     28  C   UNL     1      -4.141   1.464  11.808  0.00  0.00    +0.031 C 
ENDBRANCH  23  25
ENDBRANCH  20  21
ENDBRANCH  18  20
ENDBRANCH  15  16
ENDBRANCH  10  15
TORSDOF 5
