REMARK  Name = ZINC27102989
REMARK  7 active torsions:
REMARK  status: ('A' for Active; 'I' for Inactive)
REMARK    1  A    between atoms: C_1  and  C_2
REMARK    2  A    between atoms: C_2  and  C_4
REMARK    3  A    between atoms: C_2  and  N_14
REMARK    4  A    between atoms: C_15  and  C_17
REMARK    5  A    between atoms: C_17  and  O_18
REMARK    6  A    between atoms: O_18  and  C_19
REMARK    7  A    between atoms: C_27  and  C_30
REMARK                            x       y       z     vdW  Elec       q    Type
REMARK                         _______ _______ _______ _____ _____    ______ ____
ROOT
ATOM      1  O   UNL     1       8.098   3.823   1.811  0.00  0.00    -0.483 OA
ENDROOT
BRANCH   1   2
ATOM      2  C   UNL     1       9.162   4.526   2.276  0.00  0.00    +0.125 A 
ATOM      3  C   UNL     1       9.107   5.918   2.313  0.00  0.00    +0.046 A 
ATOM      4  C   UNL     1      10.168   6.638   2.783  0.00  0.00    +0.019 A 
ATOM      5  C   UNL     1      11.316   5.974   3.220  0.00  0.00    +0.065 A 
ATOM      6  C   UNL     1      11.383   4.571   3.182  0.00  0.00    +0.142 A 
ATOM      7  C   UNL     1      10.293   3.854   2.705  0.00  0.00    +0.092 A 
ATOM      8  O   UNL     1      12.493   3.932   3.603  0.00  0.00    -0.462 OA
ATOM      9  C   UNL     1      13.571   4.566   4.071  0.00  0.00    +0.208 A 
ATOM     10  C   UNL     1      13.641   5.919   4.162  0.00  0.00    +0.064 A 
ATOM     11  C   UNL     1      12.482   6.718   3.728  0.00  0.00    +0.200 A 
ATOM     12  O   UNL     1      12.488   7.936   3.787  0.00  0.00    -0.286 OA
BRANCH  10  13
ATOM     13  C   UNL     1      14.860   6.579   4.688  0.00  0.00    -0.011 A 
ATOM     14  C   UNL     1      15.455   7.619   3.976  0.00  0.00    +0.010 A 
ATOM     15  C   UNL     1      16.586   8.234   4.472  0.00  0.00    +0.020 A 
ATOM     16  C   UNL     1      17.137   7.811   5.670  0.00  0.00    +0.041 A 
ATOM     17  C   UNL     1      16.554   6.775   6.378  0.00  0.00    +0.020 A 
ATOM     18  C   UNL     1      15.419   6.158   5.893  0.00  0.00    +0.010 A 
ATOM     19 CL   UNL     1      18.565   8.584   6.285  0.00  0.00    -0.084 Cl
ENDBRANCH  10  13
ENDBRANCH   1   2
BRANCH   1  20
ATOM     20  C   UNL     1       6.960   4.575   1.384  0.00  0.00    +0.324 C 
BRANCH  20  22
ATOM     21  N   UNL     1       4.715   4.121   0.450  0.00  0.00    -0.306 N 
ATOM     22  C   UNL     1       5.887   3.633   0.904  0.00  0.00    +0.251 C 
ATOM     23  O   UNL     1       6.077   2.435   0.925  0.00  0.00    -0.272 OA
ATOM     24  H   UNL     1       4.542   5.207   0.430  0.00  0.00    +0.149 HD
BRANCH  21  26
ATOM     25  C   UNL     1       3.898   2.885  -1.496  0.00  0.00    +0.033 C 
ATOM     26  C   UNL     1       3.671   3.205  -0.017  0.00  0.00    +0.101 C 
BRANCH  26  27
ATOM     27  C   UNL     1       2.321   3.851   0.157  0.00  0.00    -0.020 A 
ATOM     28  C   UNL     1       2.206   5.208   0.152  0.00  0.00    +0.006 A 
ATOM     29  C   UNL     1       0.967   5.823   0.311  0.00  0.00    +0.001 A 
ATOM     30  C   UNL     1      -0.166   5.086   0.475  0.00  0.00    +0.008 A 
ATOM     31  C   UNL     1      -0.087   3.683   0.484  0.00  0.00    -0.018 A 
ATOM     32  C   UNL     1       1.174   3.057   0.323  0.00  0.00    -0.013 A 
ATOM     33  C   UNL     1       1.253   1.654   0.333  0.00  0.00    +0.009 A 
ATOM     34  C   UNL     1       0.120   0.917   0.496  0.00  0.00    +0.001 A 
ATOM     35  C   UNL     1      -1.121   1.533   0.649  0.00  0.00    +0.001 A 
ATOM     36  C   UNL     1      -1.235   2.889   0.651  0.00  0.00    +0.008 A 
ENDBRANCH  26  27
ENDBRANCH  21  26
ENDBRANCH  20  22
ENDBRANCH   1  20
TORSDOF 6
