REMARK  Name = ZINC40988462
REMARK  12 active torsions:
REMARK  status: ('A' for Active; 'I' for Inactive)
REMARK    1  A    between atoms: C_1  and  C_2
REMARK    2  A    between atoms: C_2  and  N_3
REMARK    3  A    between atoms: N_3  and  C_4
REMARK    4  A    between atoms: N_3  and  C_6
REMARK    5  A    between atoms: C_4  and  C_5
REMARK    6  A    between atoms: C_6  and  C_8
REMARK    7  A    between atoms: C_6  and  C_29
REMARK    8  A    between atoms: C_8  and  N_9
REMARK    9  A    between atoms: C_10  and  C_12
REMARK   10  A    between atoms: N_15  and  C_17
REMARK   11  A    between atoms: C_32  and  O_35
REMARK   12  A    between atoms: O_35  and  C_36
REMARK                            x       y       z     vdW  Elec       q    Type
REMARK                         _______ _______ _______ _____ _____    ______ ____
ROOT
ATOM      1  N   UNL     1      -1.631  -2.384   0.670  0.00  0.00    -0.311 N 
ATOM      2  C   UNL     1      -1.234  -3.374  -0.153  0.00  0.00    +0.264 C 
ATOM      3  O   UNL     1      -1.026  -3.141  -1.328  0.00  0.00    -0.268 OA
ATOM      4  H   UNL     1      -1.727  -2.553   1.621  0.00  0.00    +0.149 HD
ENDROOT
BRANCH   2   5
ATOM      5  C   UNL     1      -1.051  -4.742   0.372  0.00  0.00    +0.150 A 
ATOM      6  C   UNL     1      -0.549  -5.851  -0.331  0.00  0.00    +0.006 A 
ATOM      7  C   UNL     1      -0.563  -6.885   0.545  0.00  0.00    +0.044 A 
ATOM      8  N   UNL     1      -1.045  -6.415   1.708  0.00  0.00    -0.263 N 
ATOM      9  N   UNL     1      -1.322  -5.162   1.596  0.00  0.00    -0.166 NA
ATOM     10  C   UNL     1      -0.108  -8.281   0.205  0.00  0.00    +0.055 C 
ATOM     11  C   UNL     1      -0.048  -8.410  -1.322  0.00  0.00    +0.006 C 
ATOM     12  C   UNL     1       0.740  -7.235  -1.908  0.00  0.00    +0.005 C 
ATOM     13  C   UNL     1      -0.076  -5.944  -1.755  0.00  0.00    +0.039 C 
BRANCH   8  14
ATOM     14  C   UNL     1      -1.224  -7.209   2.925  0.00  0.00    +0.130 C 
ATOM     15  C   UNL     1      -0.386  -6.599   4.061  0.00  0.00    +0.051 C 
ATOM     16  C   UNL     1      -0.830  -7.257   5.398  0.00  0.00    +0.168 C 
ATOM     17  S   UNL     1      -2.656  -7.318   5.154  0.00  0.00    -0.029 S 
ATOM     18  O   UNL     1      -3.235  -6.143   5.704  0.00  0.00    -0.174 OA
ATOM     19  O   UNL     1      -3.135  -8.592   5.564  0.00  0.00    -0.174 OA
ATOM     20  C   UNL     1      -2.721  -7.215   3.320  0.00  0.00    +0.192 C 
ENDBRANCH   8  14
ENDBRANCH   2   5
BRANCH   1  21
ATOM     21  C   UNL     1      -1.919  -1.053   0.130  0.00  0.00    +0.094 C 
BRANCH  21  22
ATOM     22  C   UNL     1      -2.208  -0.087   1.281  0.00  0.00    -0.020 C 
BRANCH  22  23
ATOM     23  C   UNL     1      -2.383   1.307   0.735  0.00  0.00    -0.059 A 
ATOM     24  C   UNL     1      -2.732   1.490  -0.591  0.00  0.00    +0.005 A 
ATOM     25  C   UNL     1      -2.893   2.766  -1.093  0.00  0.00    +0.046 A 
ATOM     26  C   UNL     1      -2.705   3.865  -0.268  0.00  0.00    +0.120 A 
ATOM     27  C   UNL     1      -2.356   3.679   1.062  0.00  0.00    +0.046 A 
ATOM     28  C   UNL     1      -2.201   2.400   1.562  0.00  0.00    +0.005 A 
BRANCH  26  29
ATOM     29  O   UNL     1      -2.863   5.122  -0.760  0.00  0.00    -0.495 OA
ATOM     30  C   UNL     1      -2.654   6.205   0.148  0.00  0.00    +0.277 C 
ENDBRANCH  26  29
ENDBRANCH  22  23
BRANCH  22  31
ATOM     31  N   UNL     1      -1.085  -0.104   2.228  0.00  0.00    +0.385 N 
ATOM     32  H   UNL     1      -0.676  -1.026   2.249  0.00  0.00    -0.081 HD
BRANCH  31  34
ATOM     33  C   UNL     1       0.374   0.555   0.375  0.00  0.00    -0.017 C 
ATOM     34  C   UNL     1      -0.072   0.872   1.804  0.00  0.00    -0.081 C 
ENDBRANCH  31  34
BRANCH  31  35
ATOM     35  C   UNL     1      -1.571   0.246   3.570  0.00  0.00    -0.081 C 
ATOM     36  C   UNL     1      -2.461  -0.879   4.099  0.00  0.00    -0.017 C 
ENDBRANCH  31  35
ENDBRANCH  22  31
ENDBRANCH  21  22
ENDBRANCH   1  21
TORSDOF 9
