REMARK  Name = ZINC38901514
REMARK  8 active torsions:
REMARK  status: ('A' for Active; 'I' for Inactive)
REMARK    1  A    between atoms: C_1  and  C_2
REMARK    2  A    between atoms: C_5  and  C_8
REMARK    3  A    between atoms: C_8  and  C_10
REMARK    4  A    between atoms: C_8  and  N_16
REMARK    5  A    between atoms: C_17  and  C_19
REMARK    6  A    between atoms: N_24  and  C_26
REMARK    7  A    between atoms: C_26  and  C_27
REMARK    8  A    between atoms: C_29  and  C_32
REMARK                            x       y       z     vdW  Elec       q    Type
REMARK                         _______ _______ _______ _____ _____    ______ ____
ROOT
ATOM      1  C   UNL     1      -2.261  -6.529   2.025  0.00  0.00    +0.058 C 
ATOM      2  C   UNL     1      -3.471  -5.603   2.175  0.00  0.00    +0.009 C 
ATOM      3  C   UNL     1      -4.418  -6.181   3.230  0.00  0.00    -0.018 C 
ATOM      4  C   UNL     1      -4.821  -7.600   2.822  0.00  0.00    -0.078 C 
ATOM      5  N   UNL     1      -3.624  -8.443   2.722  0.00  0.00    +0.386 N 
ATOM      6  C   UNL     1      -2.743  -7.936   1.663  0.00  0.00    -0.065 C 
ATOM      7  H   UNL     1      -3.130  -8.431   3.602  0.00  0.00    -0.081 HD
ENDROOT
BRANCH   1   9
ATOM      8  N   UNL     1      -0.816  -4.781   1.039  0.00  0.00    -0.304 N 
ATOM      9  C   UNL     1      -1.361  -6.009   0.935  0.00  0.00    +0.215 C 
ATOM     10  O   UNL     1      -1.125  -6.696  -0.037  0.00  0.00    -0.276 OA
ATOM     11  H   UNL     1      -1.004  -4.231   1.816  0.00  0.00    +0.150 HD
BRANCH   8  12
ATOM     12  C   UNL     1       0.059  -4.275  -0.021  0.00  0.00    +0.134 C 
BRANCH  12  17
ATOM     13  C   UNL     1      -0.018   1.503   0.010  0.00  0.00    +0.044 C 
ATOM     14  C   UNL     1       0.002  -0.004   0.002  0.00  0.00    -0.050 A 
ATOM     15  C   UNL     1       0.006  -0.689  -1.199  0.00  0.00    +0.004 A 
ATOM     16  C   UNL     1       0.025  -2.071  -1.206  0.00  0.00    +0.006 A 
ATOM     17  C   UNL     1       0.040  -2.768  -0.013  0.00  0.00    -0.023 A 
ATOM     18  C   UNL     1       0.037  -2.084   1.188  0.00  0.00    +0.006 A 
ATOM     19  C   UNL     1       0.023  -0.702   1.195  0.00  0.00    +0.004 A 
ENDBRANCH  12  17
BRANCH  12  20
ATOM     20  C   UNL     1       1.466  -4.761   0.215  0.00  0.00    -0.023 A 
ATOM     21  C   UNL     1       1.977  -4.801   1.499  0.00  0.00    +0.006 A 
ATOM     22  C   UNL     1       3.268  -5.246   1.715  0.00  0.00    +0.000 A 
ATOM     23  C   UNL     1       4.047  -5.652   0.648  0.00  0.00    +0.000 A 
ATOM     24  C   UNL     1       3.536  -5.613  -0.635  0.00  0.00    +0.000 A 
ATOM     25  C   UNL     1       2.244  -5.171  -0.852  0.00  0.00    +0.006 A 
ENDBRANCH  12  20
ENDBRANCH   8  12
ENDBRANCH   1   9
BRANCH   5  26
ATOM     26  C   UNL     1      -4.022  -9.822   2.406  0.00  0.00    +0.022 C 
BRANCH  26  27
ATOM     27  C   UNL     1      -4.816 -10.390   3.554  0.00  0.00    +0.211 A 
ATOM     28  N   UNL     1      -6.109 -10.323   3.692  0.00  0.00    -0.193 NA
ATOM     29  C   UNL     1      -6.483 -10.934   4.831  0.00  0.00    +0.202 A 
ATOM     30  N   UNL     1      -5.413 -11.397   5.429  0.00  0.00    -0.056 NA
ATOM     31  O   UNL     1      -4.311 -11.054   4.602  0.00  0.00    -0.340 OA
BRANCH  29  32
ATOM     32  C   UNL     1      -7.876 -11.062   5.328  0.00  0.00    +0.023 A 
ATOM     33  C   UNL     1      -8.932 -10.528   4.592  0.00  0.00    +0.014 A 
ATOM     34  C   UNL     1     -10.225 -10.649   5.057  0.00  0.00    +0.039 A 
ATOM     35  C   UNL     1     -10.474 -11.301   6.254  0.00  0.00    +0.123 A 
ATOM     36  C   UNL     1      -9.427 -11.833   6.989  0.00  0.00    +0.039 A 
ATOM     37  C   UNL     1      -8.132 -11.721   6.528  0.00  0.00    +0.014 A 
ATOM     38  F   UNL     1     -11.742 -11.418   6.706  0.00  0.00    -0.205 F 
ENDBRANCH  29  32
ENDBRANCH  26  27
ENDBRANCH   5  26
TORSDOF 7
