REMARK  Name = ZINC05516536
REMARK  2 active torsions:
REMARK  status: ('A' for Active; 'I' for Inactive)
REMARK    1  A    between atoms: C_5  and  C_7
REMARK    2  A    between atoms: C_24  and  C_26
REMARK                            x       y       z     vdW  Elec       q    Type
REMARK                         _______ _______ _______ _____ _____    ______ ____
ROOT
ATOM      1  C   UNL     1       0.616  -2.946  -0.383  0.00  0.00    +0.235 C 
ATOM      2  C   UNL     1       1.069  -3.080  -1.807  0.00  0.00    +0.027 C 
ATOM      3  C   UNL     1       0.185  -3.352  -2.788  0.00  0.00    +0.083 C 
ATOM      4  C   UNL     1      -1.238  -3.523  -2.398  0.00  0.00    +0.042 A 
ATOM      5  C   UNL     1      -2.258  -3.480  -3.339  0.00  0.00    +0.013 A 
ATOM      6  C   UNL     1      -3.569  -3.641  -2.931  0.00  0.00    +0.001 A 
ATOM      7  C   UNL     1      -3.863  -3.845  -1.594  0.00  0.00    +0.004 A 
ATOM      8  C   UNL     1      -2.852  -3.889  -0.652  0.00  0.00    +0.046 A 
ATOM      9  C   UNL     1      -1.535  -3.730  -1.045  0.00  0.00    +0.131 A 
ATOM     10  O   UNL     1      -0.524  -3.775  -0.147  0.00  0.00    -0.479 OA
ATOM     11  N   UNL     1       0.574  -3.470  -4.082  0.00  0.00    -0.213 NA
ATOM     12  C   UNL     1       1.813  -3.342  -4.496  0.00  0.00    +0.237 C 
ATOM     13  N   UNL     1       2.366  -3.429  -5.726  0.00  0.00    -0.205 NA
ATOM     14  C   UNL     1       3.654  -3.231  -5.660  0.00  0.00    +0.203 C 
ATOM     15  N   UNL     1       4.012  -3.000  -4.366  0.00  0.00    -0.251 N 
ATOM     16  N   UNL     1       2.838  -3.068  -3.613  0.00  0.00    -0.208 N 
ATOM     17  C   UNL     1       2.525  -2.915  -2.187  0.00  0.00    +0.160 C 
ATOM     18  H   UNL     1       4.906  -2.824  -4.034  0.00  0.00    +0.171 HD
ENDROOT
BRANCH   1  23
ATOM     19  C   UNL     1      -1.388   0.232  -0.007  0.00  0.00    +0.000 A 
ATOM     20  C   UNL     1      -0.414   1.127   0.394  0.00  0.00    +0.001 A 
ATOM     21  C   UNL     1       0.893   0.705   0.544  0.00  0.00    +0.020 A 
ATOM     22  C   UNL     1       1.228  -0.614   0.292  0.00  0.00    +0.048 A 
ATOM     23  C   UNL     1       0.253  -1.509  -0.109  0.00  0.00    +0.015 A 
ATOM     24  C   UNL     1      -1.055  -1.086  -0.258  0.00  0.00    +0.009 A 
ATOM     25 CL   UNL     1       2.870  -1.145   0.479  0.00  0.00    -0.083 Cl
ENDBRANCH   1  23
BRANCH  17  26
ATOM     26  C   UNL     1       3.329  -3.930  -1.417  0.00  0.00    -0.003 A 
ATOM     27  C   UNL     1       4.295  -3.519  -0.510  0.00  0.00    +0.009 A 
ATOM     28  C   UNL     1       5.011  -4.488   0.176  0.00  0.00    +0.020 A 
ATOM     29  C   UNL     1       4.741  -5.822  -0.066  0.00  0.00    +0.111 A 
ATOM     30  N   UNL     1       3.816  -6.176  -0.936  0.00  0.00    -0.263 NA
ATOM     31  C   UNL     1       3.111  -5.282  -1.602  0.00  0.00    +0.116 A 
ENDBRANCH  17  26
TORSDOF 2
