REMARK  Name = ZINC19521103
REMARK  10 active torsions:
REMARK  status: ('A' for Active; 'I' for Inactive)
REMARK    1  A    between atoms: C_1  and  C_2
REMARK    2  A    between atoms: C_2  and  C_3
REMARK    3  A    between atoms: C_4  and  C_9
REMARK    4  A    between atoms: C_5  and  C_8
REMARK    5  A    between atoms: C_15  and  C_18
REMARK    6  A    between atoms: C_21  and  C_33
REMARK    7  A    between atoms: C_26  and  C_28
REMARK    8  A    between atoms: C_28  and  C_29
REMARK    9  A    between atoms: C_28  and  C_30
REMARK   10  A    between atoms: C_28  and  C_31
REMARK                            x       y       z     vdW  Elec       q    Type
REMARK                         _______ _______ _______ _____ _____    ______ ____
ROOT
ATOM      1  C   UNL     1      -4.704   0.975  -1.074  0.00  0.00    +0.078 C 
ATOM      2  C   UNL     1      -4.553  -0.545  -1.202  0.00  0.00    +0.055 C 
ATOM      3  C   UNL     1      -5.925  -1.218  -1.074  0.00  0.00    +0.177 C 
ATOM      4  N   UNL     1      -6.867  -0.550  -1.976  0.00  0.00    -0.242 N 
ATOM      5  C   UNL     1      -6.670   0.693  -2.488  0.00  0.00    +0.118 A 
ATOM      6  C   UNL     1      -7.726   0.990  -3.277  0.00  0.00    +0.068 A 
ATOM      7  C   UNL     1      -8.599  -0.106  -3.247  0.00  0.00    +0.070 A 
ATOM      8  N   UNL     1      -8.082  -1.025  -2.467  0.00  0.00    -0.174 NA
ATOM      9  N   UNL     1      -5.539   1.458  -2.192  0.00  0.00    -0.326 N 
ATOM     10  H   UNL     1      -5.256   2.371  -2.736  0.00  0.00    +0.148 HD
ENDROOT
BRANCH   1  17
ATOM     11  C   UNL     1      -0.014   1.212   0.009  0.00  0.00    +0.252 C 
ATOM     12  O   UNL     1       0.002  -0.004   0.002  0.00  0.00    -0.270 OA
ATOM     13  N   UNL     1      -1.191   1.870   0.018  0.00  0.00    -0.297 N 
ATOM     14  C   UNL     1      -1.227   3.339   0.032  0.00  0.00    +0.108 C 
ATOM     15  C   UNL     1      -2.105   3.817  -1.134  0.00  0.00    +0.019 C 
ATOM     16  C   UNL     1      -3.481   3.154  -1.034  0.00  0.00    +0.008 C 
ATOM     17  C   UNL     1      -3.325   1.635  -1.141  0.00  0.00    +0.027 C 
ATOM     18  C   UNL     1      -2.461   1.132   0.020  0.00  0.00    +0.113 C 
BRANCH  11  20
ATOM     19  C   UNL     1       1.995   2.403   1.070  0.00  0.00    +0.149 A 
ATOM     20  C   UNL     1       1.252   1.966   0.001  0.00  0.00    +0.101 A 
ATOM     21  C   UNL     1       2.029   2.442  -1.155  0.00  0.00    +0.093 A 
ATOM     22  N   UNL     1       3.060   3.050  -0.648  0.00  0.00    -0.083 NA
ATOM     23  O   UNL     1       3.055   3.034   0.558  0.00  0.00    -0.359 OA
ATOM     24  C   UNL     1       1.698   2.263  -2.614  0.00  0.00    +0.070 C 
BRANCH  19  26
ATOM     25  C   UNL     1       2.309   0.902   3.019  0.00  0.00    +0.012 C 
ATOM     26  C   UNL     1       1.678   2.208   2.530  0.00  0.00    +0.074 C 
ENDBRANCH  19  26
ENDBRANCH  11  20
ENDBRANCH   1  17
BRANCH   7  27
ATOM     27  C   UNL     1      -9.909  -0.210  -3.985  0.00  0.00    +0.006 C 
ATOM     28  C   UNL     1      -9.639  -0.461  -5.470  0.00  0.00    +0.017 C 
ATOM     29  C   UNL     1     -10.726  -1.369  -3.412  0.00  0.00    +0.017 C 
ATOM     30  C   UNL     1     -10.691   1.095  -3.822  0.00  0.00    +0.017 C 
ENDBRANCH   7  27
BRANCH   3  31
ATOM     31  C   UNL     1      -5.811  -2.696  -1.453  0.00  0.00    +0.365 C 
ATOM     32  F   UNL     1      -5.244  -2.808  -2.727  0.00  0.00    -0.207 F 
ATOM     33  F   UNL     1      -5.002  -3.355  -0.522  0.00  0.00    -0.207 F 
ENDBRANCH   3  31
TORSDOF 5
