REMARK  Name = ZINC39496720
REMARK  5 active torsions:
REMARK  status: ('A' for Active; 'I' for Inactive)
REMARK    1  A    between atoms: C_5  and  O_15
REMARK    2  A    between atoms: C_6  and  C_7
REMARK    3  A    between atoms: C_7  and  C_9
REMARK    4  A    between atoms: C_7  and  N_12
REMARK    5  A    between atoms: C_9  and  C_10
REMARK                            x       y       z     vdW  Elec       q    Type
REMARK                         _______ _______ _______ _____ _____    ______ ____
ROOT
ATOM      1  C   UNL     1       0.249   0.482  -1.505  0.00  0.00    +0.010 A 
ATOM      2  C   UNL     1       1.374   1.256  -1.721  0.00  0.00    +0.016 A 
ATOM      3  C   UNL     1       2.184   1.615  -0.660  0.00  0.00    +0.031 A 
ATOM      4  C   UNL     1       1.871   1.201   0.622  0.00  0.00    +0.073 A 
ATOM      5  C   UNL     1       0.742   0.424   0.841  0.00  0.00    +0.137 A 
ATOM      6  C   UNL     1      -0.069   0.066  -0.226  0.00  0.00    +0.016 A 
ATOM      7 BR   UNL     1       2.979   1.692   2.073  0.00  0.00    -0.045 Br
ATOM      8  I   UNL     1       3.889   2.787  -0.993  0.00  0.00    -0.043 I 
ENDROOT
BRANCH   5   9
ATOM      9  O   UNL     1       0.431   0.015   2.099  0.00  0.00    -0.505 OA
ATOM     10  H   UNL     1      -0.140   0.629   2.583  0.00  0.00    +0.292 HD
ENDBRANCH   5   9
BRANCH   6  11
ATOM     11  C   UNL     1      -1.295  -0.778   0.009  0.00  0.00    +0.113 C 
BRANCH  11  12
ATOM     12  N   UNL     1      -2.347   0.046   0.609  0.00  0.00    -0.311 N 
ATOM     13  C   UNL     1      -2.747   1.179  -0.001  0.00  0.00    +0.326 C 
ATOM     14  O   UNL     1      -2.299   1.472  -1.090  0.00  0.00    -0.280 OA
ATOM     15  H   UNL     1      -2.756  -0.223   1.447  0.00  0.00    +0.149 HD
ENDBRANCH  11  12
BRANCH  11  16
ATOM     16  C   UNL     1      -1.789  -1.342  -1.325  0.00  0.00    +0.097 C 
BRANCH  16  17
ATOM     17  C   UNL     1      -2.940  -2.283  -1.077  0.00  0.00    +0.225 C 
ATOM     18  O   UNL     1      -3.994  -2.109  -1.640  0.00  0.00    -0.301 OA
ENDBRANCH  16  17
ENDBRANCH  11  16
ENDBRANCH   6  11
TORSDOF 5
