REMARK  Name = ZINC13153065
REMARK  7 active torsions:
REMARK  status: ('A' for Active; 'I' for Inactive)
REMARK    1  A    between atoms: C_7  and  C_14
REMARK    2  A    between atoms: CA_8  and  C_11
REMARK    3  A    between atoms: C_14  and  C_15
REMARK    4  A    between atoms: C_14  and  C_26
REMARK    5  A    between atoms: C_19  and  N_22
REMARK    6  A    between atoms: C_20  and  O_21
REMARK    7  A    between atoms: CA_35  and  C_36
REMARK                            x       y       z     vdW  Elec       q    Type
REMARK                         _______ _______ _______ _____ _____    ______ ____
ROOT
ATOM      1  C   UNL     1       0.867  -2.996   0.001  0.00  0.00    +0.088 C 
ENDROOT
BRANCH   1   8
ATOM      2  C   UNL     1       1.671   1.272  -1.575  0.00  0.00    +0.001 A 
ATOM      3  C   UNL     1       0.843   2.236  -1.013  0.00  0.00    +0.002 A 
ATOM      4  C   UNL     1      -0.106   1.888  -0.079  0.00  0.00    +0.026 A 
ATOM      5  C   UNL     1      -0.242   0.557   0.308  0.00  0.00    +0.047 A 
ATOM      6  C   UNL     1       0.599  -0.419  -0.264  0.00  0.00    +0.005 A 
ATOM      7  C   UNL     1       1.558  -0.038  -1.213  0.00  0.00    +0.010 A 
ATOM      8  C   UNL     1       0.239  -1.661   0.309  0.00  0.00    +0.004 A 
ATOM      9  CA  UNL     1      -0.775  -1.434   1.188  0.00  0.00    +0.134 A 
ATOM     10  N   UNL     1      -1.074  -0.084   1.193  0.00  0.00    -0.349 N 
ATOM     11  H   UNL     1      -1.760   0.340   1.733  0.00  0.00    +0.166 HD
BRANCH   9  12
ATOM     12  C   UNL     1      -1.443  -2.457   1.998  0.00  0.00    +0.403 C 
ATOM     13  O   UNL     1      -2.351  -2.141   2.756  0.00  0.00    -0.239 OA
ATOM     14  OXT UNL     1      -1.093  -3.627   1.918  0.00  0.00    -0.239 OA
ENDBRANCH   9  12
ENDBRANCH   1   8
BRANCH   1  15
ATOM     15  C   UNL     1       1.723  -3.429   1.163  0.00  0.00    +0.004 A 
ATOM     16  C   UNL     1       2.693  -2.640   1.825  0.00  0.00    +0.005 A 
ATOM     17  C   UNL     1       3.146  -1.325   1.648  0.00  0.00    +0.010 A 
ATOM     18  C   UNL     1       4.120  -0.829   2.464  0.00  0.00    +0.001 A 
ATOM     19  C   UNL     1       4.670  -1.614   3.470  0.00  0.00    +0.002 A 
ATOM     20  C   UNL     1       4.242  -2.908   3.663  0.00  0.00    +0.026 A 
ATOM     21  C   UNL     1       3.248  -3.438   2.844  0.00  0.00    +0.047 A 
ATOM     22  N   UNL     1       2.628  -4.663   2.792  0.00  0.00    -0.349 N 
ATOM     23  H   UNL     1       2.811  -5.414   3.378  0.00  0.00    +0.166 HD
ATOM     24  CA  UNL     1       1.698  -4.648   1.769  0.00  0.00    +0.134 A 
BRANCH  24  25
ATOM     25  C   UNL     1       0.826  -5.766   1.395  0.00  0.00    +0.403 C 
ATOM     26  O   UNL     1       0.821  -6.789   2.067  0.00  0.00    -0.239 OA
ATOM     27  OXT UNL     1       0.102  -5.675   0.412  0.00  0.00    -0.239 OA
ENDBRANCH  24  25
ENDBRANCH   1  15
BRANCH   1  28
ATOM     28  C   UNL     1       1.720  -2.877  -1.235  0.00  0.00    +0.010 A 
ATOM     29  C   UNL     1       3.051  -2.520  -1.125  0.00  0.00    +0.028 A 
ATOM     30  C   UNL     1       3.835  -2.411  -2.259  0.00  0.00    +0.044 A 
ATOM     31  C   UNL     1       3.289  -2.659  -3.506  0.00  0.00    +0.056 A 
ATOM     32  C   UNL     1       1.960  -3.017  -3.621  0.00  0.00    +0.169 A 
ATOM     33  C   UNL     1       1.173  -3.132  -2.484  0.00  0.00    +0.151 A 
ATOM     34 CL   UNL     1       5.506  -1.961  -2.118  0.00  0.00    -0.083 Cl
BRANCH  32  35
ATOM     35  N   UNL     1       1.377  -3.283  -4.955  0.00  0.00    +0.060 N 
ATOM     36  O   UNL     1       2.064  -3.187  -5.945  0.00  0.00    -0.126 OA
ATOM     37  O   UNL     1       0.214  -3.596  -5.055  0.00  0.00    -0.126 OA
ENDBRANCH  32  35
BRANCH  33  38
ATOM     38  O   UNL     1      -0.134  -3.489  -2.594  0.00  0.00    -0.504 OA
ATOM     39  H   UNL     1      -0.738  -2.742  -2.700  0.00  0.00    +0.292 HD
ENDBRANCH  33  38
ENDBRANCH   1  28
TORSDOF 7
