REMARK  Name = ZINC12576145
REMARK  5 active torsions:
REMARK  status: ('A' for Active; 'I' for Inactive)
REMARK    1  A    between atoms: C_1  and  C_2
REMARK    2  A    between atoms: C_3  and  C_33
REMARK    3  A    between atoms: C_8  and  C_26
REMARK    4  A    between atoms: C_16  and  C_17
REMARK    5  A    between atoms: N_35  and  C_36
REMARK                            x       y       z     vdW  Elec       q    Type
REMARK                         _______ _______ _______ _____ _____    ______ ____
ROOT
ATOM      1  C   UNL     1      -0.422  -0.710   0.979  0.00  0.00    +0.067 C 
ATOM      2  C   UNL     1      -1.049   0.116   2.073  0.00  0.00    +0.060 A 
ATOM      3  C   UNL     1      -2.419   0.333   2.113  0.00  0.00    +0.098 A 
ATOM      4  S   UNL     1      -2.550   1.341   3.583  0.00  0.00    -0.046 S 
ATOM      5  C   UNL     1      -0.860   1.385   3.979  0.00  0.00    +0.182 A 
ATOM      6  N   UNL     1      -0.319   0.657   3.013  0.00  0.00    -0.228 NA
ATOM      7  N   UNL     1      -0.238   2.017   5.033  0.00  0.00    -0.193 N 
ATOM      8  C   UNL     1      -0.901   2.825   6.082  0.00  0.00    +0.139 C 
ATOM      9  C   UNL     1       0.260   3.693   6.589  0.00  0.00    +0.066 C 
ATOM     10  C   UNL     1       0.271   3.800   8.115  0.00  0.00    +0.012 C 
ATOM     11  C   UNL     1       1.546   4.529   8.534  0.00  0.00    +0.005 C 
ATOM     12  C   UNL     1       2.814   3.790   8.160  0.00  0.00    +0.037 C 
ATOM     13  C   UNL     1       2.719   3.008   6.885  0.00  0.00    -0.024 C 
ATOM     14  C   UNL     1       3.828   2.442   6.367  0.00  0.00    +0.013 C 
ATOM     15  C   UNL     1       1.480   2.856   6.218  0.00  0.00    +0.068 C 
ATOM     16  N   UNL     1       1.136   2.017   5.303  0.00  0.00    -0.181 NA
ENDROOT
BRANCH  14  17
ATOM     17  C   UNL     1       5.089   2.464   7.126  0.00  0.00    -0.025 A 
ATOM     18  C   UNL     1       6.294   2.754   6.478  0.00  0.00    +0.011 A 
ATOM     19  C   UNL     1       7.470   2.778   7.195  0.00  0.00    +0.039 A 
ATOM     20  C   UNL     1       7.463   2.505   8.555  0.00  0.00    +0.123 A 
ATOM     21  C   UNL     1       6.272   2.212   9.202  0.00  0.00    +0.039 A 
ATOM     22  C   UNL     1       5.088   2.190   8.498  0.00  0.00    +0.011 A 
ATOM     23  F   UNL     1       8.620   2.525   9.251  0.00  0.00    -0.205 F 
ENDBRANCH  14  17
BRANCH   8  24
ATOM     24  C   UNL     1      -1.997   3.677   5.496  0.00  0.00    -0.024 A 
ATOM     25  C   UNL     1      -1.820   4.279   4.264  0.00  0.00    +0.008 A 
ATOM     26  C   UNL     1      -2.827   5.056   3.723  0.00  0.00    +0.038 A 
ATOM     27  C   UNL     1      -4.009   5.241   4.420  0.00  0.00    +0.123 A 
ATOM     28  C   UNL     1      -4.183   4.642   5.656  0.00  0.00    +0.038 A 
ATOM     29  C   UNL     1      -3.177   3.860   6.193  0.00  0.00    +0.008 A 
ATOM     30  F   UNL     1      -4.991   6.005   3.895  0.00  0.00    -0.205 F 
ENDBRANCH   8  24
BRANCH   3  31
ATOM     31  C   UNL     1      -3.466  -0.136   1.205  0.00  0.00    +0.252 C 
ATOM     32  O   UNL     1      -3.175  -0.824   0.244  0.00  0.00    -0.270 OA
ATOM     33  N   UNL     1      -4.752   0.195   1.431  0.00  0.00    -0.314 N 
ATOM     34  C   UNL     1      -5.801  -0.274   0.522  0.00  0.00    +0.128 C 
ATOM     35  H   UNL     1      -4.984   0.744   2.197  0.00  0.00    +0.149 HD
ENDBRANCH   3  31
TORSDOF 3
