REMARK  Name = ZINC30977837
REMARK  15 active torsions:
REMARK  status: ('A' for Active; 'I' for Inactive)
REMARK    1  A    between atoms: C_1  and  C_2
REMARK    2  A    between atoms: C_6  and  C_8
REMARK    3  A    between atoms: C_8  and  S_9
REMARK    4  A    between atoms: S_9  and  C_10
REMARK    5  A    between atoms: C_10  and  C_11
REMARK    6  A    between atoms: C_11  and  C_12
REMARK    7  A    between atoms: C_12  and  N_13
REMARK    8  A    between atoms: C_14  and  C_16
REMARK    9  A    between atoms: N_19  and  C_22
REMARK   10  A    between atoms: C_22  and  C_23
REMARK   11  A    between atoms: C_25  and  C_28
REMARK   12  A    between atoms: C_31  and  C_34
REMARK   13  A    between atoms: C_34  and  C_35
REMARK   14  A    between atoms: C_34  and  C_36
REMARK   15  A    between atoms: C_34  and  C_37
REMARK                            x       y       z     vdW  Elec       q    Type
REMARK                         _______ _______ _______ _____ _____    ______ ____
ROOT
ATOM      1  C   UNL     1      -0.220  12.549  -5.524  0.00  0.00    +0.071 C 
ATOM      2  C   UNL     1       1.032  12.138  -6.304  0.00  0.00    -0.006 C 
ATOM      3  C   UNL     1       1.035  12.841  -7.663  0.00  0.00    -0.077 C 
ATOM      4  N   UNL     1       1.017  14.296  -7.463  0.00  0.00    +0.386 N 
ATOM      5  C   UNL     1      -0.200  14.720  -6.758  0.00  0.00    -0.077 C 
ATOM      6  C   UNL     1      -0.240  14.073  -5.372  0.00  0.00    -0.006 C 
ATOM      7  H   UNL     1       1.879  14.558  -6.832  0.00  0.00    -0.081 HD
ENDROOT
BRANCH   1   9
ATOM      8  N   UNL     1      -0.179  10.564  -4.050  0.00  0.00    -0.315 N 
ATOM      9  C   UNL     1      -0.199  11.907  -4.162  0.00  0.00    +0.216 C 
ATOM     10  O   UNL     1      -0.199  12.598  -3.165  0.00  0.00    -0.276 OA
ATOM     11  H   UNL     1      -0.179   9.937  -4.953  0.00  0.00    +0.149 HD
BRANCH   8  12
ATOM     12  C   UNL     1      -0.159   9.939  -2.725  0.00  0.00    +0.105 C 
BRANCH  12  13
ATOM     13  C   UNL     1      -0.139   8.417  -2.878  0.00  0.00    +0.029 C 
BRANCH  13  14
ATOM     14  C   UNL     1      -0.118   7.765  -1.494  0.00  0.00    +0.071 C 
BRANCH  14  15
ATOM     15  S   UNL     1      -0.095   5.960  -1.677  0.00  0.00    -0.156 S 
BRANCH  15  16
ATOM     16  C   UNL     1      -0.070   5.347   0.030  0.00  0.00    +0.104 C 
BRANCH  16  22
ATOM     17  C   UNL     1      -2.514   0.980   0.019  0.00  0.00    +0.044 C 
ATOM     18  C   UNL     1      -1.219   1.751   0.017  0.00  0.00    -0.050 A 
ATOM     19  C   UNL     1      -0.013   1.076   0.008  0.00  0.00    +0.003 A 
ATOM     20  C   UNL     1       1.175   1.783   0.000  0.00  0.00    +0.001 A 
ATOM     21  C   UNL     1       1.156   3.166   0.008  0.00  0.00    +0.004 A 
ATOM     22  C   UNL     1      -0.050   3.840   0.022  0.00  0.00    -0.037 A 
ATOM     23  C   UNL     1      -1.238   3.133   0.030  0.00  0.00    +0.007 A 
ENDBRANCH  16  22
ENDBRANCH  15  16
ENDBRANCH  14  15
ENDBRANCH  13  14
ENDBRANCH  12  13
ENDBRANCH   8  12
ENDBRANCH   1   9
BRANCH   4  24
ATOM     24  C   UNL     1       1.159  15.005  -8.742  0.00  0.00    +0.022 C 
BRANCH  24  25
ATOM     25  C   UNL     1       2.525  14.734  -9.318  0.00  0.00    +0.211 A 
ATOM     26  N   UNL     1       2.849  13.753 -10.123  0.00  0.00    -0.193 NA
ATOM     27  C   UNL     1       4.168  13.911 -10.375  0.00  0.00    +0.202 A 
ATOM     28  N   UNL     1       4.564  14.967  -9.713  0.00  0.00    -0.056 NA
ATOM     29  O   UNL     1       3.632  15.452  -9.107  0.00  0.00    -0.340 OA
BRANCH  27  30
ATOM     30  C   UNL     1       5.009  13.046 -11.239  0.00  0.00    +0.022 A 
ATOM     31  C   UNL     1       4.450  11.943 -11.881  0.00  0.00    +0.012 A 
ATOM     32  C   UNL     1       5.236  11.145 -12.688  0.00  0.00    +0.005 A 
ATOM     33  C   UNL     1       6.579  11.432 -12.851  0.00  0.00    -0.042 A 
ATOM     34  C   UNL     1       7.141  12.523 -12.211  0.00  0.00    +0.005 A 
ATOM     35  C   UNL     1       6.363  13.330 -11.407  0.00  0.00    +0.012 A 
BRANCH  33  36
ATOM     36  C   UNL     1       7.434  10.554 -13.727  0.00  0.00    -0.013 C 
ATOM     37  C   UNL     1       8.568   9.953 -12.896  0.00  0.00    +0.015 C 
ATOM     38  C   UNL     1       6.577   9.428 -14.311  0.00  0.00    +0.015 C 
ATOM     39  C   UNL     1       8.023  11.389 -14.866  0.00  0.00    +0.015 C 
ENDBRANCH  33  36
ENDBRANCH  27  30
ENDBRANCH  24  25
ENDBRANCH   4  24
TORSDOF 11
