REMARK  Name = ZINC44879158
REMARK  11 active torsions:
REMARK  status: ('A' for Active; 'I' for Inactive)
REMARK    1  A    between atoms: C_1  and  C_2
REMARK    2  A    between atoms: N_7  and  C_9
REMARK    3  A    between atoms: C_9  and  C_10
REMARK    4  A    between atoms: C_13  and  C_16
REMARK    5  A    between atoms: C_16  and  N_17
REMARK    6  A    between atoms: C_18  and  C_20
REMARK    7  A    between atoms: C_20  and  O_21
REMARK    8  A    between atoms: O_21  and  C_22
REMARK    9  A    between atoms: C_25  and  C_29
REMARK   10  A    between atoms: C_29  and  C_30
REMARK   11  A    between atoms: C_29  and  C_31
REMARK                            x       y       z     vdW  Elec       q    Type
REMARK                         _______ _______ _______ _____ _____    ______ ____
ROOT
ATOM      1  C   UNL     1       1.060  -8.227   2.682  0.00  0.00    +0.139 C 
ENDROOT
BRANCH   1   5
ATOM      2  C   UNL     1       1.321  -3.966   2.518  0.00  0.00    -0.064 A 
ATOM      3  C   UNL     1       0.233  -4.569   3.122  0.00  0.00    +0.002 A 
ATOM      4  C   UNL     1       0.149  -5.948   3.174  0.00  0.00    +0.005 A 
ATOM      5  C   UNL     1       1.151  -6.724   2.623  0.00  0.00    -0.030 A 
ATOM      6  C   UNL     1       2.239  -6.121   2.019  0.00  0.00    +0.005 A 
ATOM      7  C   UNL     1       2.321  -4.742   1.963  0.00  0.00    +0.002 A 
BRANCH   2   8
ATOM      8  C   UNL     1       1.413  -2.463   2.461  0.00  0.00    -0.043 C 
BRANCH   8  14
ATOM      9  C   UNL     1      -0.019   1.526   0.010  0.00  0.00    +0.005 C 
ATOM     10  C   UNL     1       0.002  -0.004   0.002  0.00  0.00    -0.031 C 
ATOM     11  C   UNL     1       0.721  -0.499  -1.257  0.00  0.00    -0.001 C 
ATOM     12  C   UNL     1       0.805  -2.027  -1.217  0.00  0.00    -0.018 C 
ATOM     13  C   UNL     1       1.518  -2.460   0.066  0.00  0.00    -0.078 C 
ATOM     14  N   UNL     1       0.768  -1.979   1.233  0.00  0.00    +0.383 N 
ATOM     15  C   UNL     1       0.744  -0.512   1.240  0.00  0.00    -0.075 C 
ATOM     16  H   UNL     1      -0.177  -2.330   1.192  0.00  0.00    -0.081 HD
ENDBRANCH   8  14
ENDBRANCH   2   8
ENDBRANCH   1   5
BRANCH   1  17
ATOM     17  N   UNL     1       0.361  -8.720   1.492  0.00  0.00    -0.308 N 
ATOM     18  C   UNL     1       0.161 -10.043   1.328  0.00  0.00    +0.251 C 
ATOM     19  O   UNL     1       0.559 -10.825   2.165  0.00  0.00    -0.272 OA
ATOM     20  H   UNL     1       0.043  -8.094   0.823  0.00  0.00    +0.149 HD
BRANCH  18  21
ATOM     21  C   UNL     1      -0.557 -10.550   0.104  0.00  0.00    +0.324 C 
BRANCH  21  22
ATOM     22  O   UNL     1      -0.644 -11.975   0.160  0.00  0.00    -0.482 OA
BRANCH  22  23
ATOM     23  C   UNL     1      -1.268 -12.596  -0.876  0.00  0.00    +0.135 A 
ATOM     24  C   UNL     1      -1.781 -11.849  -1.927  0.00  0.00    +0.047 A 
ATOM     25  C   UNL     1      -2.414 -12.482  -2.978  0.00  0.00    +0.007 A 
ATOM     26  C   UNL     1      -2.538 -13.859  -2.985  0.00  0.00    -0.044 A 
ATOM     27  C   UNL     1      -2.029 -14.607  -1.939  0.00  0.00    +0.022 A 
ATOM     28  C   UNL     1      -1.389 -13.978  -0.887  0.00  0.00    +0.060 A 
ATOM     29 BR   UNL     1      -0.684 -15.001   0.539  0.00  0.00    -0.047 Br
BRANCH  26  30
ATOM     30  C   UNL     1      -3.231 -14.547  -4.133  0.00  0.00    +0.013 C 
ATOM     31  C   UNL     1      -2.257 -15.514  -4.810  0.00  0.00    +0.012 C 
ATOM     32  C   UNL     1      -4.440 -15.324  -3.609  0.00  0.00    +0.012 C 
ENDBRANCH  26  30
ENDBRANCH  22  23
ENDBRANCH  21  22
ENDBRANCH  18  21
ENDBRANCH   1  17
TORSDOF 8
