REMARK  Name = ZINC59255975
REMARK  5 active torsions:
REMARK  status: ('A' for Active; 'I' for Inactive)
REMARK    1  A    between atoms: C_1  and  C_2
REMARK    2  A    between atoms: C_5  and  N_8
REMARK    3  A    between atoms: C_13  and  C_39
REMARK    4  A    between atoms: N_27  and  C_30
REMARK    5  A    between atoms: C_30  and  C_31
REMARK                            x       y       z     vdW  Elec       q    Type
REMARK                         _______ _______ _______ _____ _____    ______ ____
ROOT
ATOM      1  N   UNL     1       0.059  -4.172  -0.021  0.00  0.00    -0.210 N 
ATOM      2  C   UNL     1       0.068  -4.922  -1.163  0.00  0.00    +0.232 C 
ATOM      3  O   UNL     1       0.338  -4.546  -2.283  0.00  0.00    -0.274 OA
ATOM      4  C   UNL     1      -0.324  -6.312  -0.741  0.00  0.00    +0.107 C 
ATOM      5  C   UNL     1       0.436  -7.512  -1.320  0.00  0.00    +0.064 C 
ATOM      6  N   UNL     1       0.448  -8.480  -0.173  0.00  0.00    -0.296 NA
ATOM      7  C   UNL     1       0.372  -7.677   1.087  0.00  0.00    +0.136 C 
ATOM      8  C   UNL     1       0.407  -6.268   0.661  0.00  0.00    +0.123 C 
ATOM      9  C   UNL     1       0.075  -4.939   1.118  0.00  0.00    +0.233 C 
ATOM     10  O   UNL     1      -0.143  -4.580   2.255  0.00  0.00    -0.274 OA
ATOM     11  C   UNL     1      -0.882  -8.041   1.838  0.00  0.00    +0.004 A 
ATOM     12  C   UNL     1      -2.223  -7.926   1.548  0.00  0.00    +0.008 A 
ATOM     13  C   UNL     1      -3.169  -8.358   2.460  0.00  0.00    +0.000 A 
ATOM     14  C   UNL     1      -2.764  -8.907   3.663  0.00  0.00    +0.002 A 
ATOM     15  C   UNL     1      -1.422  -9.027   3.957  0.00  0.00    +0.024 A 
ATOM     16  C   UNL     1      -0.463  -8.593   3.044  0.00  0.00    +0.042 A 
ATOM     17  N   UNL     1       0.931  -8.607   3.110  0.00  0.00    -0.265 N 
ATOM     18  C   UNL     1       1.497  -8.089   2.005  0.00  0.00    +0.246 C 
ATOM     19  O   UNL     1       2.685  -7.976   1.788  0.00  0.00    -0.273 OA
ATOM     20  C   UNL     1      -0.309  -8.098  -2.521  0.00  0.00    +0.025 C 
ATOM     21  H   UNL     1      -0.324  -9.126  -0.237  0.00  0.00    +0.123 HD
ENDROOT
BRANCH   1  26
ATOM     22  C   UNL     1      -0.018   1.503   0.010  0.00  0.00    +0.044 C 
ATOM     23  C   UNL     1       0.002  -0.004   0.002  0.00  0.00    -0.050 A 
ATOM     24  C   UNL     1       0.006  -0.688  -1.200  0.00  0.00    +0.005 A 
ATOM     25  C   UNL     1       0.025  -2.068  -1.211  0.00  0.00    +0.024 A 
ATOM     26  C   UNL     1       0.040  -2.771  -0.013  0.00  0.00    +0.044 A 
ATOM     27  C   UNL     1       0.037  -2.082   1.192  0.00  0.00    +0.024 A 
ATOM     28  C   UNL     1       0.023  -0.700   1.196  0.00  0.00    +0.005 A 
ENDBRANCH   1  26
BRANCH  17  29
ATOM     29  C   UNL     1       1.690  -9.126   4.250  0.00  0.00    +0.149 C 
BRANCH  29  30
ATOM     30  C   UNL     1       1.966 -10.593   4.045  0.00  0.00    -0.028 A 
ATOM     31  C   UNL     1       1.065 -11.537   4.504  0.00  0.00    +0.007 A 
ATOM     32  C   UNL     1       1.317 -12.882   4.317  0.00  0.00    +0.022 A 
ATOM     33  C   UNL     1       2.471 -13.287   3.669  0.00  0.00    +0.059 A 
ATOM     34  C   UNL     1       3.372 -12.342   3.209  0.00  0.00    +0.060 A 
ATOM     35  C   UNL     1       3.116 -10.995   3.393  0.00  0.00    +0.026 A 
ATOM     36 CL   UNL     1       4.821 -12.848   2.396  0.00  0.00    -0.082 Cl
ATOM     37 CL   UNL     1       2.788 -14.977   3.434  0.00  0.00    -0.082 Cl
ENDBRANCH  29  30
ENDBRANCH  17  29
TORSDOF 3
