REMARK  Name = ZINC08766405
REMARK  19 active torsions:
REMARK  status: ('A' for Active; 'I' for Inactive)
REMARK    1  A    between atoms: C_1  and  C_2
REMARK    2  A    between atoms: C_2  and  O_3
REMARK    3  A    between atoms: O_3  and  C_4
REMARK    4  A    between atoms: C_6  and  C_16
REMARK    5  A    between atoms: C_8  and  O_13
REMARK    6  A    between atoms: C_9  and  O_10
REMARK    7  A    between atoms: O_10  and  C_11
REMARK    8  A    between atoms: C_11  and  C_12
REMARK    9  A    between atoms: O_13  and  C_14
REMARK   10  A    between atoms: C_14  and  C_15
REMARK   11  A    between atoms: C_16  and  O_18
REMARK   12  A    between atoms: O_18  and  C_19
REMARK   13  A    between atoms: C_19  and  C_20
REMARK   14  A    between atoms: N_22  and  C_23
REMARK   15  A    between atoms: C_24  and  C_34
REMARK   16  A    between atoms: C_29  and  C_33
REMARK   17  A    between atoms: C_34  and  O_36
REMARK   18  A    between atoms: O_36  and  C_37
REMARK   19  A    between atoms: C_37  and  C_38
REMARK                            x       y       z     vdW  Elec       q    Type
REMARK                         _______ _______ _______ _____ _____    ______ ____
ROOT
ATOM      1  C   UNL     1       1.205   4.142  -4.925  0.00  0.00    +0.328 C 
ENDROOT
BRANCH   1   2
ATOM      2  C   UNL     1       1.240   4.657  -3.509  0.00  0.00    +0.255 C 
ATOM      3  O   UNL     1       1.288   5.851  -3.300  0.00  0.00    -0.272 OA
ATOM      4  N   UNL     1       1.216   3.792  -2.476  0.00  0.00    -0.277 N 
ATOM      5  H   UNL     1       1.177   2.837  -2.644  0.00  0.00    +0.155 HD
BRANCH   4   6
ATOM      6  C   UNL     1       1.249   4.266  -1.174  0.00  0.00    +0.086 A 
ATOM      7  C   UNL     1       1.232   3.540   0.009  0.00  0.00    +0.091 A 
ATOM      8  C   UNL     1       1.268   4.287   1.256  0.00  0.00    -0.021 A 
ATOM      9  C   UNL     1       1.325   5.629   1.120  0.00  0.00    -0.004 A 
ATOM     10  S   UNL     1       1.318   5.909  -0.628  0.00  0.00    -0.077 S 
ATOM     11  C   UNL     1       1.377   6.646   2.218  0.00  0.00    +0.046 C 
ATOM     12  C   UNL     1       1.724   5.929   3.528  0.00  0.00    -0.009 C 
ATOM     13  C   UNL     1       0.838   4.687   3.667  0.00  0.00    +0.008 C 
ATOM     14  C   UNL     1       1.249   3.637   2.634  0.00  0.00    +0.037 C 
ATOM     15  C   UNL     1       1.480   6.868   4.711  0.00  0.00    +0.008 C 
BRANCH   7  16
ATOM     16  C   UNL     1       1.176   2.076   0.002  0.00  0.00    +0.342 C 
ATOM     17  O   UNL     1       2.205   1.428  -0.011  0.00  0.00    -0.245 OA
BRANCH  16  18
ATOM     18  O   UNL     1      -0.018   1.448   0.010  0.00  0.00    -0.461 OA
BRANCH  18  19
ATOM     19  C   UNL     1       0.002  -0.004   0.002  0.00  0.00    +0.229 C 
ATOM     20  C   UNL     1      -1.433  -0.534   0.013  0.00  0.00    +0.048 C 
ENDBRANCH  18  19
ENDBRANCH  16  18
ENDBRANCH   7  16
ENDBRANCH   4   6
ENDBRANCH   1   2
BRANCH   1  21
ATOM     21  O   UNL     1       1.239   5.261  -5.849  0.00  0.00    -0.452 OA
BRANCH  21  22
ATOM     22  C   UNL     1       1.214   4.970  -7.164  0.00  0.00    +0.340 C 
ATOM     23  O   UNL     1       1.165   3.812  -7.529  0.00  0.00    -0.245 OA
BRANCH  22  26
ATOM     24  C   UNL     1       1.250   6.777 -10.457  0.00  0.00    +0.166 A 
ATOM     25  C   UNL     1       1.220   5.756  -9.525  0.00  0.00    +0.064 A 
ATOM     26  C   UNL     1       1.246   6.057  -8.161  0.00  0.00    +0.066 A 
ATOM     27  C   UNL     1       1.297   7.389  -7.742  0.00  0.00    +0.064 A 
ATOM     28  C   UNL     1       1.333   8.405  -8.678  0.00  0.00    +0.166 A 
ATOM     29  C   UNL     1       1.306   8.103 -10.037  0.00  0.00    +0.204 A 
BRANCH  24  30
ATOM     30  O   UNL     1       1.225   6.485 -11.785  0.00  0.00    -0.488 OA
BRANCH  30  32
ATOM     31  C   UNL     1       1.146   4.973 -13.669  0.00  0.00    +0.048 C 
ATOM     32  C   UNL     1       1.167   5.103 -12.145  0.00  0.00    +0.226 C 
ENDBRANCH  30  32
ENDBRANCH  24  30
BRANCH  29  33
ATOM     33  O   UNL     1       1.335   9.104 -10.956  0.00  0.00    -0.485 OA
BRANCH  33  34
ATOM     34  C   UNL     1       0.077   9.632 -11.380  0.00  0.00    +0.226 C 
ATOM     35  C   UNL     1       0.310  10.742 -12.408  0.00  0.00    +0.048 C 
ENDBRANCH  33  34
ENDBRANCH  29  33
BRANCH  28  36
ATOM     36  O   UNL     1       1.388   9.702  -8.272  0.00  0.00    -0.488 OA
BRANCH  36  37
ATOM     37  C   UNL     1       1.412   9.940  -6.863  0.00  0.00    +0.226 C 
ATOM     38  C   UNL     1       1.474  11.446  -6.601  0.00  0.00    +0.048 C 
ENDBRANCH  36  37
ENDBRANCH  28  36
ENDBRANCH  22  26
ENDBRANCH  21  22
ENDBRANCH   1  21
TORSDOF 14
