REMARK  Name = ZINC08951398
REMARK  7 active torsions:
REMARK  status: ('A' for Active; 'I' for Inactive)
REMARK    1  A    between atoms: C_1  and  C_2
REMARK    2  A    between atoms: C_2  and  C_28
REMARK    3  A    between atoms: C_3  and  N_16
REMARK    4  A    between atoms: N_5  and  N_9
REMARK    5  A    between atoms: C_10  and  C_11
REMARK    6  A    between atoms: N_16  and  O_27
REMARK    7  A    between atoms: N_19  and  C_20
REMARK                            x       y       z     vdW  Elec       q    Type
REMARK                         _______ _______ _______ _____ _____    ______ ____
ROOT
ATOM      1  C   UNL     1       2.584  -0.406  -0.176  0.00  0.00    +0.026 C 
ATOM      2  C   UNL     1       1.165   0.098  -0.450  0.00  0.00    +0.056 C 
ATOM      3  C   UNL     1       0.117  -0.766   0.282  0.00  0.00    +0.232 C 
ATOM      4  N   UNL     1      -0.654  -0.026   1.253  0.00  0.00    -0.187 N 
ATOM      5  C   UNL     1      -0.435   1.281   1.455  0.00  0.00    +0.132 C 
ATOM      6  S   UNL     1      -1.252   2.308   2.553  0.00  0.00    -0.026 S 
ATOM      7  S   UNL     1       0.879   1.728   0.338  0.00  0.00    -0.091 S 
ATOM      8  C   UNL     1       0.883   0.153  -1.953  0.00  0.00    +0.026 C 
ENDROOT
BRANCH   3   9
ATOM      9  N   UNL     1       0.806  -1.864   0.965  0.00  0.00    -0.143 N 
ATOM     10  C   UNL     1       0.597  -3.137   0.575  0.00  0.00    +0.331 C 
ATOM     11  O   UNL     1      -0.236  -3.384  -0.275  0.00  0.00    -0.250 OA
ATOM     12  N   UNL     1       1.312  -4.137   1.128  0.00  0.00    -0.268 N 
ATOM     13  H   UNL     1       1.929  -3.949   1.853  0.00  0.00    +0.156 HD
BRANCH  12  14
ATOM     14  C   UNL     1       1.164  -5.447   0.657  0.00  0.00    +0.035 A 
ATOM     15  C   UNL     1       0.900  -5.677  -0.687  0.00  0.00    +0.025 A 
ATOM     16  C   UNL     1       0.759  -6.970  -1.150  0.00  0.00    +0.022 A 
ATOM     17  C   UNL     1       0.870  -8.036  -0.275  0.00  0.00    +0.041 A 
ATOM     18  C   UNL     1       1.129  -7.809   1.066  0.00  0.00    +0.022 A 
ATOM     19  C   UNL     1       1.276  -6.518   1.533  0.00  0.00    +0.025 A 
ATOM     20 CL   UNL     1       0.686  -9.660  -0.859  0.00  0.00    -0.084 Cl
ENDBRANCH  12  14
BRANCH   9  21
ATOM     21  O   UNL     1       1.692  -1.587   2.034  0.00  0.00    -0.289 OA
ATOM     22  H   UNL     1       2.155  -2.365   2.373  0.00  0.00    +0.242 HD
ENDBRANCH   9  21
ENDBRANCH   3   9
BRANCH   4  23
ATOM     23  N   UNL     1      -1.644  -0.684   1.995  0.00  0.00    -0.184 NA
ATOM     24  C   UNL     1      -2.891  -0.338   1.866  0.00  0.00    +0.145 C 
BRANCH  24  25
ATOM     25  C   UNL     1      -3.914  -0.945   2.724  0.00  0.00    +0.032 A 
ATOM     26  C   UNL     1      -5.278  -0.715   2.752  0.00  0.00    +0.017 A 
ATOM     27  C   UNL     1      -6.041  -1.419   3.656  0.00  0.00    +0.008 A 
ATOM     28  C   UNL     1      -5.436  -2.301   4.492  0.00  0.00    +0.046 A 
ATOM     29  S   UNL     1      -3.722  -2.168   4.011  0.00  0.00    -0.096 S 
ENDBRANCH  24  25
ENDBRANCH   4  23
TORSDOF 5
