REMARK  Name = ZINC20190917
REMARK  14 active torsions:
REMARK  status: ('A' for Active; 'I' for Inactive)
REMARK    1  A    between atoms: C_1  and  C_2
REMARK    2  A    between atoms: C_2  and  S_3
REMARK    3  A    between atoms: S_3  and  C_4
REMARK    4  A    between atoms: C_4  and  C_5
REMARK    5  A    between atoms: C_5  and  O_6
REMARK    6  A    between atoms: O_6  and  C_7
REMARK    7  A    between atoms: C_7  and  C_9
REMARK    8  A    between atoms: C_10  and  C_40
REMARK    9  A    between atoms: C_14  and  C_16
REMARK   10  A    between atoms: C_22  and  C_27
REMARK   11  A    between atoms: C_30  and  C_36
REMARK   12  A    between atoms: C_32  and  C_35
REMARK   13  A    between atoms: C_36  and  O_38
REMARK   14  A    between atoms: O_38  and  C_39
REMARK                            x       y       z     vdW  Elec       q    Type
REMARK                         _______ _______ _______ _____ _____    ______ ____
ROOT
ATOM      1  C   UNL     1       1.133   2.060   0.002  0.00  0.00    +0.065 C 
ATOM      2  C   UNL     1      -0.017   1.363   0.009  0.00  0.00    +0.016 C 
ATOM      3  N   UNL     1       0.002  -0.004   0.002  0.00  0.00    -0.321 N 
ATOM      4  C   UNL     1       1.118  -0.685  -0.404  0.00  0.00    +0.016 C 
ATOM      5  C   UNL     1       2.321  -0.072  -0.436  0.00  0.00    +0.025 C 
ATOM      6  C   UNL     1       2.463   1.367  -0.007  0.00  0.00    +0.099 C 
ATOM      7  C   UNL     1       3.472  -0.755  -0.866  0.00  0.00    +0.176 C 
ATOM      8  O   UNL     1       4.540  -0.176  -0.875  0.00  0.00    -0.291 OA
ATOM      9  C   UNL     1       3.405  -2.189  -1.315  0.00  0.00    +0.171 C 
ATOM     10  C   UNL     1       2.010  -2.471  -1.881  0.00  0.00    +0.013 C 
ATOM     11  C   UNL     1       0.973  -2.131  -0.808  0.00  0.00    +0.055 C 
ATOM     12  C   UNL     1       1.896  -3.950  -2.256  0.00  0.00    +0.009 C 
ATOM     13  C   UNL     1      -1.335   2.093   0.020  0.00  0.00    +0.061 C 
ATOM     14  H   UNL     1      -0.886  -0.568   0.324  0.00  0.00    +0.152 HD
ENDROOT
BRANCH   6  15
ATOM     15  C   UNL     1       3.055   1.414   1.378  0.00  0.00    +0.047 A 
ATOM     16  C   UNL     1       2.417   0.828   2.407  0.00  0.00    +0.204 A 
ATOM     17  O   UNL     1       2.894   0.837   3.656  0.00  0.00    -0.462 OA
ATOM     18  C   UNL     1       4.056   1.438   3.982  0.00  0.00    +0.138 A 
ATOM     19  C   UNL     1       4.524   1.430   5.291  0.00  0.00    +0.047 A 
ATOM     20  C   UNL     1       5.715   2.051   5.599  0.00  0.00    +0.007 A 
ATOM     21  C   UNL     1       6.457   2.688   4.614  0.00  0.00    -0.050 A 
ATOM     22  C   UNL     1       6.012   2.707   3.311  0.00  0.00    +0.018 A 
ATOM     23  C   UNL     1       4.809   2.082   2.987  0.00  0.00    +0.064 A 
ATOM     24  C   UNL     1       4.293   2.072   1.604  0.00  0.00    +0.197 A 
ATOM     25  O   UNL     1       4.902   2.609   0.695  0.00  0.00    -0.287 OA
ATOM     26  C   UNL     1       7.757   3.362   4.973  0.00  0.00    +0.044 C 
ENDBRANCH   6  15
BRANCH   1  27
ATOM     27  C   UNL     1       1.087   3.473   0.003  0.00  0.00    +0.338 C 
ATOM     28  O   UNL     1       0.014   4.047   0.010  0.00  0.00    -0.245 OA
BRANCH  27  29
ATOM     29  O   UNL     1       2.233   4.186  -0.004  0.00  0.00    -0.460 OA
BRANCH  29  30
ATOM     30  C   UNL     1       2.112   5.609  -0.003  0.00  0.00    +0.243 C 
BRANCH  30  31
ATOM     31  C   UNL     1       3.506   6.240  -0.012  0.00  0.00    +0.110 C 
BRANCH  31  32
ATOM     32  S   UNL     1       3.353   8.047  -0.010  0.00  0.00    -0.158 S 
BRANCH  32  34
ATOM     33  C   UNL     1       5.086  10.163  -0.021  0.00  0.00    +0.015 C 
ATOM     34  C   UNL     1       5.070   8.633  -0.021  0.00  0.00    +0.066 C 
ENDBRANCH  32  34
ENDBRANCH  31  32
ENDBRANCH  30  31
ENDBRANCH  29  30
ENDBRANCH  27  29
ENDBRANCH   1  27
BRANCH   9  35
ATOM     35  C   UNL     1       4.441  -2.434  -2.382  0.00  0.00    +0.318 C 
ATOM     36  O   UNL     1       4.100  -2.797  -3.483  0.00  0.00    -0.250 OA
BRANCH  35  37
ATOM     37  O   UNL     1       5.742  -2.250  -2.109  0.00  0.00    -0.467 OA
ATOM     38  C   UNL     1       6.684  -2.504  -3.184  0.00  0.00    +0.280 C 
ENDBRANCH  35  37
ENDBRANCH   9  35
TORSDOF 9
