REMARK  Name = ZINC12436334
REMARK  7 active torsions:
REMARK  status: ('A' for Active; 'I' for Inactive)
REMARK    1  A    between atoms: C_1  and  C_2
REMARK    2  A    between atoms: C_3  and  C_15
REMARK    3  A    between atoms: N_6  and  C_7
REMARK    4  A    between atoms: C_15  and  C_17
REMARK    5  A    between atoms: C_15  and  N_47
REMARK    6  A    between atoms: C_18  and  C_19
REMARK    7  A    between atoms: C_18  and  N_47
REMARK                            x       y       z     vdW  Elec       q    Type
REMARK                         _______ _______ _______ _____ _____    ______ ____
ROOT
ATOM      1  C   UNL     1      -4.200   0.880  -1.339  0.00  0.00    -0.040 C 
ATOM      2  C   UNL     1      -4.142   2.320  -0.823  0.00  0.00    -0.009 C 
ENDROOT
BRANCH   1   5
ATOM      3  C   UNL     1      -7.241   1.036  -2.059  0.00  0.00    +0.066 C 
ATOM      4  C   UNL     1      -6.100   0.935  -3.039  0.00  0.00    +0.044 A 
ATOM      5  C   UNL     1      -4.784   0.868  -2.728  0.00  0.00    -0.021 A 
ATOM      6  C   UNL     1      -4.064   0.778  -3.924  0.00  0.00    +0.137 A 
ATOM      7  N   UNL     1      -4.915   0.797  -4.918  0.00  0.00    -0.174 NA
ATOM      8  N   UNL     1      -6.207   0.898  -4.386  0.00  0.00    -0.234 N 
BRANCH   8   9
ATOM      9  C   UNL     1      -7.401   0.947  -5.121  0.00  0.00    +0.101 A 
ATOM     10  C   UNL     1      -8.360   1.905  -4.826  0.00  0.00    +0.033 A 
ATOM     11  C   UNL     1      -9.533   1.956  -5.554  0.00  0.00    +0.040 A 
ATOM     12  C   UNL     1      -9.758   1.043  -6.572  0.00  0.00    +0.126 A 
ATOM     13  C   UNL     1      -8.806   0.082  -6.866  0.00  0.00    +0.078 A 
ATOM     14  C   UNL     1      -7.627   0.032  -6.143  0.00  0.00    +0.151 A 
ATOM     15  F   UNL     1      -6.698  -0.906  -6.429  0.00  0.00    -0.203 F 
ATOM     16  F   UNL     1     -10.908   1.092  -7.279  0.00  0.00    -0.205 F 
ENDBRANCH   8   9
ENDBRANCH   1   5
BRANCH   1  17
ATOM     17  N   UNL     1      -2.837   0.317  -1.382  0.00  0.00    +0.386 N 
ATOM     18  H   UNL     1      -2.173   1.058  -1.638  0.00  0.00    -0.085 HD
ATOM     19  H   UNL     1      -2.802  -0.431  -2.084  0.00  0.00    -0.085 HD
BRANCH  17  20
ATOM     20  C   UNL     1      -2.469  -0.234  -0.065  0.00  0.00    -0.045 C 
BRANCH  20  21
ATOM     21  C   UNL     1      -1.074  -0.801  -0.139  0.00  0.00    -0.054 A 
ATOM     22  C   UNL     1      -0.869  -2.143  -0.285  0.00  0.00    +0.022 A 
ATOM     23  C   UNL     1       0.429  -2.645  -0.350  0.00  0.00    +0.111 A 
ATOM     24  N   UNL     1       1.476  -1.861  -0.276  0.00  0.00    -0.255 NA
ATOM     25  C   UNL     1       1.345  -0.538  -0.133  0.00  0.00    +0.071 A 
ATOM     26  C   UNL     1       0.053   0.038  -0.059  0.00  0.00    +0.002 A 
ATOM     27  C   UNL     1      -0.080   1.428   0.090  0.00  0.00    +0.010 A 
ATOM     28  C   UNL     1       1.035   2.206   0.163  0.00  0.00    +0.001 A 
ATOM     29  C   UNL     1       2.307   1.641   0.091  0.00  0.00    +0.002 A 
ATOM     30  C   UNL     1       2.472   0.299  -0.054  0.00  0.00    +0.028 A 
ENDBRANCH  20  21
ENDBRANCH  17  20
ENDBRANCH   1  17
TORSDOF 5
