REMARK  Name = ZINC34829842
REMARK  6 active torsions:
REMARK  status: ('A' for Active; 'I' for Inactive)
REMARK    1  A    between atoms: C_1  and  C_2
REMARK    2  A    between atoms: C_7  and  C_8
REMARK    3  A    between atoms: N_17  and  C_18
REMARK    4  A    between atoms: C_18  and  C_19
REMARK    5  A    between atoms: C_25  and  C_28
REMARK    6  A    between atoms: C_29  and  C_31
REMARK                            x       y       z     vdW  Elec       q    Type
REMARK                         _______ _______ _______ _____ _____    ______ ____
ROOT
ATOM      1  C   UNL     1      -1.672  -3.361   3.806  0.00  0.00    +0.199 C 
ATOM      2  O   UNL     1      -0.731  -3.886   4.363  0.00  0.00    -0.278 OA
ATOM      3  N   UNL     1      -2.931  -3.710   4.136  0.00  0.00    -0.300 N 
ATOM      4  C   UNL     1      -4.080  -3.087   3.464  0.00  0.00    +0.126 C 
ATOM      5  C   UNL     1      -5.000  -2.479   4.530  0.00  0.00    +0.127 C 
ATOM      6  N   UNL     1      -5.249  -3.490   5.568  0.00  0.00    -0.292 N 
ATOM      7  C   UNL     1      -4.100  -4.113   6.239  0.00  0.00    +0.091 C 
ATOM      8  C   UNL     1      -3.180  -4.725   5.169  0.00  0.00    +0.130 C 
ATOM      9  C   UNL     1      -3.336  -3.055   7.039  0.00  0.00    +0.029 C 
ATOM     10  C   UNL     1      -6.508  -3.838   5.898  0.00  0.00    +0.247 C 
ATOM     11  O   UNL     1      -7.448  -3.387   5.272  0.00  0.00    -0.270 OA
ENDROOT
BRANCH  10  12
ATOM     12  C   UNL     1      -6.747  -4.769   7.019  0.00  0.00    +0.041 A 
ATOM     13  C   UNL     1      -6.001  -4.654   8.195  0.00  0.00    +0.017 A 
ATOM     14  C   UNL     1      -6.226  -5.523   9.240  0.00  0.00    +0.050 A 
ATOM     15  C   UNL     1      -7.192  -6.514   9.130  0.00  0.00    +0.166 A 
ATOM     16  C   UNL     1      -7.939  -6.634   7.958  0.00  0.00    +0.167 A 
ATOM     17  C   UNL     1      -7.723  -5.763   6.908  0.00  0.00    +0.062 A 
ATOM     18  O   UNL     1      -8.812  -7.675   8.102  0.00  0.00    -0.453 OA
ATOM     19  C   UNL     1      -8.310  -8.445   9.211  0.00  0.00    +0.466 C 
ATOM     20  O   UNL     1      -7.598  -7.478  10.005  0.00  0.00    -0.453 OA
ENDBRANCH  10  12
BRANCH   1  21
ATOM     21  C   UNL     1      -1.432  -2.319   2.744  0.00  0.00    +0.020 C 
BRANCH  21  30
ATOM     22  C   UNL     1       0.242  -1.194   1.455  0.00  0.00    -0.005 C 
ATOM     23  C   UNL     1       1.738  -0.911   1.348  0.00  0.00    -0.047 A 
ATOM     24  C   UNL     1       2.356  -0.409   0.206  0.00  0.00    +0.010 A 
ATOM     25  C   UNL     1       3.692  -0.191   0.200  0.00  0.00    +0.045 A 
ATOM     26  S   UNL     1       4.156  -0.698   1.850  0.00  0.00    -0.101 S 
ATOM     27  C   UNL     1       2.544  -1.157   2.419  0.00  0.00    -0.010 A 
ATOM     28  C   UNL     1       2.117  -1.689   3.748  0.00  0.00    +0.024 C 
ATOM     29  C   UNL     1       0.583  -1.587   3.816  0.00  0.00    -0.072 C 
ATOM     30  N   UNL     1       0.013  -2.120   2.571  0.00  0.00    +0.393 N 
ATOM     31  H   UNL     1       0.447  -3.006   2.361  0.00  0.00    -0.080 HD
BRANCH  22  38
ATOM     32  C   UNL     1      -0.567   0.489  -0.750  0.00  0.00    +0.044 C 
ATOM     33  C   UNL     1      -0.635  -1.011  -0.882  0.00  0.00    -0.049 A 
ATOM     34  C   UNL     1      -1.079  -1.582  -2.060  0.00  0.00    +0.003 A 
ATOM     35  C   UNL     1      -1.141  -2.957  -2.181  0.00  0.00    +0.000 A 
ATOM     36  C   UNL     1      -0.759  -3.762  -1.124  0.00  0.00    +0.000 A 
ATOM     37  C   UNL     1      -0.314  -3.192   0.054  0.00  0.00    +0.002 A 
ATOM     38  C   UNL     1      -0.248  -1.816   0.173  0.00  0.00    -0.054 A 
ENDBRANCH  22  38
ENDBRANCH  21  30
ENDBRANCH   1  21
TORSDOF 4
