REMARK  Name = ZINC22222393
REMARK  10 active torsions:
REMARK  status: ('A' for Active; 'I' for Inactive)
REMARK    1  A    between atoms: C_1  and  C_2
REMARK    2  A    between atoms: C_2  and  C_3
REMARK    3  A    between atoms: C_3  and  C_4
REMARK    4  A    between atoms: C_7  and  C_10
REMARK    5  A    between atoms: C_10  and  C_38
REMARK    6  A    between atoms: N_13  and  C_17
REMARK    7  A    between atoms: C_17  and  C_18
REMARK    8  A    between atoms: C_21  and  C_33
REMARK    9  A    between atoms: C_24  and  C_26
REMARK   10  A    between atoms: C_29  and  C_32
REMARK                            x       y       z     vdW  Elec       q    Type
REMARK                         _______ _______ _______ _____ _____    ______ ____
ROOT
ATOM      1  C   UNL     1       6.165  -0.225  -2.785  0.00  0.00    +0.215 C 
ENDROOT
BRANCH   1   5
ATOM      2  C   UNL     1       3.711  -0.707  -0.039  0.00  0.00    +0.135 C 
ATOM      3  C   UNL     1       4.769   0.109  -0.755  0.00  0.00    +0.251 C 
ATOM      4  O   UNL     1       5.186   1.204  -0.443  0.00  0.00    -0.272 OA
ATOM      5  N   UNL     1       5.150  -0.636  -1.811  0.00  0.00    -0.215 N 
ATOM      6  C   UNL     1       4.487  -1.797  -1.862  0.00  0.00    +0.310 C 
ATOM      7  O   UNL     1       4.658  -2.636  -2.724  0.00  0.00    -0.252 OA
ATOM      8  N   UNL     1       3.610  -1.932  -0.851  0.00  0.00    -0.281 N 
ATOM      9  C   UNL     1       4.160  -1.038   1.386  0.00  0.00    +0.047 C 
ATOM     10  H   UNL     1       2.903  -2.725  -0.564  0.00  0.00    +0.152 HD
BRANCH   2  14
ATOM     11  C   UNL     1      -0.017   1.378   0.010  0.00  0.00    -0.047 A 
ATOM     12  C   UNL     1       1.171   2.086   0.002  0.00  0.00    +0.004 A 
ATOM     13  C   UNL     1       2.377   1.411  -0.015  0.00  0.00    +0.006 A 
ATOM     14  C   UNL     1       2.396   0.029  -0.022  0.00  0.00    -0.015 A 
ATOM     15  C   UNL     1       1.208  -0.679  -0.013  0.00  0.00    +0.006 A 
ATOM     16  C   UNL     1       0.002  -0.004   0.002  0.00  0.00    +0.004 A 
BRANCH  11  17
ATOM     17  C   UNL     1      -1.332   2.114   0.020  0.00  0.00    +0.035 C 
BRANCH  17  19
ATOM     18  C   UNL     1      -3.105   3.102   1.476  0.00  0.00    +0.004 C 
ATOM     19  C   UNL     1      -1.770   2.355   1.466  0.00  0.00    +0.001 C 
ENDBRANCH  17  19
ENDBRANCH  11  17
ENDBRANCH   2  14
ENDBRANCH   1   5
BRANCH   1  20
ATOM     20  C   UNL     1       7.521  -0.694  -2.325  0.00  0.00    +0.253 C 
ATOM     21  O   UNL     1       7.630  -1.311  -1.286  0.00  0.00    -0.272 OA
ATOM     22  N   UNL     1       8.614  -0.428  -3.068  0.00  0.00    -0.181 N 
ATOM     23  C   UNL     1       9.992  -0.826  -2.737  0.00  0.00    +0.173 C 
ATOM     24  C   UNL     1      10.820  -0.271  -3.913  0.00  0.00    +0.090 C 
ATOM     25  C   UNL     1       9.793   0.395  -4.800  0.00  0.00    +0.069 C 
ATOM     26  N   UNL     1       8.623   0.263  -4.278  0.00  0.00    -0.181 NA
BRANCH  25  27
ATOM     27  C   UNL     1      10.085   1.085  -6.071  0.00  0.00    -0.002 A 
ATOM     28  C   UNL     1      11.398   1.166  -6.540  0.00  0.00    +0.010 A 
ATOM     29  C   UNL     1      11.663   1.808  -7.731  0.00  0.00    +0.004 A 
ATOM     30  C   UNL     1      10.633   2.381  -8.456  0.00  0.00    -0.050 A 
ATOM     31  C   UNL     1       9.330   2.309  -7.995  0.00  0.00    +0.004 A 
ATOM     32  C   UNL     1       9.050   1.665  -6.808  0.00  0.00    +0.010 A 
ATOM     33  C   UNL     1      10.931   3.086  -9.754  0.00  0.00    +0.044 C 
ENDBRANCH  25  27
BRANCH  23  34
ATOM     34  C   UNL     1      10.109  -2.326  -2.667  0.00  0.00    +0.128 A 
ATOM     35  C   UNL     1      10.845  -3.018  -1.779  0.00  0.00    +0.046 A 
ATOM     36  C   UNL     1      10.664  -4.388  -2.075  0.00  0.00    +0.041 A 
ATOM     37  C   UNL     1       9.829  -4.452  -3.128  0.00  0.00    +0.195 A 
ATOM     38  O   UNL     1       9.491  -3.201  -3.478  0.00  0.00    -0.466 OA
ENDBRANCH  23  34
ENDBRANCH   1  20
TORSDOF 7
