REMARK  Name = ZINC38546595
REMARK  9 active torsions:
REMARK  status: ('A' for Active; 'I' for Inactive)
REMARK    1  A    between atoms: C_1  and  C_2
REMARK    2  A    between atoms: C_2  and  N_3
REMARK    3  A    between atoms: N_6  and  C_9
REMARK    4  A    between atoms: C_9  and  C_11
REMARK    5  A    between atoms: C_9  and  C_19
REMARK    6  A    between atoms: C_14  and  S_17
REMARK    7  A    between atoms: S_17  and  C_18
REMARK    8  A    between atoms: C_23  and  N_24
REMARK    9  A    between atoms: C_25  and  C_27
REMARK                            x       y       z     vdW  Elec       q    Type
REMARK                         _______ _______ _______ _____ _____    ______ ____
ROOT
ATOM      1  C   UNL     1       3.483  -2.464  -3.743  0.00  0.00    +0.120 C 
ENDROOT
BRANCH   1   2
ATOM      2  C   UNL     1       3.612  -3.964  -3.677  0.00  0.00    +0.006 A 
ATOM      3  C   UNL     1       4.870  -4.562  -3.755  0.00  0.00    -0.030 A 
ATOM      4  C   UNL     1       4.905  -5.920  -3.688  0.00  0.00    -0.005 A 
ATOM      5  S   UNL     1       3.202  -6.382  -3.516  0.00  0.00    -0.078 S 
ATOM      6  C   UNL     1       2.503  -4.738  -3.536  0.00  0.00    +0.078 A 
ATOM      7  C   UNL     1       6.108  -6.804  -3.748  0.00  0.00    +0.043 C 
ATOM      8  C   UNL     1       7.292  -5.975  -4.266  0.00  0.00    +0.005 C 
ATOM      9  C   UNL     1       7.340  -4.652  -3.496  0.00  0.00    +0.005 C 
ATOM     10  C   UNL     1       6.163  -3.765  -3.906  0.00  0.00    +0.036 C 
BRANCH   6  11
ATOM     11  N   UNL     1       1.165  -4.349  -3.434  0.00  0.00    -0.273 N 
ATOM     12  C   UNL     1       0.192  -5.282  -3.415  0.00  0.00    +0.284 C 
ATOM     13  O   UNL     1       0.479  -6.463  -3.487  0.00  0.00    -0.266 OA
ATOM     14  H   UNL     1       0.937  -3.408  -3.378  0.00  0.00    +0.156 HD
BRANCH  12  15
ATOM     15  C   UNL     1      -1.212  -4.873  -3.309  0.00  0.00    +0.189 A 
ATOM     16  C   UNL     1      -2.291  -5.710  -3.274  0.00  0.00    +0.054 A 
ATOM     17  C   UNL     1      -3.429  -4.897  -3.167  0.00  0.00    +0.042 A 
ATOM     18  C   UNL     1      -3.002  -3.615  -3.143  0.00  0.00    +0.196 A 
ATOM     19  O   UNL     1      -1.665  -3.605  -3.223  0.00  0.00    -0.458 OA
ENDBRANCH  12  15
ENDBRANCH   6  11
ENDBRANCH   1   2
BRANCH   1  23
ATOM     20  N   UNL     1       1.752  -0.578  -0.379  0.00  0.00    +0.381 N 
ATOM     21  C   UNL     1       1.853  -2.043  -0.373  0.00  0.00    -0.063 C 
ATOM     22  C   UNL     1       2.907  -2.486  -1.391  0.00  0.00    +0.067 C 
ATOM     23  N   UNL     1       2.524  -2.010  -2.727  0.00  0.00    -0.295 NA
ATOM     24  C   UNL     1       2.394  -0.546  -2.743  0.00  0.00    +0.067 C 
ATOM     25  C   UNL     1       1.344  -0.119  -1.714  0.00  0.00    -0.063 C 
ATOM     26  H   UNL     1       2.648  -0.178  -0.146  0.00  0.00    -0.082 HD
BRANCH  20  28
ATOM     27  C   UNL     1       1.238  -0.520   2.014  0.00  0.00    -0.017 C 
ATOM     28  C   UNL     1       0.753  -0.152   0.610  0.00  0.00    -0.082 C 
ENDBRANCH  20  28
ENDBRANCH   1  23
BRANCH   1  29
ATOM     29  C   UNL     1       2.994  -2.062  -5.111  0.00  0.00    -0.026 A 
ATOM     30  C   UNL     1       1.637  -1.997  -5.367  0.00  0.00    +0.006 A 
ATOM     31  C   UNL     1       1.185  -1.630  -6.619  0.00  0.00    +0.015 A 
ATOM     32  C   UNL     1       2.097  -1.324  -7.622  0.00  0.00    +0.008 A 
ATOM     33  C   UNL     1       3.461  -1.389  -7.361  0.00  0.00    +0.015 A 
ATOM     34  C   UNL     1       3.905  -1.753  -6.105  0.00  0.00    +0.006 A 
BRANCH  32  35
ATOM     35  S   UNL     1       1.526  -0.854  -9.222  0.00  0.00    -0.129 S 
ATOM     36  C   UNL     1       3.049  -0.561 -10.163  0.00  0.00    +0.090 C 
ENDBRANCH  32  35
ENDBRANCH   1  29
TORSDOF 7
