REMARK  Name = ZINC40709614
REMARK  8 active torsions:
REMARK  status: ('A' for Active; 'I' for Inactive)
REMARK    1  A    between atoms: C_4  and  C_7
REMARK    2  A    between atoms: C_7  and  N_8
REMARK    3  A    between atoms: N_8  and  C_9
REMARK    4  A    between atoms: C_9  and  C_10
REMARK    5  A    between atoms: C_17  and  N_32
REMARK    6  A    between atoms: C_18  and  N_22
REMARK    7  A    between atoms: N_22  and  N_23
REMARK    8  A    between atoms: C_24  and  C_26
REMARK                            x       y       z     vdW  Elec       q    Type
REMARK                         _______ _______ _______ _____ _____    ______ ____
ROOT
ATOM      1  N   UNL     1       4.141  -0.936   1.349  0.00  0.00    -0.305 N 
ATOM      2  C   UNL     1       4.912   0.029   1.985  0.00  0.00    +0.148 A 
ATOM      3  C   UNL     1       4.311   0.994   2.796  0.00  0.00    +0.107 A 
ATOM      4  C   UNL     1       5.131   1.941   3.411  0.00  0.00    +0.161 A 
ATOM      5  N   UNL     1       6.445   1.889   3.203  0.00  0.00    -0.217 NA
ATOM      6  C   UNL     1       6.972   0.961   2.430  0.00  0.00    +0.225 A 
ATOM      7  N   UNL     1       6.234   0.046   1.835  0.00  0.00    -0.219 NA
ENDROOT
BRANCH   3   8
ATOM      8  N   UNL     1       2.920   1.012   2.987  0.00  0.00    -0.353 N 
ATOM      9  H   UNL     1       2.355   0.393   2.497  0.00  0.00    +0.143 HD
ATOM     10  H   UNL     1       2.523   1.643   3.608  0.00  0.00    +0.143 HD
ENDBRANCH   3   8
BRANCH   4  11
ATOM     11  N   UNL     1       4.585   2.924   4.229  0.00  0.00    -0.247 N 
ATOM     12  H   UNL     1       3.627   2.955   4.375  0.00  0.00    +0.172 HD
BRANCH  11  13
ATOM     13  N   UNL     1       5.418   3.869   4.841  0.00  0.00    -0.230 N 
ATOM     14  C   UNL     1       4.888   4.821   5.633  0.00  0.00    +0.278 C 
ATOM     15  O   UNL     1       3.688   4.861   5.817  0.00  0.00    -0.267 OA
ATOM     16  H   UNL     1       6.377   3.837   4.695  0.00  0.00    +0.173 HD
BRANCH  14  17
ATOM     17  C   UNL     1       5.770   5.821   6.281  0.00  0.00    +0.127 A 
ATOM     18  C   UNL     1       5.217   6.800   7.104  0.00  0.00    +0.033 A 
ATOM     19  C   UNL     1       6.054   7.728   7.703  0.00  0.00    +0.004 A 
ATOM     20  C   UNL     1       7.416   7.644   7.458  0.00  0.00    +0.020 A 
ATOM     21  C   UNL     1       7.897   6.644   6.629  0.00  0.00    +0.111 A 
ATOM     22  N   UNL     1       7.080   5.773   6.077  0.00  0.00    -0.250 NA
ENDBRANCH  14  17
ENDBRANCH  11  13
ENDBRANCH   4  11
BRANCH   1  23
ATOM     23  C   UNL     1       3.718  -0.739  -0.040  0.00  0.00    +0.142 C 
BRANCH  23  27
ATOM     24  C   UNL     1      -0.044   1.283  -0.111  0.00  0.00    +0.000 A 
ATOM     25  C   UNL     1       1.132   2.010  -0.121  0.00  0.00    +0.000 A 
ATOM     26  C   UNL     1       2.349   1.356  -0.098  0.00  0.00    +0.005 A 
ATOM     27  C   UNL     1       2.391  -0.026  -0.064  0.00  0.00    -0.030 A 
ATOM     28  C   UNL     1       1.215  -0.753  -0.053  0.00  0.00    +0.005 A 
ATOM     29  C   UNL     1      -0.002  -0.098  -0.078  0.00  0.00    +0.000 A 
ENDBRANCH  23  27
ENDBRANCH   1  23
BRANCH   1  30
ATOM     30  C   UNL     1       3.752  -2.153   2.067  0.00  0.00    +0.142 C 
BRANCH  30  31
ATOM     31  C   UNL     1       4.738  -3.252   1.766  0.00  0.00    -0.030 A 
ATOM     32  C   UNL     1       4.583  -4.027   0.632  0.00  0.00    +0.005 A 
ATOM     33  C   UNL     1       5.488  -5.035   0.356  0.00  0.00    +0.000 A 
ATOM     34  C   UNL     1       6.548  -5.267   1.213  0.00  0.00    +0.000 A 
ATOM     35  C   UNL     1       6.703  -4.490   2.346  0.00  0.00    +0.000 A 
ATOM     36  C   UNL     1       5.801  -3.480   2.620  0.00  0.00    +0.005 A 
ENDBRANCH  30  31
ENDBRANCH   1  30
TORSDOF 8
