REMARK  Name = ZINC36643548
REMARK  16 active torsions:
REMARK  status: ('A' for Active; 'I' for Inactive)
REMARK    1  A    between atoms: C_1  and  C_2
REMARK    2  A    between atoms: C_2  and  O_3
REMARK    3  A    between atoms: O_3  and  C_4
REMARK    4  A    between atoms: C_6  and  C_16
REMARK    5  A    between atoms: C_8  and  O_13
REMARK    6  A    between atoms: C_9  and  O_10
REMARK    7  A    between atoms: O_10  and  C_11
REMARK    8  A    between atoms: C_11  and  C_12
REMARK    9  A    between atoms: O_13  and  C_14
REMARK   10  A    between atoms: C_14  and  C_15
REMARK   11  A    between atoms: N_18  and  C_19
REMARK   12  A    between atoms: C_19  and  C_20
REMARK   13  A    between atoms: C_20  and  C_21
REMARK   14  A    between atoms: C_21  and  N_22
REMARK   15  A    between atoms: N_22  and  C_23
REMARK   16  A    between atoms: N_22  and  C_24
REMARK                            x       y       z     vdW  Elec       q    Type
REMARK                         _______ _______ _______ _____ _____    ______ ____
ROOT
ATOM      1  C   UNL     1      -0.245  -5.062   0.453  0.00  0.00    +0.253 C 
ATOM      2  O   UNL     1      -0.729  -4.626   1.480  0.00  0.00    -0.270 OA
ATOM      3  N   UNL     1      -0.214  -6.391   0.234  0.00  0.00    -0.246 N 
ATOM      4  C   UNL     1      -0.664  -7.265   1.210  0.00  0.00    +0.168 A 
ATOM      5  N   UNL     1      -0.708  -8.576   1.184  0.00  0.00    -0.224 NA
ATOM      6  C   UNL     1      -1.177  -9.308   2.219  0.00  0.00    +0.084 A 
ATOM      7  C   UNL     1      -1.277 -10.716   2.316  0.00  0.00    +0.078 A 
ATOM      8  C   UNL     1      -1.781 -11.313   3.448  0.00  0.00    +0.168 A 
ATOM      9  C   UNL     1      -2.210 -10.545   4.534  0.00  0.00    +0.167 A 
ATOM     10  C   UNL     1      -2.125  -9.166   4.469  0.00  0.00    +0.066 A 
ATOM     11  C   UNL     1      -1.621  -8.569   3.338  0.00  0.00    +0.044 A 
ATOM     12  S   UNL     1      -1.326  -6.894   2.828  0.00  0.00    -0.052 S 
ATOM     13  O   UNL     1      -2.661 -11.381   5.513  0.00  0.00    -0.453 OA
ATOM     14  C   UNL     1      -2.887 -12.646   4.863  0.00  0.00    +0.466 C 
ATOM     15  O   UNL     1      -1.966 -12.633   3.757  0.00  0.00    -0.453 OA
ENDROOT
BRANCH   1  18
ATOM     16  C   UNL     1       0.451  -3.380  -2.833  0.00  0.00    +0.166 A 
ATOM     17  C   UNL     1      -0.069  -4.250  -1.893  0.00  0.00    +0.062 A 
ATOM     18  C   UNL     1       0.309  -4.135  -0.553  0.00  0.00    +0.044 A 
ATOM     19  C   UNL     1       1.212  -3.141  -0.166  0.00  0.00    +0.062 A 
ATOM     20  C   UNL     1       1.729  -2.274  -1.111  0.00  0.00    +0.166 A 
ATOM     21  C   UNL     1       1.355  -2.394  -2.446  0.00  0.00    +0.204 A 
BRANCH  16  22
ATOM     22  O   UNL     1       0.084  -3.491  -4.138  0.00  0.00    -0.488 OA
BRANCH  22  24
ATOM     23  C   UNL     1      -1.137  -4.495  -5.966  0.00  0.00    +0.048 C 
ATOM     24  C   UNL     1      -0.847  -4.525  -4.464  0.00  0.00    +0.226 C 
ENDBRANCH  22  24
ENDBRANCH  16  22
BRANCH  21  25
ATOM     25  O   UNL     1       1.869  -1.544  -3.374  0.00  0.00    -0.485 OA
BRANCH  25  26
ATOM     26  C   UNL     1       1.149  -0.333  -3.613  0.00  0.00    +0.226 C 
ATOM     27  C   UNL     1       1.875   0.489  -4.680  0.00  0.00    +0.048 C 
ENDBRANCH  25  26
ENDBRANCH  21  25
BRANCH  20  28
ATOM     28  O   UNL     1       2.607  -1.306  -0.735  0.00  0.00    -0.488 OA
BRANCH  28  29
ATOM     29  C   UNL     1       3.036  -1.312   0.628  0.00  0.00    +0.226 C 
ATOM     30  C   UNL     1       3.941  -0.105   0.883  0.00  0.00    +0.048 C 
ENDBRANCH  28  29
ENDBRANCH  20  28
ENDBRANCH   1  18
BRANCH   3  31
ATOM     31  C   UNL     1       0.295  -6.913  -1.037  0.00  0.00    +0.114 C 
BRANCH  31  32
ATOM     32  C   UNL     1       1.768  -7.294  -0.878  0.00  0.00    +0.001 C 
BRANCH  32  33
ATOM     33  C   UNL     1       2.333  -7.722  -2.234  0.00  0.00    -0.078 C 
BRANCH  33  34
ATOM     34  N   UNL     1       3.726  -8.158  -2.069  0.00  0.00    +0.376 N 
ATOM     35  C   UNL     1       3.766  -9.365  -1.233  0.00  0.00    -0.097 C 
ATOM     36  C   UNL     1       4.306  -8.455  -3.385  0.00  0.00    -0.097 C 
ATOM     37  H   UNL     1       4.258  -7.424  -1.625  0.00  0.00    -0.083 HD
ENDBRANCH  33  34
ENDBRANCH  32  33
ENDBRANCH  31  32
ENDBRANCH   3  31
TORSDOF 11
