REMARK  Name = ZINC41513570
REMARK  17 active torsions:
REMARK  status: ('A' for Active; 'I' for Inactive)
REMARK    1  A    between atoms: C_1  and  C_2
REMARK    2  A    between atoms: C_4  and  O_33
REMARK    3  A    between atoms: C_5  and  C_23
REMARK    4  A    between atoms: C_11  and  C_12
REMARK    5  A    between atoms: C_14  and  O_20
REMARK    6  A    between atoms: C_17  and  O_18
REMARK    7  A    between atoms: O_18  and  C_19
REMARK    8  A    between atoms: O_20  and  C_21
REMARK    9  A    between atoms: C_23  and  N_24
REMARK   10  A    between atoms: N_24  and  C_25
REMARK   11  A    between atoms: N_24  and  C_29
REMARK   12  A    between atoms: C_25  and  C_26
REMARK   13  A    between atoms: C_26  and  C_27
REMARK   14  A    between atoms: C_26  and  C_28
REMARK   15  A    between atoms: C_29  and  C_30
REMARK   16  A    between atoms: C_30  and  C_31
REMARK   17  A    between atoms: C_30  and  C_32
REMARK                            x       y       z     vdW  Elec       q    Type
REMARK                         _______ _______ _______ _____ _____    ______ ____
ROOT
ATOM      1  C   UNL     1      -3.024  -0.310   0.393  0.00  0.00    +0.045 C 
ATOM      2  C   UNL     1      -2.109  -1.507   0.422  0.00  0.00    -0.033 A 
ATOM      3  C   UNL     1      -2.015  -2.323  -0.670  0.00  0.00    +0.050 A 
ATOM      4  C   UNL     1      -1.171  -3.429  -0.645  0.00  0.00    +0.122 A 
ATOM      5  C   UNL     1      -0.419  -3.717   0.482  0.00  0.00    +0.020 A 
ATOM      6  C   UNL     1      -0.503  -2.898   1.601  0.00  0.00    +0.145 A 
ATOM      7  C   UNL     1      -1.353  -1.781   1.562  0.00  0.00    +0.071 A 
ATOM      8  C   UNL     1      -1.224  -1.115   2.871  0.00  0.00    +0.232 C 
ATOM      9  O   UNL     1      -1.795  -0.109   3.256  0.00  0.00    -0.283 OA
ATOM     10  C   UNL     1      -0.251  -1.935   3.608  0.00  0.00    +0.176 C 
ATOM     11  C   UNL     1       0.191  -1.712   4.872  0.00  0.00    +0.062 C 
ATOM     12  O   UNL     1       0.113  -2.960   2.802  0.00  0.00    -0.451 OA
ENDROOT
BRANCH  11  13
ATOM     13  C   UNL     1      -0.170  -0.471   5.568  0.00  0.00    +0.024 A 
ATOM     14  C   UNL     1      -0.123   0.754   4.892  0.00  0.00    +0.057 A 
ATOM     15  C   UNL     1      -0.464   1.918   5.554  0.00  0.00    +0.121 A 
ATOM     16  C   UNL     1      -0.855   1.875   6.888  0.00  0.00    +0.049 A 
ATOM     17  C   UNL     1      -0.904   0.671   7.563  0.00  0.00    +0.050 A 
ATOM     18  C   UNL     1      -0.570  -0.507   6.913  0.00  0.00    +0.128 A 
BRANCH  18  19
ATOM     19  O   UNL     1      -0.625  -1.690   7.577  0.00  0.00    -0.495 OA
ATOM     20  C   UNL     1      -1.041  -1.649   8.943  0.00  0.00    +0.277 C 
ENDBRANCH  18  19
BRANCH  15  21
ATOM     21  O   UNL     1      -0.419   3.109   4.900  0.00  0.00    -0.495 OA
ATOM     22  C   UNL     1      -0.785   4.272   5.644  0.00  0.00    +0.277 C 
ENDBRANCH  15  21
ENDBRANCH  11  13
BRANCH   4  23
ATOM     23  O   UNL     1      -1.084  -4.234  -1.735  0.00  0.00    -0.506 OA
ATOM     24  H   UNL     1      -0.399  -3.971  -2.365  0.00  0.00    +0.292 HD
ENDBRANCH   4  23
BRANCH   5  25
ATOM     25  C   UNL     1       0.490  -4.920   0.495  0.00  0.00    -0.036 C 
BRANCH  25  26
ATOM     26  N   UNL     1       1.685  -4.639  -0.312  0.00  0.00    +0.383 N 
ATOM     27  H   UNL     1       1.405  -4.335  -1.232  0.00  0.00    -0.081 HD
BRANCH  26  28
ATOM     28  C   UNL     1       2.475  -3.582   0.334  0.00  0.00    -0.075 C 
BRANCH  28  29
ATOM     29  C   UNL     1       1.963  -2.213  -0.120  0.00  0.00    -0.034 C 
ATOM     30  C   UNL     1       2.686  -1.114   0.661  0.00  0.00    +0.005 C 
ATOM     31  C   UNL     1       2.233  -2.038  -1.615  0.00  0.00    +0.005 C 
ENDBRANCH  28  29
ENDBRANCH  26  28
BRANCH  26  32
ATOM     32  C   UNL     1       2.497  -5.858  -0.425  0.00  0.00    -0.075 C 
BRANCH  32  33
ATOM     33  C   UNL     1       1.731  -6.908  -1.232  0.00  0.00    -0.034 C 
ATOM     34  C   UNL     1       1.555  -6.418  -2.670  0.00  0.00    +0.005 C 
ATOM     35  C   UNL     1       2.514  -8.222  -1.232  0.00  0.00    +0.005 C 
ENDBRANCH  32  33
ENDBRANCH  26  32
ENDBRANCH  25  26
ENDBRANCH   5  25
TORSDOF 10
