REMARK  Name = ZINC32104199
REMARK  5 active torsions:
REMARK  status: ('A' for Active; 'I' for Inactive)
REMARK    1  A    between atoms: C_1  and  C_2
REMARK    2  A    between atoms: C_2  and  C_3
REMARK    3  A    between atoms: C_8  and  N_9
REMARK    4  A    between atoms: N_25  and  C_28
REMARK    5  A    between atoms: C_28  and  C_29
REMARK                            x       y       z     vdW  Elec       q    Type
REMARK                         _______ _______ _______ _____ _____    ______ ____
ROOT
ATOM      1  N   UNL     1      -1.681  -0.212  -2.443  0.00  0.00    -0.218 N 
ATOM      2  C   UNL     1      -2.362  -0.141  -3.605  0.00  0.00    +0.133 A 
ATOM      3  C   UNL     1      -1.493   0.304  -4.568  0.00  0.00    +0.032 A 
ATOM      4  C   UNL     1      -0.255   0.494  -3.971  0.00  0.00    +0.141 A 
ATOM      5  N   UNL     1      -0.360   0.193  -2.698  0.00  0.00    -0.173 NA
ATOM      6  C   UNL     1      -1.923   0.520  -5.992  0.00  0.00    +0.112 C 
ATOM      7  C   UNL     1      -3.083  -0.418  -6.316  0.00  0.00    +0.122 C 
ATOM      8  C   UNL     1      -4.078  -0.463  -5.189  0.00  0.00    +0.220 C 
ATOM      9  O   UNL     1      -5.260  -0.537  -5.451  0.00  0.00    -0.275 OA
ATOM     10  N   UNL     1      -3.696  -0.423  -3.895  0.00  0.00    -0.270 N 
ATOM     11  C   UNL     1      -2.299   1.947  -6.233  0.00  0.00    -0.006 A 
ATOM     12  C   UNL     1      -3.276   2.743  -5.675  0.00  0.00    +0.007 A 
ATOM     13  C   UNL     1      -3.359   4.054  -6.131  0.00  0.00    +0.000 A 
ATOM     14  C   UNL     1      -2.501   4.533  -7.101  0.00  0.00    +0.002 A 
ATOM     15  C   UNL     1      -1.517   3.739  -7.667  0.00  0.00    +0.024 A 
ATOM     16  C   UNL     1      -1.422   2.421  -7.217  0.00  0.00    +0.041 A 
ATOM     17  N   UNL     1      -0.546   1.421  -7.603  0.00  0.00    -0.261 N 
ATOM     18  C   UNL     1      -0.767   0.270  -6.935  0.00  0.00    +0.236 C 
ATOM     19  O   UNL     1      -0.155  -0.769  -7.065  0.00  0.00    -0.274 OA
ATOM     20  H   UNL     1      -4.335  -0.586  -3.184  0.00  0.00    +0.156 HD
ENDROOT
BRANCH   1  26
ATOM     21  C   UNL     1      -1.976   0.165  -0.074  0.00  0.00    -0.022 A 
ATOM     22  C   UNL     1      -2.492  -0.228   1.145  0.00  0.00    +0.006 A 
ATOM     23  C   UNL     1      -3.227  -1.395   1.243  0.00  0.00    +0.000 A 
ATOM     24  C   UNL     1      -3.447  -2.173   0.120  0.00  0.00    +0.002 A 
ATOM     25  C   UNL     1      -2.933  -1.785  -1.101  0.00  0.00    +0.028 A 
ATOM     26  C   UNL     1      -2.199  -0.610  -1.204  0.00  0.00    +0.071 A 
BRANCH  21  28
ATOM     27  C   UNL     1      -2.065   2.557  -0.723  0.00  0.00    +0.009 C 
ATOM     28  C   UNL     1      -1.175   1.438  -0.179  0.00  0.00    +0.034 C 
ENDBRANCH  21  28
ENDBRANCH   1  26
BRANCH  17  29
ATOM     29  C   UNL     1       0.498   1.593  -8.616  0.00  0.00    +0.209 C 
BRANCH  29  30
ATOM     30  C   UNL     1       1.768   2.063  -7.955  0.00  0.00    +0.228 C 
ATOM     31  O   UNL     1       1.798   2.237  -6.755  0.00  0.00    -0.274 OA
ATOM     32  N   UNL     1       2.870   2.289  -8.696  0.00  0.00    -0.328 N 
ATOM     33  H   UNL     1       2.846   2.150  -9.656  0.00  0.00    +0.145 HD
ATOM     34  H   UNL     1       3.688   2.591  -8.271  0.00  0.00    +0.145 HD
ENDBRANCH  29  30
ENDBRANCH  17  29
TORSDOF 4
