REMARK  Name = ZINC20609383
REMARK  14 active torsions:
REMARK  status: ('A' for Active; 'I' for Inactive)
REMARK    1  A    between atoms: C_1  and  C_2
REMARK    2  A    between atoms: C_2  and  O_3
REMARK    3  A    between atoms: O_3  and  C_4
REMARK    4  A    between atoms: C_4  and  C_6
REMARK    5  A    between atoms: C_7  and  C_36
REMARK    6  A    between atoms: C_11  and  C_13
REMARK    7  A    between atoms: C_15  and  O_22
REMARK    8  A    between atoms: C_16  and  O_20
REMARK    9  A    between atoms: O_20  and  C_21
REMARK   10  A    between atoms: O_22  and  C_23
REMARK   11  A    between atoms: C_26  and  C_32
REMARK   12  A    between atoms: C_28  and  C_31
REMARK   13  A    between atoms: C_32  and  O_34
REMARK   14  A    between atoms: O_34  and  C_35
REMARK                            x       y       z     vdW  Elec       q    Type
REMARK                         _______ _______ _______ _____ _____    ______ ____
ROOT
ATOM      1  C   UNL     1      -0.835   1.638  -3.539  0.00  0.00    +0.065 C 
ATOM      2  C   UNL     1      -0.259   1.380  -4.726  0.00  0.00    +0.016 C 
ATOM      3  N   UNL     1      -0.847   1.798  -5.887  0.00  0.00    -0.321 N 
ATOM      4  C   UNL     1      -1.774   2.806  -5.873  0.00  0.00    +0.016 C 
ATOM      5  C   UNL     1      -2.417   3.130  -4.731  0.00  0.00    +0.025 C 
ATOM      6  C   UNL     1      -2.131   2.389  -3.450  0.00  0.00    +0.093 C 
ATOM      7  C   UNL     1      -3.370   4.163  -4.704  0.00  0.00    +0.176 C 
ATOM      8  O   UNL     1      -3.921   4.439  -3.657  0.00  0.00    -0.291 OA
ATOM      9  C   UNL     1      -3.722   4.931  -5.949  0.00  0.00    +0.171 C 
ATOM     10  C   UNL     1      -3.503   4.030  -7.169  0.00  0.00    +0.013 C 
ATOM     11  C   UNL     1      -2.052   3.544  -7.159  0.00  0.00    +0.055 C 
ATOM     12  C   UNL     1      -3.773   4.819  -8.451  0.00  0.00    +0.009 C 
ATOM     13  C   UNL     1       1.041   0.620  -4.777  0.00  0.00    +0.061 C 
ATOM     14  H   UNL     1      -0.578   1.323  -6.842  0.00  0.00    +0.152 HD
ENDROOT
BRANCH   6  15
ATOM     15  C   UNL     1      -3.249   1.416  -3.180  0.00  0.00    -0.018 A 
ATOM     16  C   UNL     1      -3.509   0.398  -4.079  0.00  0.00    +0.055 A 
ATOM     17  C   UNL     1      -4.537  -0.497  -3.833  0.00  0.00    +0.162 A 
ATOM     18  C   UNL     1      -5.307  -0.370  -2.680  0.00  0.00    +0.163 A 
ATOM     19  C   UNL     1      -5.042   0.652  -1.784  0.00  0.00    +0.065 A 
ATOM     20  C   UNL     1      -4.011   1.540  -2.032  0.00  0.00    +0.026 A 
ATOM     21 BR   UNL     1      -3.645   2.931  -0.804  0.00  0.00    -0.050 Br
BRANCH  18  22
ATOM     22  O   UNL     1      -6.317  -1.246  -2.435  0.00  0.00    -0.491 OA
ATOM     23  C   UNL     1      -7.065  -1.054  -1.233  0.00  0.00    +0.277 C 
ENDBRANCH  18  22
BRANCH  17  24
ATOM     24  O   UNL     1      -4.794  -1.500  -4.716  0.00  0.00    -0.491 OA
ATOM     25  C   UNL     1      -3.963  -1.570  -5.877  0.00  0.00    +0.277 C 
ENDBRANCH  17  24
ENDBRANCH   6  15
BRANCH   1  26
ATOM     26  C   UNL     1      -0.205   1.198  -2.352  0.00  0.00    +0.338 C 
ATOM     27  O   UNL     1       0.790   0.500  -2.413  0.00  0.00    -0.245 OA
BRANCH  26  28
ATOM     28  O   UNL     1      -0.708   1.551  -1.150  0.00  0.00    -0.462 OA
BRANCH  28  30
ATOM     29  C   UNL     1      -0.732   1.570   1.266  0.00  0.00    +0.048 C 
ATOM     30  C   UNL     1      -0.021   1.071   0.007  0.00  0.00    +0.229 C 
ENDBRANCH  28  30
ENDBRANCH  26  28
ENDBRANCH   1  26
BRANCH   9  31
ATOM     31  C   UNL     1      -5.167   5.356  -5.888  0.00  0.00    +0.318 C 
ATOM     32  O   UNL     1      -5.944   4.978  -6.732  0.00  0.00    -0.250 OA
BRANCH  31  33
ATOM     33  O   UNL     1      -5.590   6.154  -4.896  0.00  0.00    -0.467 OA
ATOM     34  C   UNL     1      -6.995   6.523  -4.900  0.00  0.00    +0.280 C 
ENDBRANCH  31  33
ENDBRANCH   9  31
TORSDOF 8
