REMARK  Name = ZINC18166215
REMARK  4 active torsions:
REMARK  status: ('A' for Active; 'I' for Inactive)
REMARK    1  A    between atoms: N_5  and  C_6
REMARK    2  A    between atoms: C_15  and  C_18
REMARK    3  A    between atoms: N_20  and  C_21
REMARK    4  A    between atoms: C_22  and  C_30
REMARK                            x       y       z     vdW  Elec       q    Type
REMARK                         _______ _______ _______ _____ _____    ______ ____
ROOT
ATOM      1  C   UNL     1      -1.159  -0.898   0.009  0.00  0.00    +0.067 C 
ATOM      2  C   UNL     1      -2.195  -0.395  -0.998  0.00  0.00    +0.034 C 
ATOM      3  C   UNL     1      -3.407  -1.329  -0.991  0.00  0.00    -0.007 C 
ATOM      4  C   UNL     1      -4.025  -1.351   0.408  0.00  0.00    +0.007 C 
ATOM      5  C   UNL     1      -2.989  -1.854   1.415  0.00  0.00    -0.007 C 
ATOM      6  C   UNL     1      -1.777  -0.921   1.408  0.00  0.00    +0.034 C 
ATOM      7  C   UNL     1      -2.547  -3.267   1.030  0.00  0.00    +0.020 C 
ATOM      8  C   UNL     1      -1.929  -3.244  -0.370  0.00  0.00    +0.050 C 
ATOM      9  C   UNL     1      -2.965  -2.742  -1.377  0.00  0.00    +0.020 C 
ATOM     10  C   UNL     1      -0.717  -2.311  -0.377  0.00  0.00    +0.046 C 
ENDROOT
BRANCH   1  15
ATOM     11  C   UNL     1      -0.016   1.340   0.009  0.00  0.00    +0.220 A 
ATOM     12  N   UNL     1       1.222   1.763  -0.000  0.00  0.00    -0.209 NA
ATOM     13  C   UNL     1       2.055   0.723  -0.014  0.00  0.00    +0.217 A 
ATOM     14  N   UNL     1       1.355  -0.382  -0.013  0.00  0.00    -0.142 NA
ATOM     15  N   UNL     1       0.002  -0.004   0.002  0.00  0.00    -0.245 N 
ATOM     16 BR   UNL     1       3.943   0.827  -0.032  0.00  0.00    -0.005 Br
ENDBRANCH   1  15
BRANCH   8  17
ATOM     17  C   UNL     1      -1.493  -4.636  -0.749  0.00  0.00    +0.224 C 
ATOM     18  O   UNL     1      -0.328  -4.860  -1.000  0.00  0.00    -0.275 OA
ATOM     19  N   UNL     1      -2.399  -5.633  -0.809  0.00  0.00    -0.279 N 
ATOM     20  H   UNL     1      -3.331  -5.454  -0.608  0.00  0.00    +0.155 HD
BRANCH  19  21
ATOM     21  C   UNL     1      -1.998  -6.915  -1.159  0.00  0.00    +0.090 A 
ATOM     22  C   UNL     1      -2.782  -8.050  -1.276  0.00  0.00    +0.084 A 
ATOM     23  C   UNL     1      -2.116  -9.282  -1.660  0.00  0.00    -0.018 A 
ATOM     24  C   UNL     1      -0.785  -9.152  -1.856  0.00  0.00    -0.004 A 
ATOM     25  S   UNL     1      -0.451  -7.444  -1.544  0.00  0.00    -0.077 S 
ATOM     26  C   UNL     1       0.174 -10.230  -2.254  0.00  0.00    +0.043 C 
ATOM     27  C   UNL     1      -0.511 -11.588  -2.041  0.00  0.00    +0.005 C 
ATOM     28  C   UNL     1      -1.909 -11.541  -2.662  0.00  0.00    +0.005 C 
ATOM     29  C   UNL     1      -2.814 -10.622  -1.838  0.00  0.00    +0.037 C 
BRANCH  22  30
ATOM     30  C   UNL     1      -4.192  -8.011  -1.029  0.00  0.00    +0.102 C 
ATOM     31  N   UNL     1      -5.311  -7.980  -0.832  0.00  0.00    -0.191 NA
ENDBRANCH  22  30
ENDBRANCH  19  21
ENDBRANCH   8  17
TORSDOF 4
