REMARK  Name = ZINC16001473
REMARK  3 active torsions:
REMARK  status: ('A' for Active; 'I' for Inactive)
REMARK    1  A    between atoms: C_1  and  C_2
REMARK    2  A    between atoms: N_21  and  C_24
REMARK    3  A    between atoms: C_29  and  C_30
REMARK                            x       y       z     vdW  Elec       q    Type
REMARK                         _______ _______ _______ _____ _____    ______ ____
ROOT
ATOM      1  C   UNL     1       1.381   6.424  -1.195  0.00  0.00    +0.044 C 
ATOM      2  C   UNL     1       1.819   5.233  -0.382  0.00  0.00    -0.050 A 
ATOM      3  C   UNL     1       2.701   5.398   0.671  0.00  0.00    +0.005 A 
ATOM      4  C   UNL     1       3.103   4.311   1.418  0.00  0.00    +0.024 A 
ATOM      5  C   UNL     1       2.624   3.038   1.117  0.00  0.00    +0.036 A 
ATOM      6  C   UNL     1       1.737   2.883   0.057  0.00  0.00    -0.027 A 
ATOM      7  C   UNL     1       1.339   3.972  -0.686  0.00  0.00    +0.008 A 
ATOM      8  C   UNL     1       1.415   1.415  -0.004  0.00  0.00    +0.053 C 
ATOM      9  C   UNL     1      -0.013   1.086   0.008  0.00  0.00    +0.089 C 
ATOM     10  C   UNL     1      -0.447   1.461  -1.465  0.00  0.00    +0.074 C 
ATOM     11  C   UNL     1       0.684   0.760  -2.210  0.00  0.00    -0.054 C 
ATOM     12  N   UNL     1       1.878   0.849  -1.312  0.00  0.00    +0.395 N 
ATOM     13  C   UNL     1       2.379  -0.519  -1.071  0.00  0.00    -0.076 C 
ATOM     14  C   UNL     1       1.793  -1.383  -2.222  0.00  0.00    -0.020 C 
ATOM     15  C   UNL     1       0.392  -0.740  -2.401  0.00  0.00    -0.016 C 
ATOM     16  C   UNL     1      -1.813   0.837  -1.392  0.00  0.00    +0.228 C 
ATOM     17  O   UNL     1      -2.410   0.277  -2.286  0.00  0.00    -0.275 OA
ATOM     18  N   UNL     1      -2.240   1.030  -0.109  0.00  0.00    -0.210 N 
ATOM     19  C   UNL     1      -1.228   1.370   0.732  0.00  0.00    +0.229 C 
ATOM     20  O   UNL     1      -1.333   1.812   1.856  0.00  0.00    -0.275 OA
ATOM     21  C   UNL     1       2.213   0.800   1.118  0.00  0.00    +0.212 C 
ATOM     22  O   UNL     1       2.245  -0.373   1.423  0.00  0.00    -0.277 OA
ATOM     23  N   UNL     1       2.881   1.803   1.716  0.00  0.00    -0.286 N 
ATOM     24  H   UNL     1       3.565   1.740   2.576  0.00  0.00    +0.155 HD
ATOM     25  H   UNL     1       2.674   1.462  -1.759  0.00  0.00    -0.079 HD
ENDROOT
BRANCH  18  26
ATOM     26  C   UNL     1      -3.577   0.895   0.293  0.00  0.00    +0.048 A 
ATOM     27  C   UNL     1      -4.052  -0.335   0.725  0.00  0.00    +0.044 A 
ATOM     28  C   UNL     1      -5.369  -0.463   1.126  0.00  0.00    +0.043 A 
ATOM     29  C   UNL     1      -6.215   0.631   1.085  0.00  0.00    +0.020 A 
ATOM     30  C   UNL     1      -5.745   1.856   0.650  0.00  0.00    +0.006 A 
ATOM     31  C   UNL     1      -4.428   1.991   0.254  0.00  0.00    -0.029 A 
ATOM     32  C   UNL     1      -3.917   3.327  -0.222  0.00  0.00    +0.045 C 
ATOM     33 CL   UNL     1      -5.964  -2.000   1.673  0.00  0.00    -0.083 Cl
ENDBRANCH  18  26
TORSDOF 1
