REMARK  Name = ZINC09624718
REMARK  11 active torsions:
REMARK  status: ('A' for Active; 'I' for Inactive)
REMARK    1  A    between atoms: C_1  and  C_2
REMARK    2  A    between atoms: C_2  and  N_3
REMARK    3  A    between atoms: N_3  and  C_4
REMARK    4  A    between atoms: N_3  and  S_10
REMARK    5  A    between atoms: S_10  and  C_13
REMARK    6  A    between atoms: C_16  and  C_19
REMARK    7  A    between atoms: N_21  and  C_22
REMARK    8  A    between atoms: C_30  and  C_31
REMARK    9  A    between atoms: C_31  and  O_33
REMARK   10  A    between atoms: O_33  and  C_34
REMARK   11  A    between atoms: C_34  and  C_35
REMARK                            x       y       z     vdW  Elec       q    Type
REMARK                         _______ _______ _______ _____ _____    ______ ____
ROOT
ATOM      1  C   UNL     1      -3.026  -4.943   0.696  0.00  0.00    +0.106 A 
ATOM      2  C   UNL     1      -1.798  -4.489   1.145  0.00  0.00    +0.029 A 
ATOM      3  C   UNL     1      -1.536  -3.136   1.195  0.00  0.00    +0.015 A 
ATOM      4  C   UNL     1      -2.513  -2.224   0.792  0.00  0.00    +0.037 A 
ATOM      5  C   UNL     1      -3.752  -2.688   0.347  0.00  0.00    +0.015 A 
ATOM      6  C   UNL     1      -3.999  -4.044   0.296  0.00  0.00    +0.029 A 
ENDROOT
BRANCH   4   7
ATOM      7  C   UNL     1      -2.240  -0.772   0.844  0.00  0.00    +0.248 C 
ATOM      8  O   UNL     1      -1.162  -0.370   1.237  0.00  0.00    -0.270 OA
ATOM      9  N   UNL     1      -3.185   0.106   0.455  0.00  0.00    -0.278 N 
ATOM     10  H   UNL     1      -4.067  -0.210   0.205  0.00  0.00    +0.155 HD
BRANCH   9  11
ATOM     11  C   UNL     1      -2.895   1.463   0.410  0.00  0.00    +0.094 A 
ATOM     12  C   UNL     1      -1.979   2.203   1.287  0.00  0.00    +0.042 A 
ATOM     13  C   UNL     1      -1.163   1.844   2.360  0.00  0.00    +0.013 A 
ATOM     14  C   UNL     1      -0.407   2.795   2.986  0.00  0.00    +0.001 A 
ATOM     15  C   UNL     1      -0.447   4.116   2.559  0.00  0.00    +0.004 A 
ATOM     16  C   UNL     1      -1.247   4.490   1.502  0.00  0.00    +0.047 A 
ATOM     17  C   UNL     1      -2.025   3.538   0.850  0.00  0.00    +0.138 A 
ATOM     18  O   UNL     1      -2.877   3.608  -0.192  0.00  0.00    -0.446 OA
ATOM     19  C   UNL     1      -3.409   2.396  -0.467  0.00  0.00    +0.234 A 
BRANCH  19  20
ATOM     20  C   UNL     1      -4.341   2.124  -1.498  0.00  0.00    +0.377 C 
ATOM     21  O   UNL     1      -4.683   0.979  -1.724  0.00  0.00    -0.241 OA
BRANCH  20  22
ATOM     22  O   UNL     1      -4.856   3.138  -2.226  0.00  0.00    -0.459 OA
BRANCH  22  23
ATOM     23  C   UNL     1      -5.796   2.792  -3.245  0.00  0.00    +0.229 C 
ATOM     24  C   UNL     1      -6.265   4.062  -3.958  0.00  0.00    +0.048 C 
ENDBRANCH  22  23
ENDBRANCH  20  22
ENDBRANCH  19  20
ENDBRANCH   9  11
ENDBRANCH   4   7
BRANCH   1  25
ATOM     25  S   UNL     1      -3.352  -6.674   0.634  0.00  0.00    +0.061 S 
ATOM     26  O   UNL     1      -4.374  -6.860  -0.336  0.00  0.00    -0.153 OA
ATOM     27  O   UNL     1      -2.091  -7.322   0.545  0.00  0.00    -0.153 OA
BRANCH  25  28
ATOM     28  N   UNL     1      -4.003  -7.102   2.095  0.00  0.00    -0.174 NA
BRANCH  28  29
ATOM     29  C   UNL     1      -3.127  -7.526   3.191  0.00  0.00    +0.080 C 
ATOM     30  C   UNL     1      -3.409  -8.991   3.530  0.00  0.00    +0.020 C 
ATOM     31  C   UNL     1      -2.495  -9.435   4.674  0.00  0.00    +0.002 C 
ATOM     32  C   UNL     1      -2.760  -8.566   5.905  0.00  0.00    +0.000 C 
ATOM     33  C   UNL     1      -2.478  -7.101   5.566  0.00  0.00    +0.002 C 
ATOM     34  C   UNL     1      -3.393  -6.657   4.422  0.00  0.00    +0.020 C 
ENDBRANCH  28  29
BRANCH  28  36
ATOM     35  C   UNL     1      -6.054  -8.428   1.983  0.00  0.00    +0.022 C 
ATOM     36  C   UNL     1      -5.454  -7.056   2.293  0.00  0.00    +0.106 C 
ENDBRANCH  28  36
ENDBRANCH  25  28
ENDBRANCH   1  25
TORSDOF 9
