REMARK  Name = ZINC01791598
REMARK  15 active torsions:
REMARK  status: ('A' for Active; 'I' for Inactive)
REMARK    1  A    between atoms: C_1  and  C_2
REMARK    2  A    between atoms: C_4  and  O_9
REMARK    3  A    between atoms: O_9  and  C_10
REMARK    4  A    between atoms: C_16  and  O_34
REMARK    5  A    between atoms: C_17  and  C_25
REMARK    6  A    between atoms: C_20  and  C_21
REMARK    7  A    between atoms: C_25  and  N_64
REMARK    8  A    between atoms: C_26  and  C_27
REMARK    9  A    between atoms: C_26  and  N_64
REMARK   10  A    between atoms: C_27  and  C_28
REMARK   11  A    between atoms: C_27  and  C_29
REMARK   12  A    between atoms: C_30  and  C_31
REMARK   13  A    between atoms: C_30  and  N_64
REMARK   14  A    between atoms: C_31  and  C_32
REMARK   15  A    between atoms: C_31  and  C_33
REMARK                            x       y       z     vdW  Elec       q    Type
REMARK                         _______ _______ _______ _____ _____    ______ ____
ROOT
ATOM      1  C   UNL     1      -2.712   3.289  -1.560  0.00  0.00    +0.222 A 
ATOM      2  C   UNL     1      -1.425   3.622  -2.070  0.00  0.00    +0.235 A 
ATOM      3  O   UNL     1      -1.242   4.641  -2.714  0.00  0.00    -0.283 OA
ATOM      4  C   UNL     1      -0.329   2.676  -1.802  0.00  0.00    +0.068 A 
ATOM      5  C   UNL     1       0.964   2.908  -2.275  0.00  0.00    +0.019 A 
ATOM      6  C   UNL     1       1.955   2.008  -2.006  0.00  0.00    +0.046 A 
ATOM      7  C   UNL     1       1.682   0.860  -1.264  0.00  0.00    +0.122 A 
ATOM      8  C   UNL     1       0.406   0.616  -0.788  0.00  0.00    +0.020 A 
ATOM      9  C   UNL     1      -0.614   1.518  -1.057  0.00  0.00    +0.144 A 
ATOM     10  O   UNL     1      -1.868   1.302  -0.610  0.00  0.00    -0.447 OA
ATOM     11  C   UNL     1      -2.873   2.152  -0.853  0.00  0.00    +0.254 A 
ENDROOT
BRANCH  11  12
ATOM     12  C   UNL     1      -4.242   1.826  -0.312  0.00  0.00    +0.454 C 
ATOM     13  F   UNL     1      -4.949   1.073  -1.256  0.00  0.00    -0.163 F 
ATOM     14  F   UNL     1      -4.112   1.089   0.870  0.00  0.00    -0.163 F 
ATOM     15  F   UNL     1      -4.934   3.013  -0.049  0.00  0.00    -0.163 F 
ENDBRANCH  11  12
BRANCH   7  16
ATOM     16  O   UNL     1       2.678  -0.026  -1.006  0.00  0.00    -0.506 OA
ATOM     17  H   UNL     1       2.772  -0.718  -1.675  0.00  0.00    +0.292 HD
ENDBRANCH   7  16
BRANCH   1  18
ATOM     18  O   UNL     1      -3.771   4.117  -1.776  0.00  0.00    -0.448 OA
BRANCH  18  22
ATOM     19  C   UNL     1      -6.476   7.906  -0.312  0.00  0.00    +0.045 C 
ATOM     20  C   UNL     1      -5.317   6.962  -0.118  0.00  0.00    -0.029 A 
ATOM     21  C   UNL     1      -5.077   5.966  -1.045  0.00  0.00    +0.051 A 
ATOM     22  C   UNL     1      -4.009   5.098  -0.866  0.00  0.00    +0.129 A 
ATOM     23  C   UNL     1      -3.189   5.229   0.245  0.00  0.00    +0.048 A 
ATOM     24  C   UNL     1      -3.430   6.230   1.166  0.00  0.00    +0.024 A 
ATOM     25  C   UNL     1      -4.495   7.095   0.986  0.00  0.00    +0.044 A 
ATOM     26 CL   UNL     1      -4.800   8.348   2.149  0.00  0.00    -0.083 Cl
ENDBRANCH  18  22
ENDBRANCH   1  18
BRANCH   8  27
ATOM     27  C   UNL     1       0.123  -0.628   0.014  0.00  0.00    -0.036 C 
BRANCH  27  28
ATOM     28  N   UNL     1       0.084  -0.274   1.448  0.00  0.00    +0.383 N 
ATOM     29  H   UNL     1      -0.597   0.482   1.587  0.00  0.00    -0.081 HD
BRANCH  28  30
ATOM     30  C   UNL     1      -0.332  -1.446   2.247  0.00  0.00    -0.075 C 
BRANCH  30  31
ATOM     31  C   UNL     1      -1.848  -1.610   2.124  0.00  0.00    -0.034 C 
ATOM     32  C   UNL     1      -2.282  -2.895   2.832  0.00  0.00    +0.005 C 
ATOM     33  C   UNL     1      -2.545  -0.411   2.771  0.00  0.00    +0.005 C 
ENDBRANCH  30  31
ENDBRANCH  28  30
BRANCH  28  34
ATOM     34  C   UNL     1       1.415   0.191   1.890  0.00  0.00    -0.075 C 
BRANCH  34  35
ATOM     35  C   UNL     1       1.503   1.702   1.663  0.00  0.00    -0.034 C 
ATOM     36  C   UNL     1       0.430   2.406   2.497  0.00  0.00    +0.005 C 
ATOM     37  C   UNL     1       2.886   2.202   2.085  0.00  0.00    +0.005 C 
ENDBRANCH  34  35
ENDBRANCH  28  34
ENDBRANCH  27  28
ENDBRANCH   8  27
TORSDOF 10
