REMARK  Name = ZINC39686720
REMARK  12 active torsions:
REMARK  status: ('A' for Active; 'I' for Inactive)
REMARK    1  A    between atoms: C_1  and  C_2
REMARK    2  A    between atoms: C_2  and  C_3
REMARK    3  A    between atoms: C_3  and  C_5
REMARK    4  A    between atoms: C_3  and  C_6
REMARK    5  A    between atoms: C_6  and  C_7
REMARK    6  A    between atoms: C_11  and  C_20
REMARK    7  A    between atoms: N_22  and  C_23
REMARK    8  A    between atoms: C_23  and  C_25
REMARK    9  A    between atoms: C_23  and  C_26
REMARK   10  A    between atoms: C_26  and  C_27
REMARK   11  A    between atoms: C_32  and  O_33
REMARK   12  A    between atoms: O_33  and  C_34
REMARK                            x       y       z     vdW  Elec       q    Type
REMARK                         _______ _______ _______ _____ _____    ______ ____
ROOT
ATOM      1  C   UNL     1      -2.526  -1.782   0.766  0.00  0.00    +0.216 C 
ATOM      2  O   UNL     1      -3.478  -1.031   0.747  0.00  0.00    -0.276 OA
ATOM      3  N   UNL     1      -2.712  -3.108   0.612  0.00  0.00    -0.300 N 
ATOM      4  C   UNL     1      -1.677  -4.164   0.507  0.00  0.00    +0.121 C 
ATOM      5  C   UNL     1      -2.247  -5.350   1.317  0.00  0.00    +0.100 C 
ATOM      6  C   UNL     1      -3.769  -5.133   1.311  0.00  0.00    -0.004 C 
ATOM      7  C   UNL     1      -3.997  -3.841   0.514  0.00  0.00    +0.115 C 
ATOM      8  C   UNL     1      -4.468  -6.306   0.629  0.00  0.00    -0.010 C 
ATOM      9  C   UNL     1      -5.983  -6.095   0.688  0.00  0.00    -0.082 C 
ATOM     10  N   UNL     1      -6.411  -5.992   2.088  0.00  0.00    +0.379 N 
ATOM     11  C   UNL     1      -5.807  -4.808   2.711  0.00  0.00    -0.082 C 
ATOM     12  C   UNL     1      -4.284  -4.964   2.737  0.00  0.00    -0.010 C 
ATOM     13  H   UNL     1      -7.417  -5.915   2.127  0.00  0.00    -0.086 HD
ATOM     14  H   UNL     1      -6.121  -6.819   2.589  0.00  0.00    -0.086 HD
ENDROOT
BRANCH   5  15
ATOM     15  C   UNL     1      -1.716  -5.327   2.727  0.00  0.00    +0.218 C 
ATOM     16  O   UNL     1      -1.487  -4.268   3.271  0.00  0.00    -0.275 OA
ATOM     17  N   UNL     1      -1.496  -6.484   3.383  0.00  0.00    -0.312 N 
ATOM     18  H   UNL     1      -1.613  -7.331   2.925  0.00  0.00    +0.149 HD
BRANCH  17  19
ATOM     19  C   UNL     1      -1.079  -6.461   4.787  0.00  0.00    +0.074 C 
ATOM     20  C   UNL     1      -2.317  -6.429   5.686  0.00  0.00    +0.028 C 
BRANCH  19  21
ATOM     21  C   UNL     1      -0.257  -7.714   5.096  0.00  0.00    +0.060 C 
BRANCH  21  22
ATOM     22  C   UNL     1       1.013  -7.694   4.284  0.00  0.00    -0.004 A 
ATOM     23  C   UNL     1       1.078  -8.376   3.084  0.00  0.00    +0.007 A 
ATOM     24  C   UNL     1       2.242  -8.358   2.340  0.00  0.00    +0.000 A 
ATOM     25  C   UNL     1       3.345  -7.657   2.793  0.00  0.00    +0.004 A 
ATOM     26  C   UNL     1       3.285  -6.974   3.992  0.00  0.00    +0.046 A 
ATOM     27  C   UNL     1       2.116  -6.986   4.738  0.00  0.00    +0.123 A 
BRANCH  27  28
ATOM     28  O   UNL     1       2.053  -6.309   5.915  0.00  0.00    -0.495 OA
ATOM     29  C   UNL     1       3.227  -5.602   6.321  0.00  0.00    +0.277 C 
ENDBRANCH  27  28
ENDBRANCH  21  22
ENDBRANCH  19  21
ENDBRANCH  17  19
ENDBRANCH   5  15
BRANCH   1  30
ATOM     30  C   UNL     1      -1.137  -1.233   0.962  0.00  0.00    +0.099 C 
BRANCH  30  31
ATOM     31  C   UNL     1      -1.206   0.287   1.118  0.00  0.00    -0.006 C 
ATOM     32  C   UNL     1      -1.652   0.915  -0.204  0.00  0.00    +0.008 C 
BRANCH  31  34
ATOM     33  C   UNL     1       0.077   2.323   1.790  0.00  0.00    +0.004 C 
ATOM     34  C   UNL     1       0.175   0.825   1.497  0.00  0.00    +0.000 C 
ENDBRANCH  31  34
ENDBRANCH  30  31
ENDBRANCH   1  30
TORSDOF 8
