REMARK  Name = ZINC59302245
REMARK  10 active torsions:
REMARK  status: ('A' for Active; 'I' for Inactive)
REMARK    1  A    between atoms: C_1  and  C_2
REMARK    2  A    between atoms: C_5  and  N_8
REMARK    3  A    between atoms: C_9  and  C_11
REMARK    4  A    between atoms: C_15  and  N_16
REMARK    5  A    between atoms: C_17  and  C_34
REMARK    6  A    between atoms: C_19  and  C_22
REMARK    7  A    between atoms: C_20  and  C_21
REMARK    8  A    between atoms: N_23  and  C_24
REMARK    9  A    between atoms: C_27  and  C_33
REMARK   10  A    between atoms: C_29  and  N_30
REMARK                            x       y       z     vdW  Elec       q    Type
REMARK                         _______ _______ _______ _____ _____    ______ ____
ROOT
ATOM      1  C   UNL     1       0.307  -6.024   0.258  0.00  0.00    +0.072 A 
ATOM      2  C   UNL     1       1.689  -6.452   0.377  0.00  0.00    -0.023 A 
ATOM      3  C   UNL     1       1.853  -7.603   1.066  0.00  0.00    -0.004 A 
ATOM      4  S   UNL     1       0.216  -8.084   1.532  0.00  0.00    -0.075 S 
ATOM      5  C   UNL     1      -0.658  -6.820   0.853  0.00  0.00    +0.097 A 
ATOM      6  C   UNL     1       3.146  -8.300   1.358  0.00  0.00    +0.043 C 
ATOM      7  C   UNL     1       4.227  -7.715   0.438  0.00  0.00    +0.005 C 
ATOM      8  C   UNL     1       4.152  -6.186   0.493  0.00  0.00    +0.005 C 
ATOM      9  C   UNL     1       2.878  -5.702  -0.205  0.00  0.00    +0.037 C 
ENDROOT
BRANCH   5  10
ATOM     10  N   UNL     1      -2.033  -6.621   0.880  0.00  0.00    -0.311 N 
ATOM     11  C   UNL     1      -2.912  -7.100  -0.052  0.00  0.00    +0.022 A 
ATOM     12  C   UNL     1      -4.158  -6.722   0.283  0.00  0.00    +0.032 A 
ATOM     13  C   UNL     1      -4.042  -5.945   1.523  0.00  0.00    +0.014 A 
ATOM     14  C   UNL     1      -2.700  -5.927   1.838  0.00  0.00    +0.030 A 
ATOM     15  C   UNL     1      -2.080  -5.253   3.035  0.00  0.00    +0.064 C 
ATOM     16  C   UNL     1      -2.543  -7.921  -1.260  0.00  0.00    +0.064 C 
BRANCH  13  17
ATOM     17  C   UNL     1      -5.135  -5.319   2.278  0.00  0.00    +0.121 C 
ATOM     18  N   UNL     1      -4.876  -4.654   3.371  0.00  0.00    -0.253 NA
BRANCH  18  19
ATOM     19  C   UNL     1      -5.902  -4.165   4.134  0.00  0.00    +0.094 A 
ATOM     20  C   UNL     1      -6.979  -4.987   4.471  0.00  0.00    +0.030 A 
ATOM     21  C   UNL     1      -8.009  -4.488   5.240  0.00  0.00    +0.005 A 
ATOM     22  C   UNL     1      -7.977  -3.176   5.678  0.00  0.00    -0.048 A 
ATOM     23  C   UNL     1      -6.913  -2.356   5.347  0.00  0.00    +0.038 A 
ATOM     24  C   UNL     1      -5.873  -2.843   4.583  0.00  0.00    +0.152 A 
ATOM     25  C   UNL     1      -9.107  -2.637   6.517  0.00  0.00    +0.044 C 
BRANCH  24  26
ATOM     26  N   UNL     1      -4.732  -1.966   4.237  0.00  0.00    +0.059 N 
ATOM     27  O   UNL     1      -4.709  -0.822   4.627  0.00  0.00    -0.126 OA
ATOM     28  O   UNL     1      -3.824  -2.394   3.563  0.00  0.00    -0.126 OA
ENDBRANCH  24  26
ENDBRANCH  18  19
ENDBRANCH  13  17
ENDBRANCH   5  10
BRANCH   1  30
ATOM     29  N   UNL     1      -0.309  -4.836  -1.781  0.00  0.00    -0.281 N 
ATOM     30  C   UNL     1      -0.053  -4.795  -0.459  0.00  0.00    +0.251 C 
ATOM     31  O   UNL     1      -0.120  -3.738   0.141  0.00  0.00    -0.270 OA
ATOM     32  H   UNL     1      -0.279  -5.682  -2.255  0.00  0.00    +0.155 HD
BRANCH  29  37
ATOM     33  C   UNL     1      -1.567  -0.064  -4.578  0.00  0.00    +0.044 C 
ATOM     34  C   UNL     1      -1.233  -1.332  -3.835  0.00  0.00    -0.050 A 
ATOM     35  C   UNL     1      -0.496  -2.323  -4.458  0.00  0.00    +0.005 A 
ATOM     36  C   UNL     1      -0.188  -3.486  -3.780  0.00  0.00    +0.023 A 
ATOM     37  C   UNL     1      -0.619  -3.660  -2.471  0.00  0.00    +0.034 A 
ATOM     38  C   UNL     1      -1.359  -2.663  -1.849  0.00  0.00    +0.023 A 
ATOM     39  C   UNL     1      -1.659  -1.500  -2.530  0.00  0.00    +0.005 A 
ENDBRANCH  29  37
ENDBRANCH   1  30
TORSDOF 6
