REMARK  Name = ZINC12098566
REMARK  10 active torsions:
REMARK  status: ('A' for Active; 'I' for Inactive)
REMARK    1  A    between atoms: C_1  and  N_68
REMARK    2  A    between atoms: C_2  and  N_68
REMARK    3  A    between atoms: C_3  and  C_4
REMARK    4  A    between atoms: C_3  and  N_68
REMARK    5  A    between atoms: C_4  and  N_5
REMARK    6  A    between atoms: C_8  and  C_12
REMARK    7  A    between atoms: C_8  and  C_20
REMARK    8  A    between atoms: C_12  and  C_13
REMARK    9  A    between atoms: C_13  and  C_14
REMARK   10  A    between atoms: C_26  and  C_28
REMARK                            x       y       z     vdW  Elec       q    Type
REMARK                         _______ _______ _______ _____ _____    ______ ____
ROOT
ATOM      1  N   UNL     1      -3.232   0.334  -0.415  0.00  0.00    -0.226 N 
ATOM      2  C   UNL     1      -1.988   0.642   0.002  0.00  0.00    +0.247 C 
ATOM      3  O   UNL     1      -1.141  -0.125   0.407  0.00  0.00    -0.273 OA
ATOM      4  C   UNL     1      -1.868   2.146  -0.141  0.00  0.00    +0.116 C 
ATOM      5  N   UNL     1      -3.182   2.549  -0.672  0.00  0.00    -0.285 N 
ATOM      6  C   UNL     1      -3.908   1.423  -0.798  0.00  0.00    +0.309 C 
ATOM      7  O   UNL     1      -5.050   1.399  -1.213  0.00  0.00    -0.252 OA
ATOM      8  H   UNL     1      -3.467   3.450  -0.891  0.00  0.00    +0.151 HD
ENDROOT
BRANCH   4   9
ATOM      9  C   UNL     1      -0.756   2.506  -1.127  0.00  0.00    +0.024 C 
ATOM     10  C   UNL     1      -0.741   4.021  -1.348  0.00  0.00    +0.025 C 
ATOM     11  C   UNL     1       0.396   4.381  -2.309  0.00  0.00    +0.108 C 
ATOM     12  N   UNL     1       0.243   3.594  -3.539  0.00  0.00    -0.298 N 
ATOM     13  C   UNL     1       0.128   2.133  -3.433  0.00  0.00    +0.108 C 
ATOM     14  C   UNL     1      -1.006   1.797  -2.460  0.00  0.00    +0.025 C 
ATOM     15  C   UNL     1       0.210   4.199  -4.743  0.00  0.00    +0.247 C 
ATOM     16  O   UNL     1       0.204   5.413  -4.813  0.00  0.00    -0.270 OA
BRANCH  15  17
ATOM     17  C   UNL     1       0.181   3.389  -5.978  0.00  0.00    +0.040 A 
ATOM     18  C   UNL     1       0.888   2.186  -6.042  0.00  0.00    +0.016 A 
ATOM     19  C   UNL     1       0.853   1.429  -7.194  0.00  0.00    +0.042 A 
ATOM     20  C   UNL     1       0.129   1.866  -8.292  0.00  0.00    +0.158 A 
ATOM     21  C   UNL     1      -0.571   3.063  -8.236  0.00  0.00    +0.159 A 
ATOM     22  C   UNL     1      -0.548   3.825  -7.085  0.00  0.00    +0.054 A 
ATOM     23  F   UNL     1      -1.276   3.484  -9.310  0.00  0.00    -0.202 F 
ATOM     24  F   UNL     1       0.104   1.123  -9.421  0.00  0.00    -0.202 F 
ENDBRANCH  15  17
ENDBRANCH   4   9
BRANCH   1  25
ATOM     25  C   UNL     1      -3.776  -1.026  -0.447  0.00  0.00    +0.099 C 
BRANCH  25  26
ATOM     26  C   UNL     1      -3.473  -1.665  -1.804  0.00  0.00    -0.060 C 
BRANCH  26  29
ATOM     27  C   UNL     1      -3.959  -3.588  -3.192  0.00  0.00    -0.097 C 
ATOM     28  C   UNL     1      -3.323  -3.897  -0.877  0.00  0.00    -0.097 C 
ATOM     29  N   UNL     1      -4.047  -3.027  -1.828  0.00  0.00    +0.377 N 
ATOM     30  H   UNL     1      -5.034  -2.978  -1.550  0.00  0.00    -0.083 HD
ENDBRANCH  26  29
ENDBRANCH  25  26
ENDBRANCH   1  25
BRANCH   4  31
ATOM     31  C   UNL     1      -1.615   2.797   1.220  0.00  0.00    +0.040 C 
BRANCH  31  32
ATOM     32  C   UNL     1      -2.712   2.375   2.200  0.00  0.00    +0.038 C 
BRANCH  32  33
ATOM     33  C   UNL     1      -2.463   3.017   3.540  0.00  0.00    -0.047 A 
ATOM     34  C   UNL     1      -1.695   2.364   4.487  0.00  0.00    +0.003 A 
ATOM     35  C   UNL     1      -1.462   2.954   5.715  0.00  0.00    +0.000 A 
ATOM     36  C   UNL     1      -2.006   4.193   6.000  0.00  0.00    +0.000 A 
ATOM     37  C   UNL     1      -2.777   4.844   5.056  0.00  0.00    +0.000 A 
ATOM     38  C   UNL     1      -3.006   4.255   3.826  0.00  0.00    +0.003 A 
ENDBRANCH  32  33
ENDBRANCH  31  32
ENDBRANCH   4  31
TORSDOF 8
