REMARK  Name = ZINC27575442
REMARK  7 active torsions:
REMARK  status: ('A' for Active; 'I' for Inactive)
REMARK    1  A    between atoms: C_1  and  C_2
REMARK    2  A    between atoms: N_5  and  C_8
REMARK    3  A    between atoms: C_8  and  C_10
REMARK    4  A    between atoms: C_8  and  C_27
REMARK    5  A    between atoms: C_10  and  N_11
REMARK    6  A    between atoms: C_12  and  C_14
REMARK    7  A    between atoms: C_14  and  N_15
REMARK                            x       y       z     vdW  Elec       q    Type
REMARK                         _______ _______ _______ _____ _____    ______ ____
ROOT
ATOM      1  N   UNL     1       2.429   6.801   2.350  0.00  0.00    -0.315 N 
ATOM      2  C   UNL     1       2.274   5.606   1.745  0.00  0.00    +0.231 C 
ATOM      3  O   UNL     1       2.454   4.582   2.370  0.00  0.00    -0.274 OA
ATOM      4  H   UNL     1       2.265   7.729   1.784  0.00  0.00    +0.149 HD
ENDROOT
BRANCH   1   5
ATOM      5  C   UNL     1       2.816   6.862   3.762  0.00  0.00    +0.094 C 
BRANCH   5   6
ATOM      6  C   UNL     1       3.044   8.320   4.165  0.00  0.00    -0.013 C 
BRANCH   6  11
ATOM      7  C   UNL     1       7.493  10.679   1.460  0.00  0.00    +0.007 C 
ATOM      8  C   UNL     1       6.590  10.062   2.531  0.00  0.00    -0.018 C 
ATOM      9  C   UNL     1       6.176   8.652   2.101  0.00  0.00    -0.015 C 
ATOM     10  C   UNL     1       5.226   8.065   3.147  0.00  0.00    -0.078 C 
ATOM     11  N   UNL     1       4.042   8.925   3.272  0.00  0.00    +0.386 N 
ATOM     12  C   UNL     1       4.410  10.271   3.729  0.00  0.00    -0.078 C 
ATOM     13  C   UNL     1       5.337  10.925   2.701  0.00  0.00    -0.015 C 
ATOM     14  H   UNL     1       3.590   9.022   2.274  0.00  0.00    -0.081 HD
ENDBRANCH   6  11
BRANCH   6  15
ATOM     15  C   UNL     1       3.542   8.377   5.586  0.00  0.00    -0.022 A 
ATOM     16  C   UNL     1       2.854   8.650   6.722  0.00  0.00    +0.009 A 
ATOM     17  C   UNL     1       3.525   8.645   7.930  0.00  0.00    +0.008 A 
ATOM     18  C   UNL     1       4.852   8.367   7.944  0.00  0.00    +0.045 A 
ATOM     19  S   UNL     1       5.190   8.093   6.212  0.00  0.00    -0.103 S 
ENDBRANCH   6  15
ENDBRANCH   5   6
ENDBRANCH   1   5
BRANCH   2  20
ATOM     20  C   UNL     1       1.876   5.543   0.293  0.00  0.00    +0.209 C 
BRANCH  20  21
ATOM     21  N   UNL     1       1.774   4.143  -0.124  0.00  0.00    -0.256 N 
ATOM     22  C   UNL     1       0.559   3.452  -0.008  0.00  0.00    +0.080 A 
ATOM     23  C   UNL     1      -0.628   4.136   0.195  0.00  0.00    +0.047 A 
ATOM     24  C   UNL     1      -1.815   3.436   0.308  0.00  0.00    +0.043 A 
ATOM     25  C   UNL     1      -1.820   2.055   0.215  0.00  0.00    +0.024 A 
ATOM     26  C   UNL     1      -0.636   1.366   0.018  0.00  0.00    +0.049 A 
ATOM     27  C   UNL     1       0.555   2.061  -0.097  0.00  0.00    +0.143 A 
ATOM     28  O   UNL     1       1.726   1.400  -0.299  0.00  0.00    -0.481 OA
ATOM     29  C   UNL     1       2.714   2.068  -1.088  0.00  0.00    +0.325 C 
ATOM     30  C   UNL     1       2.848   3.497  -0.628  0.00  0.00    +0.258 C 
ATOM     31  O   UNL     1       3.916   4.066  -0.711  0.00  0.00    -0.271 OA
ATOM     32 CL   UNL     1      -3.305   4.291   0.562  0.00  0.00    -0.083 Cl
ENDBRANCH  20  21
ENDBRANCH   2  20
TORSDOF 6
