REMARK  Name = ZINC28705610
REMARK  12 active torsions:
REMARK  status: ('A' for Active; 'I' for Inactive)
REMARK    1  A    between atoms: C_1  and  C_2
REMARK    2  A    between atoms: C_2  and  C_3
REMARK    3  A    between atoms: C_3  and  C_4
REMARK    4  A    between atoms: C_4  and  N_5
REMARK    5  A    between atoms: C_8  and  C_20
REMARK    6  A    between atoms: N_12  and  C_13
REMARK    7  A    between atoms: C_18  and  C_19
REMARK    8  A    between atoms: C_20  and  C_21
REMARK    9  A    between atoms: N_23  and  C_24
REMARK   10  A    between atoms: C_26  and  N_32
REMARK   11  A    between atoms: C_29  and  O_30
REMARK   12  A    between atoms: O_30  and  C_31
REMARK                            x       y       z     vdW  Elec       q    Type
REMARK                         _______ _______ _______ _____ _____    ______ ____
ROOT
ATOM      1  N   UNL     1       1.337  -2.526  -2.076  0.00  0.00    -0.250 N 
ATOM      2  C   UNL     1       0.575  -2.856  -3.104  0.00  0.00    +0.235 C 
ATOM      3  O   UNL     1      -0.636  -2.839  -3.040  0.00  0.00    -0.274 OA
ATOM      4  C   UNL     1       1.311  -3.258  -4.372  0.00  0.00    +0.149 C 
ATOM      5  S   UNL     1       3.054  -3.074  -3.812  0.00  0.00    -0.077 S 
ATOM      6  C   UNL     1       2.715  -2.537  -2.143  0.00  0.00    +0.164 C 
ATOM      7  N   UNL     1       3.574  -2.228  -1.200  0.00  0.00    -0.226 NA
ENDROOT
BRANCH   7   8
ATOM      8  C   UNL     1       4.917  -2.391  -1.417  0.00  0.00    +0.069 A 
ATOM      9  C   UNL     1       5.492  -1.956  -2.613  0.00  0.00    +0.028 A 
ATOM     10  C   UNL     1       6.844  -2.124  -2.825  0.00  0.00    +0.002 A 
ATOM     11  C   UNL     1       7.631  -2.721  -1.856  0.00  0.00    +0.000 A 
ATOM     12  C   UNL     1       7.068  -3.154  -0.669  0.00  0.00    +0.005 A 
ATOM     13  C   UNL     1       5.717  -2.987  -0.441  0.00  0.00    -0.025 A 
ATOM     14  C   UNL     1       5.106  -3.453   0.855  0.00  0.00    +0.046 C 
ENDBRANCH   7   8
BRANCH   1  15
ATOM     15  C   UNL     1       0.696  -2.127  -0.821  0.00  0.00    +0.115 C 
BRANCH  15  16
ATOM     16  C   UNL     1       0.463  -0.614  -0.826  0.00  0.00    +0.019 C 
BRANCH  16  18
ATOM     17  C   UNL     1      -0.441   1.314   0.480  0.00  0.00    +0.004 C 
ATOM     18  C   UNL     1      -0.208  -0.198   0.485  0.00  0.00    -0.002 C 
ENDBRANCH  16  18
ENDBRANCH  15  16
ENDBRANCH   1  15
BRANCH   4  19
ATOM     19  C   UNL     1       0.994  -2.303  -5.524  0.00  0.00    +0.120 C 
BRANCH  19  20
ATOM     20  C   UNL     1       1.643  -2.806  -6.787  0.00  0.00    +0.219 C 
ATOM     21  O   UNL     1       2.296  -3.829  -6.768  0.00  0.00    -0.275 OA
ATOM     22  N   UNL     1       1.499  -2.120  -7.939  0.00  0.00    -0.282 N 
ATOM     23  H   UNL     1       1.049  -1.261  -7.938  0.00  0.00    +0.155 HD
BRANCH  22  24
ATOM     24  C   UNL     1       1.999  -2.649  -9.136  0.00  0.00    +0.078 A 
ATOM     25  C   UNL     1       2.167  -4.019  -9.275  0.00  0.00    +0.059 A 
ATOM     26  C   UNL     1       2.661  -4.538 -10.457  0.00  0.00    +0.128 A 
ATOM     27  C   UNL     1       2.987  -3.695 -11.504  0.00  0.00    +0.036 A 
ATOM     28  C   UNL     1       2.822  -2.328 -11.372  0.00  0.00    +0.050 A 
ATOM     29  C   UNL     1       2.322  -1.801 -10.193  0.00  0.00    +0.141 A 
BRANCH  26  30
ATOM     30  N   UNL     1       2.841  -6.000 -10.604  0.00  0.00    +0.056 N 
ATOM     31  O   UNL     1       2.556  -6.738  -9.690  0.00  0.00    -0.126 OA
ATOM     32  O   UNL     1       3.272  -6.455 -11.637  0.00  0.00    -0.126 OA
ENDBRANCH  26  30
BRANCH  29  33
ATOM     33  O   UNL     1       2.154  -0.458 -10.064  0.00  0.00    -0.493 OA
ATOM     34  C   UNL     1       2.507   0.351 -11.189  0.00  0.00    +0.277 C 
ENDBRANCH  29  33
ENDBRANCH  22  24
ENDBRANCH  19  20
ENDBRANCH   4  19
TORSDOF 9
