REMARK  Name = ZINC39487496
REMARK  9 active torsions:
REMARK  status: ('A' for Active; 'I' for Inactive)
REMARK    1  A    between atoms: C_1  and  C_2
REMARK    2  A    between atoms: C_2  and  C_3
REMARK    3  A    between atoms: C_3  and  C_4
REMARK    4  A    between atoms: C_4  and  C_31
REMARK    5  A    between atoms: N_6  and  C_24
REMARK    6  A    between atoms: N_9  and  C_10
REMARK    7  A    between atoms: C_10  and  C_11
REMARK    8  A    between atoms: C_11  and  C_18
REMARK    9  A    between atoms: C_29  and  O_30
REMARK                            x       y       z     vdW  Elec       q    Type
REMARK                         _______ _______ _______ _____ _____    ______ ____
ROOT
ATOM      1  C   UNL     1       0.402  -2.465  -1.380  0.00  0.00    +0.052 C 
ATOM      2  C   UNL     1      -0.836  -3.383  -1.373  0.00  0.00    +0.141 C 
ATOM      3  N   UNL     1      -0.532  -4.391  -2.400  0.00  0.00    -0.250 N 
ATOM      4  C   UNL     1       0.669  -4.130  -2.931  0.00  0.00    +0.310 C 
ATOM      5  O   UNL     1       1.169  -4.811  -3.806  0.00  0.00    -0.252 OA
ATOM      6  N   UNL     1       1.271  -3.053  -2.410  0.00  0.00    -0.278 N 
ATOM      7  C   UNL     1       1.096  -2.483  -0.017  0.00  0.00    +0.033 C 
ENDROOT
BRANCH   3   8
ATOM      8  C   UNL     1      -1.368  -5.456  -2.764  0.00  0.00    +0.079 A 
ATOM      9  C   UNL     1      -2.226  -5.327  -3.847  0.00  0.00    +0.027 A 
ATOM     10  C   UNL     1      -3.049  -6.378  -4.205  0.00  0.00    +0.002 A 
ATOM     11  C   UNL     1      -3.020  -7.559  -3.486  0.00  0.00    +0.004 A 
ATOM     12  C   UNL     1      -2.168  -7.694  -2.406  0.00  0.00    +0.047 A 
ATOM     13  C   UNL     1      -1.335  -6.647  -2.044  0.00  0.00    +0.138 A 
BRANCH  13  14
ATOM     14  O   UNL     1      -0.492  -6.781  -0.986  0.00  0.00    -0.505 OA
ATOM     15  H   UNL     1      -0.900  -6.584  -0.131  0.00  0.00    +0.292 HD
ENDBRANCH  13  14
ENDBRANCH   3   8
BRANCH   1  16
ATOM     16  C   UNL     1       0.009  -1.036  -1.762  0.00  0.00    +0.027 C 
BRANCH  16  18
ATOM     17  C   UNL     1      -1.287   0.980  -1.056  0.00  0.00    +0.004 C 
ATOM     18  C   UNL     1      -0.894  -0.448  -0.675  0.00  0.00    -0.001 C 
ENDBRANCH  16  18
ENDBRANCH   1  16
BRANCH   6  19
ATOM     19  C   UNL     1       2.587  -2.542  -2.803  0.00  0.00    +0.117 C 
BRANCH  19  20
ATOM     20  C   UNL     1       3.675  -3.483  -2.284  0.00  0.00    -0.008 C 
ATOM     21  C   UNL     1       5.046  -2.992  -2.760  0.00  0.00    +0.025 C 
ATOM     22  C   UNL     1       5.092  -3.026  -4.289  0.00  0.00    +0.098 C 
ATOM     23  N   UNL     1       4.854  -4.398  -4.757  0.00  0.00    -0.242 NA
ATOM     24  C   UNL     1       3.525  -4.874  -4.352  0.00  0.00    +0.098 C 
ATOM     25  C   UNL     1       3.432  -4.895  -2.825  0.00  0.00    +0.025 C 
ATOM     26 BR   UNL     1       5.074  -4.520  -6.589  0.00  0.00    +0.013 Br
BRANCH  20  27
ATOM     27  C   UNL     1       3.642  -3.509  -0.755  0.00  0.00    -0.003 C 
ATOM     28  C   UNL     1       4.076  -2.146  -0.212  0.00  0.00    +0.004 C 
ATOM     29  C   UNL     1       4.043  -2.171   1.317  0.00  0.00    +0.000 C 
ATOM     30  C   UNL     1       4.998  -3.251   1.830  0.00  0.00    +0.000 C 
ATOM     31  C   UNL     1       4.564  -4.615   1.287  0.00  0.00    +0.000 C 
ATOM     32  C   UNL     1       4.597  -4.589  -0.242  0.00  0.00    +0.004 C 
ENDBRANCH  20  27
ENDBRANCH  19  20
ENDBRANCH   6  19
TORSDOF 7
