REMARK  Name = ZINC16048062
REMARK  8 active torsions:
REMARK  status: ('A' for Active; 'I' for Inactive)
REMARK    1  A    between atoms: C_1  and  C_2
REMARK    2  A    between atoms: C_2  and  O_3
REMARK    3  A    between atoms: O_3  and  C_4
REMARK    4  A    between atoms: C_4  and  C_6
REMARK    5  A    between atoms: C_10  and  N_11
REMARK    6  A    between atoms: C_12  and  C_14
REMARK    7  A    between atoms: C_14  and  S_15
REMARK    8  A    between atoms: S_15  and  C_16
REMARK                            x       y       z     vdW  Elec       q    Type
REMARK                         _______ _______ _______ _____ _____    ______ ____
ROOT
ATOM      1  N   UNL     1      -6.318   2.224   0.074  0.00  0.00    -0.279 N 
ATOM      2  C   UNL     1      -5.302   3.109   0.069  0.00  0.00    +0.228 C 
ATOM      3  O   UNL     1      -5.535   4.299   0.078  0.00  0.00    -0.275 OA
ATOM      4  H   UNL     1      -6.132   1.272   0.067  0.00  0.00    +0.155 HD
ENDROOT
BRANCH   1   9
ATOM      5  C   UNL     1      -8.796   1.926   0.091  0.00  0.00    +0.091 A 
ATOM      6  C   UNL     1     -10.065   2.654   0.112  0.00  0.00    -0.021 A 
ATOM      7  C   UNL     1      -9.955   3.994   0.119  0.00  0.00    -0.004 A 
ATOM      8  S   UNL     1      -8.206   4.305   0.103  0.00  0.00    -0.077 S 
ATOM      9  C   UNL     1      -7.629   2.673   0.089  0.00  0.00    +0.086 A 
ATOM     10  C   UNL     1     -11.299   4.670   0.138  0.00  0.00    +0.043 C 
ATOM     11  C   UNL     1     -12.284   3.566   0.580  0.00  0.00    +0.010 C 
ATOM     12  C   UNL     1     -11.550   2.289   0.123  0.00  0.00    +0.037 C 
BRANCH   5  13
ATOM     13  C   UNL     1      -8.760   0.463   0.075  0.00  0.00    +0.342 C 
ATOM     14  O   UNL     1      -8.737  -0.156   1.122  0.00  0.00    -0.245 OA
BRANCH  13  15
ATOM     15  O   UNL     1      -8.752  -0.200  -1.100  0.00  0.00    -0.461 OA
BRANCH  15  17
ATOM     16  C   UNL     1      -8.712  -2.220  -2.459  0.00  0.00    +0.048 C 
ATOM     17  C   UNL     1      -8.716  -1.650  -1.039  0.00  0.00    +0.229 C 
ENDBRANCH  15  17
ENDBRANCH  13  15
ENDBRANCH   5  13
ENDBRANCH   1   9
BRANCH   2  18
ATOM     18  C   UNL     1      -3.877   2.620   0.053  0.00  0.00    +0.173 C 
BRANCH  18  19
ATOM     19  S   UNL     1      -2.752   4.038   0.050  0.00  0.00    -0.076 S 
BRANCH  19  20
ATOM     20  C   UNL     1      -1.202   3.200   0.031  0.00  0.00    +0.195 A 
ATOM     21  N   UNL     1      -0.074   3.904   0.024  0.00  0.00    -0.204 NA
ATOM     22  C   UNL     1       1.103   3.277   0.009  0.00  0.00    +0.144 A 
ATOM     23  C   UNL     1       2.300   4.011   0.002  0.00  0.00    +0.047 A 
ATOM     24  C   UNL     1       3.491   3.346  -0.014  0.00  0.00    +0.005 A 
ATOM     25  C   UNL     1       3.499   1.944  -0.022  0.00  0.00    +0.018 A 
ATOM     26  C   UNL     1       2.336   1.255  -0.014  0.00  0.00    +0.098 A 
ATOM     27  N   UNL     1       1.142   1.909   0.001  0.00  0.00    -0.252 N 
ATOM     28  C   UNL     1      -0.015   1.215   0.009  0.00  0.00    +0.356 A 
ATOM     29  O   UNL     1       0.002  -0.004   0.002  0.00  0.00    -0.244 OA
ATOM     30  N   UNL     1      -1.174   1.868   0.018  0.00  0.00    -0.167 NA
ENDBRANCH  19  20
ENDBRANCH  18  19
ENDBRANCH   2  18
TORSDOF 7
