REMARK  Name = ZINC12305705
REMARK  14 active torsions:
REMARK  status: ('A' for Active; 'I' for Inactive)
REMARK    1  A    between atoms: C_1  and  C_2
REMARK    2  A    between atoms: C_3  and  C_33
REMARK    3  A    between atoms: C_4  and  O_31
REMARK    4  A    between atoms: C_7  and  C_8
REMARK    5  A    between atoms: C_8  and  N_67
REMARK    6  A    between atoms: C_14  and  C_16
REMARK    7  A    between atoms: C_16  and  C_17
REMARK    8  A    between atoms: N_19  and  C_20
REMARK    9  A    between atoms: C_20  and  C_21
REMARK   10  A    between atoms: C_23  and  C_27
REMARK   11  A    between atoms: C_27  and  C_28
REMARK   12  A    between atoms: C_27  and  C_29
REMARK   13  A    between atoms: C_27  and  C_30
REMARK   14  A    between atoms: O_31  and  C_32
REMARK                            x       y       z     vdW  Elec       q    Type
REMARK                         _______ _______ _______ _____ _____    ______ ____
ROOT
ATOM      1  C   UNL     1       0.083   3.982  -0.087  0.00  0.00    -0.058 C 
ATOM      2  C   UNL     1       1.265   3.279  -0.757  0.00  0.00    +0.085 C 
ATOM      3  N   UNL     1       1.045   1.836  -0.773  0.00  0.00    -0.318 N 
ATOM      4  C   UNL     1      -0.160   1.283  -0.600  0.00  0.00    +0.200 C 
ATOM      5  O   UNL     1      -0.259   0.075  -0.659  0.00  0.00    -0.278 OA
ATOM      6  C   UNL     1      -1.397   2.094  -0.340  0.00  0.00    +0.028 C 
ATOM      7  H   UNL     1       1.806   1.253  -0.917  0.00  0.00    +0.149 HD
ATOM      8  N   UNL     1      -1.158   3.498  -0.724  0.00  0.00    +0.391 N 
ATOM      9  H   UNL     1      -1.054   3.553  -1.744  0.00  0.00    -0.080 HD
ENDROOT
BRANCH   8  10
ATOM     10  C   UNL     1      -2.304   4.338  -0.311  0.00  0.00    -0.042 C 
BRANCH  10  17
ATOM     11  C   UNL     1      -2.588   5.170  -3.062  0.00  0.00    +0.044 C 
ATOM     12  C   UNL     1      -2.163   6.167  -2.014  0.00  0.00    -0.043 A 
ATOM     13  C   UNL     1      -1.911   7.478  -2.370  0.00  0.00    -0.006 A 
ATOM     14  C   UNL     1      -1.520   8.395  -1.405  0.00  0.00    +0.123 A 
ATOM     15  C   UNL     1      -1.385   7.992  -0.084  0.00  0.00    +0.046 A 
ATOM     16  C   UNL     1      -1.644   6.682   0.268  0.00  0.00    +0.005 A 
ATOM     17  C   UNL     1      -2.028   5.769  -0.697  0.00  0.00    -0.061 A 
ATOM     18  C   UNL     1      -2.059   7.911  -3.806  0.00  0.00    +0.048 C 
BRANCH  14  19
ATOM     19  O   UNL     1      -1.271   9.684  -1.753  0.00  0.00    -0.495 OA
ATOM     20  C   UNL     1      -0.873  10.573  -0.707  0.00  0.00    +0.277 C 
ENDBRANCH  14  19
ENDBRANCH  10  17
ENDBRANCH   8  10
BRANCH   6  21
ATOM     21  C   UNL     1      -2.554   1.538  -1.173  0.00  0.00    +0.089 C 
BRANCH  21  22
ATOM     22  C   UNL     1      -2.218   1.654  -2.638  0.00  0.00    +0.212 C 
ATOM     23  O   UNL     1      -1.127   2.058  -2.980  0.00  0.00    -0.276 OA
ATOM     24  N   UNL     1      -3.131   1.308  -3.567  0.00  0.00    -0.310 N 
ATOM     25  H   UNL     1      -4.003   0.984  -3.294  0.00  0.00    +0.149 HD
BRANCH  24  26
ATOM     26  C   UNL     1      -2.805   1.420  -4.991  0.00  0.00    +0.161 C 
BRANCH  26  27
ATOM     27  C   UNL     1      -3.986   0.975  -5.814  0.00  0.00    +0.080 A 
ATOM     28  C   UNL     1      -4.976   1.808  -6.346  0.00  0.00    +0.049 A 
ATOM     29  C   UNL     1      -5.856   1.031  -7.020  0.00  0.00    +0.042 A 
ATOM     30  N   UNL     1      -5.442  -0.249  -6.910  0.00  0.00    -0.281 N 
ATOM     31  H   UNL     1      -5.896  -1.049  -7.303  0.00  0.00    +0.189 HD
ATOM     32  N   UNL     1      -4.267  -0.259  -6.148  0.00  0.00    -0.177 NA
BRANCH  29  33
ATOM     33  C   UNL     1      -7.080   1.510  -7.756  0.00  0.00    +0.004 C 
ATOM     34  C   UNL     1      -7.871   0.304  -8.268  0.00  0.00    +0.017 C 
ATOM     35  C   UNL     1      -7.958   2.329  -6.808  0.00  0.00    +0.017 C 
ATOM     36  C   UNL     1      -6.656   2.381  -8.940  0.00  0.00    +0.017 C 
ENDBRANCH  29  33
ENDBRANCH  26  27
ENDBRANCH  24  26
ENDBRANCH  21  22
ENDBRANCH   6  21
TORSDOF 8
