REMARK  Name = ZINC39897322
REMARK  10 active torsions:
REMARK  status: ('A' for Active; 'I' for Inactive)
REMARK    1  A    between atoms: C_1  and  C_2
REMARK    2  A    between atoms: C_5  and  N_8
REMARK    3  A    between atoms: C_9  and  C_11
REMARK    4  A    between atoms: C_11  and  C_36
REMARK    5  A    between atoms: N_13  and  C_27
REMARK    6  A    between atoms: C_16  and  C_19
REMARK    7  A    between atoms: C_19  and  C_20
REMARK    8  A    between atoms: C_30  and  C_33
REMARK    9  A    between atoms: C_33  and  C_34
REMARK   10  A    between atoms: C_33  and  C_35
REMARK                            x       y       z     vdW  Elec       q    Type
REMARK                         _______ _______ _______ _____ _____    ______ ____
ROOT
ATOM      1  C   UNL     1      -0.788  -6.720   1.288  0.00  0.00    +0.142 C 
ATOM      2  C   UNL     1      -0.104  -7.208   2.402  0.00  0.00    +0.098 C 
ATOM      3  N   UNL     1       0.653  -8.350   2.498  0.00  0.00    -0.232 N 
ATOM      4  C   UNL     1       1.258  -8.712   3.617  0.00  0.00    +0.238 C 
ATOM      5  O   UNL     1       1.925  -9.722   3.692  0.00  0.00    -0.274 OA
ATOM      6  C   UNL     1       1.064  -7.781   4.803  0.00  0.00    +0.143 C 
ATOM      7  S   UNL     1      -0.003  -6.492   4.035  0.00  0.00    -0.095 S 
ENDROOT
BRANCH   3   8
ATOM      8  C   UNL     1       0.790  -9.164   1.366  0.00  0.00    +0.042 A 
ATOM      9  C   UNL     1      -0.022 -10.279   1.208  0.00  0.00    +0.024 A 
ATOM     10  C   UNL     1       0.116 -11.079   0.091  0.00  0.00    +0.006 A 
ATOM     11  C   UNL     1       1.062 -10.771  -0.870  0.00  0.00    -0.045 A 
ATOM     12  C   UNL     1       1.872  -9.661  -0.716  0.00  0.00    +0.006 A 
ATOM     13  C   UNL     1       1.735  -8.854   0.397  0.00  0.00    +0.024 A 
BRANCH  11  14
ATOM     14  C   UNL     1       1.210 -11.647  -2.088  0.00  0.00    +0.013 C 
ATOM     15  C   UNL     1       0.946 -10.818  -3.347  0.00  0.00    +0.012 C 
ATOM     16  C   UNL     1       2.630 -12.214  -2.138  0.00  0.00    +0.012 C 
ENDBRANCH  11  14
ENDBRANCH   3   8
BRANCH   1  18
ATOM     17  N   UNL     1      -2.252  -5.031   0.323  0.00  0.00    -0.281 N 
ATOM     18  C   UNL     1      -1.592  -5.503   1.399  0.00  0.00    +0.261 C 
ATOM     19  O   UNL     1      -1.665  -4.917   2.464  0.00  0.00    -0.269 OA
ATOM     20  H   UNL     1      -2.267  -5.543  -0.500  0.00  0.00    +0.155 HD
BRANCH  17  25
ATOM     21  C   UNL     1      -4.947  -0.048   0.612  0.00  0.00    +0.044 C 
ATOM     22  C   UNL     1      -4.231  -1.372   0.535  0.00  0.00    -0.050 A 
ATOM     23  C   UNL     1      -4.737  -2.384  -0.260  0.00  0.00    +0.005 A 
ATOM     24  C   UNL     1      -4.083  -3.599  -0.332  0.00  0.00    +0.023 A 
ATOM     25  C   UNL     1      -2.917  -3.802   0.394  0.00  0.00    +0.034 A 
ATOM     26  C   UNL     1      -2.412  -2.783   1.191  0.00  0.00    +0.023 A 
ATOM     27  C   UNL     1      -3.067  -1.569   1.255  0.00  0.00    +0.005 A 
ENDBRANCH  17  25
ENDBRANCH   1  18
BRANCH   1  28
ATOM     28  C   UNL     1      -0.703  -7.409   0.036  0.00  0.00    +0.107 C 
ATOM     29  N   UNL     1      -0.634  -7.956  -0.958  0.00  0.00    -0.191 NA
ENDBRANCH   1  28
BRANCH   6  30
ATOM     30  C   UNL     1       2.396  -7.189   5.268  0.00  0.00    +0.059 C 
BRANCH  30  31
ATOM     31  C   UNL     1       2.175  -6.373   6.515  0.00  0.00    -0.046 A 
ATOM     32  C   UNL     1       1.869  -5.028   6.417  0.00  0.00    +0.006 A 
ATOM     33  C   UNL     1       1.667  -4.279   7.560  0.00  0.00    +0.038 A 
ATOM     34  C   UNL     1       1.769  -4.876   8.805  0.00  0.00    +0.123 A 
ATOM     35  C   UNL     1       2.075  -6.223   8.903  0.00  0.00    +0.038 A 
ATOM     36  C   UNL     1       2.272  -6.971   7.758  0.00  0.00    +0.006 A 
ATOM     37  F   UNL     1       1.571  -4.145   9.924  0.00  0.00    -0.205 F 
ENDBRANCH  30  31
ENDBRANCH   6  30
TORSDOF 7
