REMARK  Name = ZINC05412690
REMARK  5 active torsions:
REMARK  status: ('A' for Active; 'I' for Inactive)
REMARK    1  A    between atoms: C_1  and  C_2
REMARK    2  A    between atoms: C_8  and  N_10
REMARK    3  A    between atoms: C_11  and  C_13
REMARK    4  A    between atoms: N_15  and  C_16
REMARK    5  A    between atoms: N_20  and  C_21
REMARK                            x       y       z     vdW  Elec       q    Type
REMARK                         _______ _______ _______ _____ _____    ______ ____
ROOT
ATOM      1  C   UNL     1       1.156   2.140  -0.922  0.00  0.00    +0.304 C 
ATOM      2  O   UNL     1       2.143   1.461  -1.119  0.00  0.00    -0.265 OA
ATOM      3  N   UNL     1       0.003   1.557  -0.539  0.00  0.00    -0.262 N 
ATOM      4  H   UNL     1      -0.804   2.089  -0.455  0.00  0.00    +0.157 HD
ENDROOT
BRANCH   3   5
ATOM      5  C   UNL     1      -0.031   0.192  -0.271  0.00  0.00    +0.133 A 
ATOM      6  C   UNL     1       1.027  -0.581   0.153  0.00  0.00    +0.026 A 
ATOM      7  C   UNL     1       0.570  -1.879   0.303  0.00  0.00    +0.079 A 
ATOM      8  N   UNL     1      -0.715  -1.908  -0.023  0.00  0.00    -0.168 NA
ATOM      9  N   UNL     1      -1.111  -0.620  -0.387  0.00  0.00    -0.218 N 
ATOM     10  C   UNL     1       1.588  -2.915   0.776  0.00  0.00    +0.127 C 
ATOM     11  S   UNL     1       2.942  -1.848   1.417  0.00  0.00    -0.150 S 
ATOM     12  C   UNL     1       2.495  -0.325   0.486  0.00  0.00    +0.110 C 
BRANCH   9  13
ATOM     13  C   UNL     1      -2.396  -0.235  -0.797  0.00  0.00    +0.068 A 
ATOM     14  C   UNL     1      -2.945   0.954  -0.338  0.00  0.00    +0.030 A 
ATOM     15  C   UNL     1      -4.208   1.334  -0.747  0.00  0.00    +0.040 A 
ATOM     16  C   UNL     1      -4.931   0.524  -1.606  0.00  0.00    +0.124 A 
ATOM     17  C   UNL     1      -4.388  -0.666  -2.061  0.00  0.00    +0.040 A 
ATOM     18  C   UNL     1      -3.123  -1.046  -1.658  0.00  0.00    +0.030 A 
ATOM     19  F   UNL     1      -6.168   0.895  -2.002  0.00  0.00    -0.205 F 
ENDBRANCH   9  13
ENDBRANCH   3   5
BRANCH   1  21
ATOM     20  N   UNL     1       2.374   4.204  -1.486  0.00  0.00    -0.304 N 
ATOM     21  C   UNL     1       1.220   3.621  -1.104  0.00  0.00    +0.300 C 
ATOM     22  O   UNL     1       0.234   4.299  -0.906  0.00  0.00    -0.265 OA
ATOM     23  H   UNL     1       3.162   3.661  -1.644  0.00  0.00    +0.149 HD
BRANCH  20  30
ATOM     24  C   UNL     1       3.276   5.334  -3.996  0.00  0.00    +0.009 C 
ATOM     25  C   UNL     1       3.557   6.002  -2.648  0.00  0.00    +0.006 C 
ATOM     26  C   UNL     1       3.622   7.519  -2.834  0.00  0.00    +0.005 C 
ATOM     27  C   UNL     1       3.903   8.186  -1.486  0.00  0.00    +0.000 C 
ATOM     28  C   UNL     1       2.783   7.841  -0.503  0.00  0.00    +0.002 C 
ATOM     29  C   UNL     1       2.717   6.324  -0.317  0.00  0.00    +0.022 C 
ATOM     30  C   UNL     1       2.437   5.656  -1.665  0.00  0.00    +0.076 C 
ENDBRANCH  20  30
ENDBRANCH   1  21
TORSDOF 4
