REMARK  Name = ZINC12136467
REMARK  8 active torsions:
REMARK  status: ('A' for Active; 'I' for Inactive)
REMARK    1  A    between atoms: C_1  and  C_2
REMARK    2  A    between atoms: C_8  and  C_10
REMARK    3  A    between atoms: C_10  and  C_12
REMARK    4  A    between atoms: C_10  and  S_13
REMARK    5  A    between atoms: S_13  and  C_14
REMARK    6  A    between atoms: C_17  and  C_26
REMARK    7  A    between atoms: N_18  and  C_19
REMARK    8  A    between atoms: C_26  and  N_56
REMARK                            x       y       z     vdW  Elec       q    Type
REMARK                         _______ _______ _______ _____ _____    ______ ____
ROOT
ATOM      1  C   UNL     1       1.381   8.081   0.767  0.00  0.00    +0.197 A 
ATOM      2  N   UNL     1       2.614   8.220   0.337  0.00  0.00    -0.122 NA
ATOM      3  N   UNL     1       2.999   9.436   0.497  0.00  0.00    -0.135 NA
ATOM      4  C   UNL     1       2.045  10.142   1.035  0.00  0.00    +0.122 A 
ATOM      5  N   UNL     1       0.976   9.306   1.222  0.00  0.00    -0.276 N 
ENDROOT
BRANCH   5   6
ATOM      6  C   UNL     1      -0.273   9.636   1.769  0.00  0.00    +0.050 A 
ATOM      7  C   UNL     1      -1.106  10.531   1.111  0.00  0.00    +0.028 A 
ATOM      8  C   UNL     1      -2.337  10.851   1.649  0.00  0.00    +0.022 A 
ATOM      9  C   UNL     1      -2.736  10.288   2.849  0.00  0.00    +0.041 A 
ATOM     10  C   UNL     1      -1.905   9.400   3.509  0.00  0.00    +0.022 A 
ATOM     11  C   UNL     1      -0.675   9.073   2.972  0.00  0.00    +0.028 A 
ATOM     12 CL   UNL     1      -4.281  10.697   3.526  0.00  0.00    -0.084 Cl
ENDBRANCH   5   6
BRANCH   1  13
ATOM     13  S   UNL     1       0.427   6.600   0.753  0.00  0.00    -0.073 S 
BRANCH  13  14
ATOM     14  C   UNL     1       1.625   5.462   0.015  0.00  0.00    +0.137 C 
ATOM     15  C   UNL     1       1.920   5.894  -1.423  0.00  0.00    +0.029 C 
BRANCH  14  23
ATOM     16  C   UNL     1      -1.194  -0.921   0.008  0.00  0.00    +0.089 C 
ATOM     17  C   UNL     1       0.002  -0.004   0.002  0.00  0.00    +0.136 A 
ATOM     18  C   UNL     1      -0.016   1.348   0.009  0.00  0.00    +0.091 A 
ATOM     19  C   UNL     1       1.357   1.710  -0.002  0.00  0.00    +0.168 A 
ATOM     20  N   UNL     1       2.029   0.589  -0.014  0.00  0.00    -0.063 NA
ATOM     21  O   UNL     1       1.292  -0.370  -0.012  0.00  0.00    -0.358 OA
ATOM     22  N   UNL     1       1.883   3.002  -0.000  0.00  0.00    -0.267 N 
ATOM     23  C   UNL     1       1.057   4.066   0.013  0.00  0.00    +0.231 C 
ATOM     24  O   UNL     1      -0.145   3.900   0.024  0.00  0.00    -0.274 OA
ATOM     25  H   UNL     1       2.844   3.134  -0.009  0.00  0.00    +0.156 HD
ENDBRANCH  14  23
ENDBRANCH  13  14
ENDBRANCH   1  13
BRANCH   4  26
ATOM     26  C   UNL     1       2.104  11.607   1.381  0.00  0.00    -0.001 C 
BRANCH  26  32
ATOM     27  C   UNL     1       2.572  12.266  -0.901  0.00  0.00    -0.078 C 
ATOM     28  C   UNL     1       1.993  12.984  -2.122  0.00  0.00    -0.019 C 
ATOM     29  C   UNL     1       1.781  14.463  -1.785  0.00  0.00    -0.004 C 
ATOM     30  C   UNL     1       0.853  14.574  -0.573  0.00  0.00    -0.019 C 
ATOM     31  C   UNL     1       1.465  13.809   0.604  0.00  0.00    -0.078 C 
ATOM     32  N   UNL     1       1.621  12.389   0.224  0.00  0.00    +0.384 N 
ATOM     33  H   UNL     1       0.709  12.021  -0.070  0.00  0.00    -0.081 HD
ENDBRANCH  26  32
ENDBRANCH   4  26
TORSDOF 6
