REMARK  Name = ZINC02811569
REMARK  5 active torsions:
REMARK  status: ('A' for Active; 'I' for Inactive)
REMARK    1  A    between atoms: C_1  and  C_2
REMARK    2  A    between atoms: C_7  and  C_8
REMARK    3  A    between atoms: C_11  and  C_35
REMARK    4  A    between atoms: C_14  and  C_16
REMARK    5  A    between atoms: C_17  and  C_29
REMARK                            x       y       z     vdW  Elec       q    Type
REMARK                         _______ _______ _______ _____ _____    ______ ____
ROOT
ATOM      1  C   UNL     1       2.136   2.248   1.014  0.00  0.00    +0.264 C 
ATOM      2  O   UNL     1       1.848   1.771   2.095  0.00  0.00    -0.268 OA
ATOM      3  N   UNL     1       1.179   2.434   0.083  0.00  0.00    -0.204 N 
ATOM      4  C   UNL     1      -0.232   2.024   0.171  0.00  0.00    +0.187 C 
ATOM      5  C   UNL     1      -0.846   2.476  -1.135  0.00  0.00    +0.030 C 
ATOM      6  C   UNL     1       0.118   3.062  -1.846  0.00  0.00    +0.056 C 
ATOM      7  N   UNL     1       1.327   3.057  -1.163  0.00  0.00    -0.260 N 
ATOM      8  H   UNL     1       2.155   3.432  -1.500  0.00  0.00    +0.170 HD
ENDROOT
BRANCH   6   9
ATOM      9  C   UNL     1      -0.075   3.643  -3.189  0.00  0.00    +0.070 A 
ATOM     10  C   UNL     1      -0.494   2.843  -4.251  0.00  0.00    +0.005 A 
ATOM     11  C   UNL     1      -0.677   3.473  -5.567  0.00  0.00    +0.008 A 
ATOM     12  C   UNL     1      -1.100   2.716  -6.665  0.00  0.00    +0.025 A 
ATOM     13  C   UNL     1      -1.260   3.323  -7.891  0.00  0.00    +0.019 A 
ATOM     14  C   UNL     1      -1.003   4.679  -8.041  0.00  0.00    +0.017 A 
ATOM     15  C   UNL     1      -0.586   5.437  -6.969  0.00  0.00    +0.027 A 
ATOM     16  C   UNL     1      -0.417   4.846  -5.720  0.00  0.00    +0.050 A 
ATOM     17  N   UNL     1       0.003   5.603  -4.645  0.00  0.00    -0.322 N 
ATOM     18  H   UNL     1       0.176   6.549  -4.772  0.00  0.00    +0.169 HD
ATOM     19  C   UNL     1       0.176   5.065  -3.426  0.00  0.00    +0.259 A 
ATOM     20  O   UNL     1       0.547   5.771  -2.505  0.00  0.00    -0.267 OA
ATOM     21 BR   UNL     1      -1.832   2.303  -9.377  0.00  0.00    -0.050 Br
BRANCH  10  22
ATOM     22  C   UNL     1      -0.754   1.402  -4.058  0.00  0.00    -0.016 A 
ATOM     23  C   UNL     1       0.285   0.546  -3.683  0.00  0.00    +0.008 A 
ATOM     24  C   UNL     1       0.034  -0.798  -3.499  0.00  0.00    +0.001 A 
ATOM     25  C   UNL     1      -1.240  -1.301  -3.696  0.00  0.00    +0.000 A 
ATOM     26  C   UNL     1      -2.272  -0.460  -4.074  0.00  0.00    +0.001 A 
ATOM     27  C   UNL     1      -2.037   0.887  -4.256  0.00  0.00    +0.008 A 
ENDBRANCH  10  22
ENDBRANCH   6   9
BRANCH   1  34
ATOM     28  C   UNL     1       3.793   3.347   3.116  0.00  0.00    +0.044 C 
ATOM     29  C   UNL     1       4.344   3.155   1.727  0.00  0.00    -0.038 A 
ATOM     30  C   UNL     1       5.651   3.499   1.447  0.00  0.00    +0.004 A 
ATOM     31  C   UNL     1       6.157   3.328   0.172  0.00  0.00    +0.000 A 
ATOM     32  C   UNL     1       5.359   2.806  -0.832  0.00  0.00    +0.001 A 
ATOM     33  C   UNL     1       4.053   2.453  -0.565  0.00  0.00    +0.013 A 
ATOM     34  C   UNL     1       3.536   2.623   0.721  0.00  0.00    +0.041 A 
ENDBRANCH   1  34
BRANCH   4  35
ATOM     35  C   UNL     1      -0.335   0.526   0.309  0.00  0.00    +0.131 A 
ATOM     36  C   UNL     1      -1.194  -0.132   1.108  0.00  0.00    +0.047 A 
ATOM     37  C   UNL     1      -0.950  -1.512   0.923  0.00  0.00    +0.041 A 
ATOM     38  C   UNL     1       0.050  -1.614   0.028  0.00  0.00    +0.195 A 
ATOM     39  O   UNL     1       0.418  -0.376  -0.340  0.00  0.00    -0.466 OA
ENDBRANCH   4  35
TORSDOF 4
