REMARK  Name = ZINC12417452
REMARK  6 active torsions:
REMARK  status: ('A' for Active; 'I' for Inactive)
REMARK    1  A    between atoms: C_1  and  C_2
REMARK    2  A    between atoms: N_10  and  C_13
REMARK    3  A    between atoms: C_18  and  O_19
REMARK    4  A    between atoms: O_19  and  C_20
REMARK    5  A    between atoms: N_29  and  C_32
REMARK    6  A    between atoms: C_32  and  C_33
REMARK                            x       y       z     vdW  Elec       q    Type
REMARK                         _______ _______ _______ _____ _____    ______ ____
ROOT
ATOM      1  C   UNL     1      -0.019   1.526   0.010  0.00  0.00    +0.025 C 
ATOM      2  C   UNL     1       0.002  -0.004   0.002  0.00  0.00    +0.064 C 
ATOM      3  C   UNL     1       0.780  -0.535  -1.199  0.00  0.00    +0.107 C 
ATOM      4  C   UNL     1       0.954  -2.014  -0.693  0.00  0.00    +0.123 C 
ATOM      5  C   UNL     1       1.337  -2.704  -1.901  0.00  0.00    +0.233 C 
ATOM      6  O   UNL     1       2.080  -3.656  -2.004  0.00  0.00    -0.274 OA
ATOM      7  N   UNL     1       0.676  -2.044  -2.909  0.00  0.00    -0.206 N 
ATOM      8  C   UNL     1       0.096  -0.861  -2.489  0.00  0.00    +0.232 C 
ATOM      9  O   UNL     1      -0.779  -0.226  -3.037  0.00  0.00    -0.274 OA
ATOM     10  C   UNL     1       1.266  -1.913   0.730  0.00  0.00    +0.136 C 
ATOM     11  N   UNL     1       0.820  -0.540   1.147  0.00  0.00    -0.296 NA
ATOM     12  C   UNL     1       0.568  -2.926   1.601  0.00  0.00    +0.004 A 
ATOM     13  C   UNL     1      -0.756  -3.268   1.770  0.00  0.00    +0.008 A 
ATOM     14  C   UNL     1      -1.104  -4.261   2.668  0.00  0.00    +0.000 A 
ATOM     15  C   UNL     1      -0.120  -4.908   3.394  0.00  0.00    +0.002 A 
ATOM     16  C   UNL     1       1.206  -4.569   3.227  0.00  0.00    +0.024 A 
ATOM     17  C   UNL     1       1.565  -3.570   2.324  0.00  0.00    +0.042 A 
ATOM     18  N   UNL     1       2.817  -3.055   1.983  0.00  0.00    -0.265 N 
ATOM     19  C   UNL     1       2.732  -2.083   1.058  0.00  0.00    +0.246 C 
ATOM     20  O   UNL     1       3.656  -1.462   0.578  0.00  0.00    -0.273 OA
ATOM     21  H   UNL     1       1.617   0.051   1.330  0.00  0.00    +0.123 HD
ENDROOT
BRANCH   7  22
ATOM     22  C   UNL     1       0.605  -2.512  -4.230  0.00  0.00    +0.085 A 
ATOM     23  C   UNL     1      -0.438  -3.340  -4.620  0.00  0.00    +0.027 A 
ATOM     24  C   UNL     1      -0.505  -3.799  -5.921  0.00  0.00    +0.002 A 
ATOM     25  C   UNL     1       0.465  -3.436  -6.838  0.00  0.00    +0.004 A 
ATOM     26  C   UNL     1       1.507  -2.612  -6.457  0.00  0.00    +0.047 A 
ATOM     27  C   UNL     1       1.579  -2.142  -5.155  0.00  0.00    +0.142 A 
BRANCH  27  28
ATOM     28  O   UNL     1       2.600  -1.327  -4.780  0.00  0.00    -0.493 OA
ATOM     29  C   UNL     1       3.562  -0.989  -5.781  0.00  0.00    +0.277 C 
ENDBRANCH  27  28
ENDBRANCH   7  22
BRANCH  18  30
ATOM     30  C   UNL     1       4.078  -3.520   2.567  0.00  0.00    +0.148 C 
BRANCH  30  31
ATOM     31  C   UNL     1       4.629  -4.650   1.736  0.00  0.00    -0.030 A 
ATOM     32  C   UNL     1       4.276  -5.955   2.024  0.00  0.00    +0.008 A 
ATOM     33  C   UNL     1       4.780  -6.992   1.263  0.00  0.00    +0.038 A 
ATOM     34  C   UNL     1       5.640  -6.724   0.211  0.00  0.00    +0.123 A 
ATOM     35  C   UNL     1       5.993  -5.416  -0.076  0.00  0.00    +0.038 A 
ATOM     36  C   UNL     1       5.483  -4.380   0.683  0.00  0.00    +0.008 A 
ATOM     37  F   UNL     1       6.134  -7.737  -0.533  0.00  0.00    -0.205 F 
ENDBRANCH  30  31
ENDBRANCH  18  30
TORSDOF 4
