REMARK  Name = ZINC41083096
REMARK  9 active torsions:
REMARK  status: ('A' for Active; 'I' for Inactive)
REMARK    1  A    between atoms: C_1  and  C_2
REMARK    2  A    between atoms: C_2  and  C_3
REMARK    3  A    between atoms: C_3  and  C_4
REMARK    4  A    between atoms: C_4  and  C_5
REMARK    5  A    between atoms: C_5  and  C_6
REMARK    6  A    between atoms: C_12  and  C_13
REMARK    7  A    between atoms: C_16  and  C_18
REMARK    8  A    between atoms: C_20  and  N_25
REMARK    9  A    between atoms: C_23  and  C_24
REMARK                            x       y       z     vdW  Elec       q    Type
REMARK                         _______ _______ _______ _____ _____    ______ ____
ROOT
ATOM      1  C   UNL     1       3.786  -4.109  -1.058  0.00  0.00    +0.100 C 
ATOM      2  N   UNL     1       2.893  -4.847  -0.462  0.00  0.00    -0.169 NA
ATOM      3  N   UNL     1       2.530  -6.077  -0.968  0.00  0.00    -0.152 N 
ATOM      4  C   UNL     1       1.516  -6.913  -0.455  0.00  0.00    +0.153 C 
ATOM      5  N   UNL     1       0.526  -6.475   0.280  0.00  0.00    -0.283 NA
ATOM      6  C   UNL     1       1.682  -8.342  -0.832  0.00  0.00    +0.084 C 
ATOM      7  C   UNL     1       1.292  -9.371   0.012  0.00  0.00    +0.063 C 
ATOM      8  C   UNL     1       2.285  -8.609  -2.158  0.00  0.00    +0.273 C 
ATOM      9  O   UNL     1       2.062  -9.652  -2.751  0.00  0.00    -0.268 OA
ATOM     10  N   UNL     1       3.089  -7.666  -2.691  0.00  0.00    -0.152 NA
ATOM     11  C   UNL     1       3.203  -6.509  -2.090  0.00  0.00    +0.181 C 
ATOM     12  S   UNL     1       4.236  -5.117  -2.463  0.00  0.00    -0.038 S 
ATOM     13  H   UNL     1       0.465  -5.531   0.498  0.00  0.00    +0.188 HD
ENDROOT
BRANCH   7  14
ATOM     14  C   UNL     1       1.844 -10.653  -0.141  0.00  0.00    +0.129 A 
ATOM     15  C   UNL     1       1.447 -11.796   0.537  0.00  0.00    +0.050 A 
ATOM     16  C   UNL     1       2.256 -12.836   0.081  0.00  0.00    +0.050 A 
ATOM     17  C   UNL     1       3.116 -12.299  -0.854  0.00  0.00    +0.136 A 
ATOM     18  O   UNL     1       2.850 -10.988  -0.978  0.00  0.00    -0.455 OA
BRANCH  17  19
ATOM     19  C   UNL     1       4.151 -13.042  -1.598  0.00  0.00    +0.022 A 
ATOM     20  C   UNL     1       5.048 -13.869  -0.917  0.00  0.00    +0.044 A 
ATOM     21  C   UNL     1       6.013 -14.560  -1.619  0.00  0.00    +0.127 A 
ATOM     22  C   UNL     1       6.094 -14.436  -2.995  0.00  0.00    +0.033 A 
ATOM     23  C   UNL     1       5.209 -13.619  -3.677  0.00  0.00    +0.006 A 
ATOM     24  C   UNL     1       4.235 -12.926  -2.988  0.00  0.00    -0.040 A 
ATOM     25  C   UNL     1       3.269 -12.041  -3.732  0.00  0.00    +0.044 C 
BRANCH  21  26
ATOM     26  N   UNL     1       6.964 -15.437  -0.900  0.00  0.00    +0.056 N 
ATOM     27  O   UNL     1       6.895 -15.546   0.302  0.00  0.00    -0.126 OA
ATOM     28  O   UNL     1       7.810 -16.043  -1.514  0.00  0.00    -0.126 OA
ENDBRANCH  21  26
ENDBRANCH  17  19
ENDBRANCH   7  14
BRANCH   1  29
ATOM     29  C   UNL     1       4.303  -2.748  -0.665  0.00  0.00    +0.064 C 
BRANCH  29  30
ATOM     30  C   UNL     1       3.612  -2.292   0.622  0.00  0.00    +0.007 C 
BRANCH  30  31
ATOM     31  C   UNL     1       4.137  -0.911   1.020  0.00  0.00    +0.000 C 
BRANCH  31  33
ATOM     32  C   UNL     1       3.971   0.926   2.705  0.00  0.00    +0.004 C 
ATOM     33  C   UNL     1       3.446  -0.455   2.307  0.00  0.00    -0.003 C 
ENDBRANCH  31  33
ENDBRANCH  30  31
ENDBRANCH  29  30
ENDBRANCH   1  29
TORSDOF 7
