REMARK  Name = ZINC08725885
REMARK  15 active torsions:
REMARK  status: ('A' for Active; 'I' for Inactive)
REMARK    1  A    between atoms: C_1  and  C_2
REMARK    2  A    between atoms: C_3  and  C_32
REMARK    3  A    between atoms: C_4  and  C_31
REMARK    4  A    between atoms: C_7  and  C_8
REMARK    5  A    between atoms: C_8  and  C_10
REMARK    6  A    between atoms: C_10  and  C_12
REMARK    7  A    between atoms: C_10  and  S_13
REMARK    8  A    between atoms: S_13  and  C_14
REMARK    9  A    between atoms: C_17  and  C_26
REMARK   10  A    between atoms: N_18  and  C_19
REMARK   11  A    between atoms: C_26  and  C_28
REMARK   12  A    between atoms: C_26  and  N_60
REMARK   13  A    between atoms: C_29  and  N_60
REMARK   14  A    between atoms: C_30  and  N_60
REMARK   15  A    between atoms: C_32  and  C_34
REMARK                            x       y       z     vdW  Elec       q    Type
REMARK                         _______ _______ _______ _____ _____    ______ ____
ROOT
ATOM      1  C   UNL     1       1.654   0.565   2.245  0.00  0.00    +0.197 A 
ATOM      2  N   UNL     1       0.921  -0.367   2.807  0.00  0.00    -0.122 NA
ATOM      3  N   UNL     1       1.553  -0.882   3.800  0.00  0.00    -0.135 NA
ATOM      4  C   UNL     1       2.719  -0.314   3.933  0.00  0.00    +0.125 A 
ATOM      5  N   UNL     1       2.829   0.626   2.943  0.00  0.00    -0.275 N 
ENDROOT
BRANCH   5   6
ATOM      6  C   UNL     1       3.917   1.476   2.698  0.00  0.00    +0.050 A 
ATOM      7  C   UNL     1       5.140   0.945   2.311  0.00  0.00    +0.028 A 
ATOM      8  C   UNL     1       6.210   1.784   2.066  0.00  0.00    +0.022 A 
ATOM      9  C   UNL     1       6.066   3.152   2.216  0.00  0.00    +0.041 A 
ATOM     10  C   UNL     1       4.849   3.683   2.608  0.00  0.00    +0.022 A 
ATOM     11  C   UNL     1       3.776   2.848   2.849  0.00  0.00    +0.028 A 
ATOM     12 CL   UNL     1       7.413   4.204   1.913  0.00  0.00    -0.084 Cl
ENDBRANCH   5   6
BRANCH   4  13
ATOM     13  C   UNL     1       3.756  -0.637   4.978  0.00  0.00    -0.003 C 
ATOM     14  C   UNL     1       4.441  -1.959   4.625  0.00  0.00    -0.005 C 
BRANCH  13  17
ATOM     15  C   UNL     1       2.202  -1.913   6.328  0.00  0.00    -0.096 C 
ATOM     16  C   UNL     1       4.106  -0.834   7.365  0.00  0.00    -0.096 C 
ATOM     17  N   UNL     1       3.092  -0.732   6.295  0.00  0.00    +0.382 N 
ATOM     18  H   UNL     1       2.530   0.113   6.447  0.00  0.00    -0.082 HD
ENDBRANCH  13  17
ENDBRANCH   4  13
BRANCH   1  19
ATOM     19  S   UNL     1       1.212   1.548   0.850  0.00  0.00    -0.074 S 
BRANCH  19  20
ATOM     20  C   UNL     1      -0.437   0.883   0.508  0.00  0.00    +0.124 C 
ATOM     21  C   UNL     1      -1.369   1.205   1.677  0.00  0.00    +0.028 C 
BRANCH  20  22
ATOM     22  C   UNL     1      -0.978   1.507  -0.753  0.00  0.00    +0.192 C 
ATOM     23  O   UNL     1      -0.578   2.596  -1.111  0.00  0.00    -0.289 OA
BRANCH  22  30
ATOM     24  C   UNL     1      -2.241   2.583  -3.380  0.00  0.00    +0.047 C 
ATOM     25  C   UNL     1      -2.528   1.277  -2.685  0.00  0.00    -0.012 A 
ATOM     26  C   UNL     1      -3.439   0.281  -3.105  0.00  0.00    +0.041 A 
ATOM     27  C   UNL     1      -3.382  -0.744  -2.172  0.00  0.00    +0.024 A 
ATOM     28  N   UNL     1      -2.487  -0.416  -1.230  0.00  0.00    -0.355 N 
ATOM     29  H   UNL     1      -2.253  -0.963  -0.464  0.00  0.00    +0.166 HD
ATOM     30  C   UNL     1      -1.952   0.824  -1.519  0.00  0.00    +0.087 A 
ATOM     31  C   UNL     1      -4.186  -2.018  -2.215  0.00  0.00    +0.064 C 
BRANCH  26  32
ATOM     32  C   UNL     1      -4.286   0.324  -4.301  0.00  0.00    +0.162 C 
ATOM     33  O   UNL     1      -5.373   0.862  -4.257  0.00  0.00    -0.292 OA
ATOM     34  C   UNL     1      -3.807  -0.300  -5.587  0.00  0.00    +0.091 C 
ENDBRANCH  26  32
ENDBRANCH  22  30
ENDBRANCH  20  22
ENDBRANCH  19  20
ENDBRANCH   1  19
TORSDOF 8
