REMARK  Name = ZINC63187653
REMARK  8 active torsions:
REMARK  status: ('A' for Active; 'I' for Inactive)
REMARK    1  A    between atoms: C_1  and  C_2
REMARK    2  A    between atoms: C_5  and  C_16
REMARK    3  A    between atoms: C_6  and  C_15
REMARK    4  A    between atoms: N_7  and  C_8
REMARK    5  A    between atoms: C_16  and  C_18
REMARK    6  A    between atoms: C_18  and  N_19
REMARK    7  A    between atoms: C_22  and  C_27
REMARK    8  A    between atoms: C_27  and  C_28
REMARK                            x       y       z     vdW  Elec       q    Type
REMARK                         _______ _______ _______ _____ _____    ______ ____
ROOT
ATOM      1  N   UNL     1      -4.674  -3.281   1.385  0.00  0.00    -0.217 N 
ATOM      2  C   UNL     1      -4.814  -4.502   0.832  0.00  0.00    +0.244 C 
ATOM      3  O   UNL     1      -4.238  -4.935  -0.143  0.00  0.00    -0.273 OA
ATOM      4  C   UNL     1      -5.841  -5.222   1.683  0.00  0.00    +0.165 C 
ATOM      5  N   UNL     1      -6.193  -4.230   2.714  0.00  0.00    -0.287 N 
ATOM      6  C   UNL     1      -5.457  -3.133   2.459  0.00  0.00    +0.310 C 
ATOM      7  O   UNL     1      -5.502  -2.119   3.128  0.00  0.00    -0.252 OA
ATOM      8  H   UNL     1      -6.829  -4.346   3.437  0.00  0.00    +0.151 HD
ENDROOT
BRANCH   1   9
ATOM      9  C   UNL     1      -3.770  -2.246   0.877  0.00  0.00    +0.197 C 
BRANCH   9  10
ATOM     10  C   UNL     1      -2.420  -2.392   1.531  0.00  0.00    +0.178 C 
ATOM     11  O   UNL     1      -2.231  -3.276   2.344  0.00  0.00    -0.291 OA
BRANCH  10  15
ATOM     12  C   UNL     1      -0.170   1.699   0.564  0.00  0.00    +0.029 C 
ATOM     13  C   UNL     1      -0.043   0.217   0.204  0.00  0.00    +0.080 C 
ATOM     14  C   UNL     1      -1.434  -0.441   0.131  0.00  0.00    +0.062 C 
ATOM     15  C   UNL     1      -1.382  -1.509   1.202  0.00  0.00    +0.015 C 
ATOM     16  C   UNL     1      -0.167  -1.466   1.786  0.00  0.00    +0.015 C 
ATOM     17  N   UNL     1       0.652  -0.513   1.273  0.00  0.00    -0.300 N 
ATOM     18  C   UNL     1       0.244  -2.391   2.902  0.00  0.00    +0.061 C 
BRANCH  17  19
ATOM     19  C   UNL     1       1.959  -0.262   1.698  0.00  0.00    +0.037 A 
ATOM     20  C   UNL     1       2.192   0.258   2.965  0.00  0.00    +0.023 A 
ATOM     21  C   UNL     1       3.484   0.505   3.383  0.00  0.00    +0.005 A 
ATOM     22  C   UNL     1       4.548   0.237   2.541  0.00  0.00    +0.038 A 
ATOM     23  C   UNL     1       4.321  -0.281   1.277  0.00  0.00    +0.125 A 
ATOM     24  C   UNL     1       3.029  -0.536   0.856  0.00  0.00    +0.061 A 
ATOM     25  F   UNL     1       5.363  -0.542   0.457  0.00  0.00    -0.205 F 
ENDBRANCH  17  19
ENDBRANCH  10  15
ENDBRANCH   9  10
ENDBRANCH   1   9
BRANCH   4  26
ATOM     26  C   UNL     1      -5.231  -6.472   2.321  0.00  0.00    +0.065 C 
BRANCH  26  27
ATOM     27  C   UNL     1      -6.302  -7.233   3.059  0.00  0.00    -0.039 C 
ATOM     28  C   UNL     1      -7.029  -8.273   2.592  0.00  0.00    -0.001 A 
ATOM     29  C   UNL     1      -7.042  -8.979   1.306  0.00  0.00    +0.010 A 
ATOM     30  C   UNL     1      -7.904 -10.007   1.130  0.00  0.00    +0.001 A 
ATOM     31  C   UNL     1      -8.784 -10.412   2.143  0.00  0.00    +0.002 A 
ATOM     32  C   UNL     1      -8.831  -9.812   3.351  0.00  0.00    +0.026 A 
ATOM     33  C   UNL     1      -7.968  -8.721   3.646  0.00  0.00    +0.043 A 
ATOM     34  N   UNL     1      -7.826  -7.987   4.723  0.00  0.00    -0.380 N 
ATOM     35  C   UNL     1      -6.776  -6.992   4.475  0.00  0.00    +0.144 C 
ATOM     36  H   UNL     1      -8.328  -8.086   5.546  0.00  0.00    +0.160 HD
ENDBRANCH  26  27
ENDBRANCH   4  26
TORSDOF 6
