REMARK  Name = ZINC30882899
REMARK  13 active torsions:
REMARK  status: ('A' for Active; 'I' for Inactive)
REMARK    1  A    between atoms: C_1  and  C_2
REMARK    2  A    between atoms: C_4  and  C_26
REMARK    3  A    between atoms: C_6  and  C_23
REMARK    4  A    between atoms: C_9  and  C_11
REMARK    5  A    between atoms: C_11  and  C_12
REMARK    6  A    between atoms: C_15  and  C_17
REMARK    7  A    between atoms: C_23  and  C_24
REMARK    8  A    between atoms: C_23  and  C_25
REMARK    9  A    between atoms: C_26  and  N_27
REMARK   10  A    between atoms: N_27  and  C_28
REMARK   11  A    between atoms: C_28  and  C_29
REMARK   12  A    between atoms: C_34  and  O_35
REMARK   13  A    between atoms: O_35  and  C_36
REMARK                            x       y       z     vdW  Elec       q    Type
REMARK                         _______ _______ _______ _____ _____    ______ ____
ROOT
ATOM      1  C   UNL     1      -2.443  -1.419  -2.162  0.00  0.00    +0.039 C 
ATOM      2  C   UNL     1      -3.331  -2.608  -1.899  0.00  0.00    -0.073 C 
ATOM      3  C   UNL     1      -2.848  -3.783  -2.136  0.00  0.00    -0.026 C 
ATOM      4  C   UNL     1      -3.611  -5.060  -1.933  0.00  0.00    -0.002 C 
ATOM      5  C   UNL     1      -4.825  -4.812  -1.036  0.00  0.00    -0.003 C 
ATOM      6  C   UNL     1      -5.587  -3.595  -1.575  0.00  0.00    +0.012 C 
ATOM      7  C   UNL     1      -4.715  -2.352  -1.380  0.00  0.00    +0.024 C 
ENDROOT
BRANCH   5   8
ATOM      8  C   UNL     1      -5.739  -6.038  -1.049  0.00  0.00    -0.014 C 
ATOM      9  C   UNL     1      -6.889  -5.828  -0.062  0.00  0.00    +0.007 C 
ATOM     10  C   UNL     1      -6.305  -6.237  -2.456  0.00  0.00    +0.007 C 
ENDBRANCH   5   8
BRANCH   7  11
ATOM     11  C   UNL     1      -4.643  -2.013   0.110  0.00  0.00    +0.105 C 
BRANCH  11  12
ATOM     12  C   UNL     1      -3.895  -0.718   0.295  0.00  0.00    +0.218 A 
ATOM     13  N   UNL     1      -4.416   0.477   0.311  0.00  0.00    -0.112 NA
ATOM     14  N   UNL     1      -3.487   1.349   0.489  0.00  0.00    -0.107 NA
ATOM     15  C   UNL     1      -2.332   0.735   0.594  0.00  0.00    +0.250 A 
ATOM     16  O   UNL     1      -2.568  -0.586   0.468  0.00  0.00    -0.420 OA
BRANCH  15  17
ATOM     17  C   UNL     1      -1.015   1.374   0.805  0.00  0.00    +0.057 A 
ATOM     18  C   UNL     1      -0.909   2.765   0.920  0.00  0.00    +0.016 A 
ATOM     19  C   UNL     1       0.347   3.314   1.111  0.00  0.00    +0.020 A 
ATOM     20  C   UNL     1       1.446   2.478   1.187  0.00  0.00    +0.111 A 
ATOM     21  N   UNL     1       1.316   1.169   1.082  0.00  0.00    -0.263 NA
ATOM     22  C   UNL     1       0.142   0.600   0.899  0.00  0.00    +0.124 A 
ENDBRANCH  15  17
ENDBRANCH  11  12
ENDBRANCH   7  11
BRANCH   4  23
ATOM     23  C   UNL     1      -2.696  -6.094  -1.274  0.00  0.00    -0.074 C 
BRANCH  23  24
ATOM     24  N   UNL     1      -1.576  -6.401  -2.175  0.00  0.00    +0.382 N 
ATOM     25  H   UNL     1      -1.966  -6.806  -3.120  0.00  0.00    -0.085 HD
ATOM     26  H   UNL     1      -1.006  -5.483  -2.377  0.00  0.00    -0.085 HD
BRANCH  24  27
ATOM     27  C   UNL     1      -0.674  -7.394  -1.574  0.00  0.00    -0.043 C 
BRANCH  27  28
ATOM     28  C   UNL     1       0.459  -7.683  -2.524  0.00  0.00    -0.023 A 
ATOM     29  C   UNL     1       0.431  -8.821  -3.307  0.00  0.00    +0.005 A 
ATOM     30  C   UNL     1       1.469  -9.085  -4.182  0.00  0.00    +0.000 A 
ATOM     31  C   UNL     1       2.541  -8.216  -4.269  0.00  0.00    +0.004 A 
ATOM     32  C   UNL     1       2.575  -7.079  -3.485  0.00  0.00    +0.046 A 
ATOM     33  C   UNL     1       1.533  -6.810  -2.609  0.00  0.00    +0.121 A 
BRANCH  33  34
ATOM     34  O   UNL     1       1.565  -5.692  -1.836  0.00  0.00    -0.495 OA
ATOM     35  C   UNL     1       2.703  -4.838  -1.977  0.00  0.00    +0.277 C 
ENDBRANCH  33  34
ENDBRANCH  27  28
ENDBRANCH  24  27
ENDBRANCH  23  24
ENDBRANCH   4  23
TORSDOF 9
