REMARK  Name = ZINC09308847
REMARK  11 active torsions:
REMARK  status: ('A' for Active; 'I' for Inactive)
REMARK    1  A    between atoms: C_1  and  C_2
REMARK    2  A    between atoms: C_2  and  C_3
REMARK    3  A    between atoms: C_3  and  O_4
REMARK    4  A    between atoms: O_4  and  C_5
REMARK    5  A    between atoms: C_8  and  C_11
REMARK    6  A    between atoms: C_18  and  N_39
REMARK    7  A    between atoms: C_19  and  C_37
REMARK    8  A    between atoms: C_20  and  C_22
REMARK    9  A    between atoms: C_25  and  O_28
REMARK   10  A    between atoms: O_28  and  C_29
REMARK   11  A    between atoms: C_29  and  C_30
REMARK                            x       y       z     vdW  Elec       q    Type
REMARK                         _______ _______ _______ _____ _____    ______ ____
ROOT
ATOM      1  C   UNL     1       3.231  -4.417  -5.633  0.00  0.00    +0.100 A 
ATOM      2  C   UNL     1       3.957  -5.612  -5.595  0.00  0.00    +0.054 A 
ATOM      3  C   UNL     1       4.397  -5.879  -6.859  0.00  0.00    +0.223 A 
ATOM      4  N   UNL     1       3.964  -4.886  -7.663  0.00  0.00    -0.246 N 
ATOM      5  H   UNL     1       4.127  -4.811  -8.617  0.00  0.00    +0.192 HD
ATOM      6  N   UNL     1       3.231  -3.982  -6.879  0.00  0.00    -0.171 NA
ATOM      7  O   UNL     1       5.134  -6.977  -7.161  0.00  0.00    -0.423 OA
ATOM      8  C   UNL     1       5.200  -7.957  -6.238  0.00  0.00    +0.200 C 
ATOM      9  C   UNL     1       4.808  -7.809  -4.953  0.00  0.00    +0.098 C 
ATOM     10  C   UNL     1       4.254  -6.510  -4.423  0.00  0.00    +0.102 C 
ENDROOT
BRANCH   1  14
ATOM     11  C   UNL     1       1.341  -2.529  -2.322  0.00  0.00    +0.121 A 
ATOM     12  C   UNL     1       1.908  -1.759  -3.328  0.00  0.00    +0.046 A 
ATOM     13  C   UNL     1       2.521  -2.368  -4.403  0.00  0.00    +0.013 A 
ATOM     14  C   UNL     1       2.572  -3.759  -4.478  0.00  0.00    +0.003 A 
ATOM     15  C   UNL     1       2.003  -4.529  -3.466  0.00  0.00    +0.013 A 
ATOM     16  C   UNL     1       1.395  -3.915  -2.392  0.00  0.00    +0.046 A 
BRANCH  11  17
ATOM     17  O   UNL     1       0.738  -1.926  -1.265  0.00  0.00    -0.492 OA
BRANCH  17  18
ATOM     18  C   UNL     1       0.718  -0.497  -1.257  0.00  0.00    +0.229 C 
BRANCH  18  20
ATOM     19  C   UNL     1      -0.019   1.526   0.010  0.00  0.00    +0.007 C 
ATOM     20  C   UNL     1       0.002  -0.004   0.002  0.00  0.00    +0.038 C 
ENDBRANCH  18  20
ENDBRANCH  17  18
ENDBRANCH  11  17
ENDBRANCH   1  14
BRANCH  10  21
ATOM     21  C   UNL     1       5.269  -5.853  -3.523  0.00  0.00    -0.034 A 
ATOM     22  C   UNL     1       6.517  -5.522  -4.017  0.00  0.00    +0.008 A 
ATOM     23  C   UNL     1       7.450  -4.921  -3.195  0.00  0.00    +0.046 A 
ATOM     24  C   UNL     1       7.133  -4.648  -1.872  0.00  0.00    +0.121 A 
ATOM     25  C   UNL     1       5.879  -4.980  -1.379  0.00  0.00    +0.046 A 
ATOM     26  C   UNL     1       4.949  -5.577  -2.207  0.00  0.00    +0.008 A 
BRANCH  24  27
ATOM     27  O   UNL     1       8.049  -4.056  -1.061  0.00  0.00    -0.487 OA
BRANCH  27  28
ATOM     28  C   UNL     1       7.653  -3.805   0.289  0.00  0.00    +0.264 C 
BRANCH  28  29
ATOM     29  C   UNL     1       8.789  -3.150   1.032  0.00  0.00    -0.010 A 
ATOM     30  C   UNL     1       9.725  -3.928   1.689  0.00  0.00    +0.010 A 
ATOM     31  C   UNL     1      10.767  -3.329   2.370  0.00  0.00    +0.039 A 
ATOM     32  C   UNL     1      10.874  -1.948   2.394  0.00  0.00    +0.123 A 
ATOM     33  C   UNL     1       9.937  -1.170   1.736  0.00  0.00    +0.039 A 
ATOM     34  C   UNL     1       8.898  -1.772   1.052  0.00  0.00    +0.010 A 
ATOM     35  F   UNL     1      11.893  -1.361   3.060  0.00  0.00    -0.205 F 
ENDBRANCH  28  29
ENDBRANCH  27  28
ENDBRANCH  24  27
ENDBRANCH  10  21
BRANCH   8  36
ATOM     36  N   UNL     1       5.696  -9.178  -6.625  0.00  0.00    -0.328 N 
ATOM     37  H   UNL     1       5.986  -9.315  -7.540  0.00  0.00    +0.145 HD
ATOM     38  H   UNL     1       5.756  -9.902  -5.983  0.00  0.00    +0.145 HD
ENDBRANCH   8  36
BRANCH   9  39
ATOM     39  C   UNL     1       4.921  -8.925  -4.063  0.00  0.00    +0.101 C 
ATOM     40  N   UNL     1       5.011  -9.810  -3.357  0.00  0.00    -0.191 NA
ENDBRANCH   9  39
TORSDOF 10
