REMARK  Name = ZINC35844967
REMARK  18 active torsions:
REMARK  status: ('A' for Active; 'I' for Inactive)
REMARK    1  A    between atoms: C_1  and  C_2
REMARK    2  A    between atoms: C_2  and  C_3
REMARK    3  A    between atoms: C_3  and  C_4
REMARK    4  A    between atoms: C_4  and  C_6
REMARK    5  A    between atoms: C_4  and  N_11
REMARK    6  A    between atoms: C_6  and  O_8
REMARK    7  A    between atoms: O_8  and  C_9
REMARK    8  A    between atoms: C_9  and  C_10
REMARK    9  A    between atoms: N_11  and  C_12
REMARK   10  A    between atoms: N_11  and  C_18
REMARK   11  A    between atoms: C_12  and  C_13
REMARK   12  A    between atoms: C_18  and  C_19
REMARK   13  A    between atoms: N_21  and  C_22
REMARK   14  A    between atoms: N_21  and  C_30
REMARK   15  A    between atoms: C_22  and  C_23
REMARK   16  A    between atoms: C_23  and  C_24
REMARK   17  A    between atoms: C_30  and  C_31
REMARK   18  A    between atoms: C_34  and  C_36
REMARK                            x       y       z     vdW  Elec       q    Type
REMARK                         _______ _______ _______ _____ _____    ______ ____
ROOT
ATOM      1  C   UNL     1      -0.860  -4.208   1.232  0.00  0.00    +0.020 C 
ENDROOT
BRANCH   1   2
ATOM      2  C   UNL     1      -0.433  -4.904   2.498  0.00  0.00    +0.199 C 
ATOM      3  O   UNL     1      -0.069  -4.253   3.455  0.00  0.00    -0.278 OA
ATOM      4  N   UNL     1      -0.456  -6.250   2.568  0.00  0.00    -0.295 N 
BRANCH   4   5
ATOM      5  C   UNL     1      -0.040  -6.926   3.800  0.00  0.00    +0.113 C 
BRANCH   5   6
ATOM      6  C   UNL     1      -1.254  -7.113   4.713  0.00  0.00    +0.054 C 
BRANCH   6   7
ATOM      7  C   UNL     1      -0.826  -7.809   5.980  0.00  0.00    -0.046 A 
ATOM      8  C   UNL     1      -0.844  -9.190   6.050  0.00  0.00    +0.004 A 
ATOM      9  C   UNL     1      -0.452  -9.828   7.211  0.00  0.00    +0.000 A 
ATOM     10  C   UNL     1      -0.042  -9.086   8.303  0.00  0.00    +0.000 A 
ATOM     11  C   UNL     1      -0.023  -7.705   8.233  0.00  0.00    +0.000 A 
ATOM     12  C   UNL     1      -0.411  -7.067   7.069  0.00  0.00    +0.004 A 
ENDBRANCH   6   7
ENDBRANCH   5   6
ENDBRANCH   4   5
BRANCH   4  13
ATOM     13  C   UNL     1      -0.896  -7.036   1.413  0.00  0.00    +0.181 C 
BRANCH  13  14
ATOM     14  C   UNL     1       0.291  -7.353   0.540  0.00  0.00    +0.122 A 
ATOM     15  C   UNL     1       1.075  -8.441   0.643  0.00  0.00    +0.046 A 
ATOM     16  C   UNL     1       2.058  -8.335  -0.367  0.00  0.00    +0.045 A 
ATOM     17  C   UNL     1       1.816  -7.188  -1.027  0.00  0.00    +0.102 A 
ATOM     18  O   UNL     1       0.741  -6.600  -0.477  0.00  0.00    -0.463 OA
ATOM     19  C   UNL     1       2.613  -6.655  -2.190  0.00  0.00    +0.086 C 
ENDBRANCH  13  14
ENDBRANCH   4  13
ENDBRANCH   1   2
BRANCH   1  20
ATOM     20  N   UNL     1      -0.745  -2.754   1.409  0.00  0.00    +0.399 N 
ATOM     21  H   UNL     1      -1.227  -2.479   2.252  0.00  0.00    -0.079 HD
BRANCH  20  22
ATOM     22  C   UNL     1      -1.347  -2.071   0.256  0.00  0.00    +0.044 C 
BRANCH  22  23
ATOM     23  C   UNL     1      -0.681  -2.544  -1.011  0.00  0.00    +0.293 C 
ATOM     24  O   UNL     1       0.210  -3.358  -0.958  0.00  0.00    -0.253 OA
BRANCH  23  25
ATOM     25  O   UNL     1      -1.079  -2.061  -2.199  0.00  0.00    -0.466 OA
BRANCH  25  26
ATOM     26  C   UNL     1      -0.405  -2.554  -3.358  0.00  0.00    +0.228 C 
ATOM     27  C   UNL     1      -0.991  -1.894  -4.608  0.00  0.00    +0.048 C 
ENDBRANCH  25  26
ENDBRANCH  23  25
ENDBRANCH  22  23
BRANCH  22  28
ATOM     28  C   UNL     1      -2.842  -2.391   0.197  0.00  0.00    -0.005 C 
BRANCH  28  30
ATOM     29  C   UNL     1      -5.009  -2.227   1.429  0.00  0.00    +0.004 C 
ATOM     30  C   UNL     1      -3.535  -1.816   1.433  0.00  0.00    -0.004 C 
ENDBRANCH  28  30
ENDBRANCH  22  28
ENDBRANCH  20  22
BRANCH  20  31
ATOM     31  C   UNL     1       0.673  -2.384   1.513  0.00  0.00    -0.001 C 
BRANCH  31  32
ATOM     32  C   UNL     1       0.787  -0.914   1.823  0.00  0.00    +0.089 A 
ATOM     33  C   UNL     1       0.907  -0.376   3.050  0.00  0.00    +0.042 A 
ATOM     34  C   UNL     1       0.983   1.025   2.877  0.00  0.00    +0.041 A 
ATOM     35  C   UNL     1       0.904   1.260   1.555  0.00  0.00    +0.195 A 
ATOM     36  O   UNL     1       0.791   0.081   0.921  0.00  0.00    -0.470 OA
ENDBRANCH  31  32
ENDBRANCH  20  31
ENDBRANCH   1  20
TORSDOF 15
