REMARK  Name = ZINC06351054
REMARK  6 active torsions:
REMARK  status: ('A' for Active; 'I' for Inactive)
REMARK    1  A    between atoms: C_1  and  C_2
REMARK    2  A    between atoms: C_2  and  C_3
REMARK    3  A    between atoms: C_6  and  N_9
REMARK    4  A    between atoms: N_9  and  C_10
REMARK    5  A    between atoms: C_16  and  C_17
REMARK    6  A    between atoms: C_20  and  O_24
REMARK                            x       y       z     vdW  Elec       q    Type
REMARK                         _______ _______ _______ _____ _____    ______ ____
ROOT
ATOM      1  C   UNL     1      -0.893   6.162   0.326  0.00  0.00    +0.224 C 
ATOM      2  N   UNL     1      -2.279   5.666   0.355  0.00  0.00    -0.284 N 
ATOM      3  C   UNL     1      -2.477   4.364   0.253  0.00  0.00    +0.252 C 
ATOM      4  O   UNL     1      -3.606   3.911   0.266  0.00  0.00    -0.270 OA
ATOM      5  C   UNL     1      -1.316   3.465   0.129  0.00  0.00    +0.073 C 
ATOM      6  C   UNL     1      -1.298   2.115   0.020  0.00  0.00    +0.028 C 
ATOM      7  S   UNL     1       0.063   4.601   0.152  0.00  0.00    -0.078 S 
ATOM      8  H   UNL     1      -3.026   6.279   0.442  0.00  0.00    +0.152 HD
ENDROOT
BRANCH   6   9
ATOM      9  C   UNL     1      -0.020   1.391   0.065  0.00  0.00    -0.023 A 
ATOM     10  C   UNL     1       0.067   0.088  -0.441  0.00  0.00    +0.011 A 
ATOM     11  C   UNL     1       1.265  -0.588  -0.393  0.00  0.00    +0.047 A 
ATOM     12  C   UNL     1       2.387   0.019   0.158  0.00  0.00    +0.131 A 
ATOM     13  C   UNL     1       2.307   1.312   0.663  0.00  0.00    +0.060 A 
ATOM     14  C   UNL     1       1.112   1.998   0.618  0.00  0.00    +0.027 A 
ATOM     15 BR   UNL     1       3.838   2.131   1.411  0.00  0.00    -0.047 Br
BRANCH  12  16
ATOM     16  O   UNL     1       3.567  -0.653   0.204  0.00  0.00    -0.506 OA
ATOM     17  H   UNL     1       3.693  -1.171   1.011  0.00  0.00    +0.292 HD
ENDBRANCH  12  16
ENDBRANCH   6   9
BRANCH   1  18
ATOM     18  N   UNL     1      -0.675   7.041  -0.826  0.00  0.00    -0.317 N 
ATOM     19  H   UNL     1      -1.357   7.120  -1.512  0.00  0.00    +0.149 HD
BRANCH  18  23
ATOM     20  C   UNL     1       2.870   9.199  -1.158  0.00  0.00    -0.048 A 
ATOM     21  C   UNL     1       1.899   9.312  -2.136  0.00  0.00    +0.005 A 
ATOM     22  C   UNL     1       0.722   8.598  -2.029  0.00  0.00    +0.023 A 
ATOM     23  C   UNL     1       0.514   7.764  -0.938  0.00  0.00    +0.029 A 
ATOM     24  C   UNL     1       1.489   7.657   0.046  0.00  0.00    +0.023 A 
ATOM     25  C   UNL     1       2.666   8.370  -0.070  0.00  0.00    +0.005 A 
BRANCH  20  27
ATOM     26  C   UNL     1       3.988  11.340  -0.595  0.00  0.00    +0.009 C 
ATOM     27  C   UNL     1       4.153   9.980  -1.277  0.00  0.00    +0.032 C 
ENDBRANCH  20  27
ENDBRANCH  18  23
ENDBRANCH   1  18
TORSDOF 5
