REMARK  Name = ZINC05612560
REMARK  3 active torsions:
REMARK  status: ('A' for Active; 'I' for Inactive)
REMARK    1  A    between atoms: C_1  and  C_2
REMARK    2  A    between atoms: C_7  and  C_12
REMARK    3  A    between atoms: C_13  and  O_19
REMARK                            x       y       z     vdW  Elec       q    Type
REMARK                         _______ _______ _______ _____ _____    ______ ____
ROOT
ATOM      1  C   UNL     1       4.289   2.171  -0.029  0.00  0.00    +0.046 C 
ATOM      2  C   UNL     1       3.525   0.873  -0.028  0.00  0.00    -0.026 A 
ATOM      3  C   UNL     1       4.205  -0.328  -0.041  0.00  0.00    +0.020 A 
ATOM      4  C   UNL     1       3.520  -1.533  -0.041  0.00  0.00    +0.019 A 
ATOM      5  C   UNL     1       2.138  -1.548  -0.027  0.00  0.00    +0.026 A 
ATOM      6  C   UNL     1       1.436  -0.347  -0.013  0.00  0.00    +0.013 A 
ATOM      7  C   UNL     1       0.002  -0.004   0.002  0.00  0.00    +0.067 C 
ATOM      8  C   UNL     1      -0.018   1.486   0.010  0.00  0.00    +0.270 C 
ATOM      9  O   UNL     1      -1.016   2.191   0.019  0.00  0.00    -0.268 OA
ATOM     10  N   UNL     1       1.232   1.909   0.001  0.00  0.00    -0.176 NA
ATOM     11  C   UNL     1       2.127   0.886  -0.013  0.00  0.00    +0.068 A 
ATOM     12 BR   UNL     1       4.479  -3.163  -0.058  0.00  0.00    -0.050 Br
ENDROOT
BRANCH   7  13
ATOM     13  C   UNL     1      -1.077  -0.868   0.008  0.00  0.00    +0.087 A 
ATOM     14  C   UNL     1      -2.523  -0.568   0.030  0.00  0.00    +0.206 A 
ATOM     15  N   UNL     1      -3.344  -1.605   0.027  0.00  0.00    -0.314 N 
ATOM     16  H   UNL     1      -4.301  -1.452   0.037  0.00  0.00    +0.170 HD
ATOM     17  C   UNL     1      -2.879  -2.871   0.016  0.00  0.00    +0.126 A 
ATOM     18  S   UNL     1      -3.773  -4.331   0.017  0.00  0.00    -0.025 S 
ATOM     19  S   UNL     1      -1.107  -2.655   0.000  0.00  0.00    -0.058 S 
BRANCH  14  20
ATOM     20  O   UNL     1      -2.981   0.693   0.048  0.00  0.00    -0.493 OA
ATOM     21  H   UNL     1      -3.143   1.113  -0.807  0.00  0.00    +0.294 HD
ENDBRANCH  14  20
ENDBRANCH   7  13
TORSDOF 2
