REMARK  Name = ZINC33059085
REMARK  14 active torsions:
REMARK  status: ('A' for Active; 'I' for Inactive)
REMARK    1  A    between atoms: C_1  and  C_2
REMARK    2  A    between atoms: C_2  and  N_3
REMARK    3  A    between atoms: N_3  and  C_4
REMARK    4  A    between atoms: C_4  and  C_5
REMARK    5  A    between atoms: C_5  and  N_6
REMARK    6  A    between atoms: N_6  and  C_7
REMARK    7  A    between atoms: N_6  and  C_8
REMARK    8  A    between atoms: C_9  and  C_11
REMARK    9  A    between atoms: N_16  and  S_18
REMARK   10  A    between atoms: S_18  and  C_21
REMARK   11  A    between atoms: C_22  and  C_35
REMARK   12  A    between atoms: C_25  and  C_26
REMARK   13  A    between atoms: C_27  and  C_28
REMARK   14  A    between atoms: C_31  and  C_34
REMARK                            x       y       z     vdW  Elec       q    Type
REMARK                         _______ _______ _______ _____ _____    ______ ____
ROOT
ATOM      1  S   UNL     1       2.532  -3.734   1.041  0.00  0.00    +0.066 S 
ATOM      2  O   UNL     1       3.927  -3.823   1.295  0.00  0.00    -0.153 OA
ATOM      3  O   UNL     1       1.619  -4.749   1.435  0.00  0.00    -0.153 OA
ENDROOT
BRANCH   1   8
ATOM      4  C   UNL     1       3.759  -3.971  -2.550  0.00  0.00    +0.091 C 
ATOM      5  C   UNL     1       2.475  -4.250  -3.334  0.00  0.00    +0.015 C 
ATOM      6  C   UNL     1       1.443  -4.900  -2.410  0.00  0.00    +0.018 C 
ATOM      7  C   UNL     1       1.113  -3.944  -1.266  0.00  0.00    +0.109 C 
ATOM      8  N   UNL     1       2.360  -3.551  -0.596  0.00  0.00    -0.176 NA
ATOM      9  C   UNL     1       3.453  -2.998  -1.407  0.00  0.00    +0.122 C 
BRANCH   4  11
ATOM     10  N   UNL     1       5.576  -4.154  -4.218  0.00  0.00    -0.303 N 
ATOM     11  C   UNL     1       4.786  -3.360  -3.469  0.00  0.00    +0.220 C 
ATOM     12  O   UNL     1       4.901  -2.154  -3.533  0.00  0.00    -0.275 OA
BRANCH  10  14
ATOM     13  C   UNL     1       4.513  -5.964  -5.473  0.00  0.00    +0.024 C 
ATOM     14  C   UNL     1       5.348  -5.601  -4.244  0.00  0.00    +0.104 C 
ENDBRANCH  10  14
BRANCH  10  15
ATOM     15  C   UNL     1       6.663  -3.569  -5.008  0.00  0.00    +0.089 C 
BRANCH  15  16
ATOM     16  C   UNL     1       7.940  -3.527  -4.165  0.00  0.00    -0.060 C 
BRANCH  16  17
ATOM     17  N   UNL     1       9.030  -2.941  -4.957  0.00  0.00    +0.377 N 
ATOM     18  C   UNL     1       8.762  -1.528  -5.257  0.00  0.00    -0.097 C 
ATOM     19  C   UNL     1      10.321  -3.099  -4.274  0.00  0.00    -0.097 C 
ATOM     20  H   UNL     1       9.084  -3.485  -5.912  0.00  0.00    -0.083 HD
ENDBRANCH  16  17
ENDBRANCH  15  16
ENDBRANCH  10  15
ENDBRANCH   4  11
ENDBRANCH   1   8
BRANCH   1  21
ATOM     21  C   UNL     1       1.978  -2.240   1.793  0.00  0.00    +0.174 A 
ATOM     22  C   UNL     1       0.678  -1.915   2.226  0.00  0.00    +0.107 A 
ATOM     23  N   UNL     1       0.738  -0.709   2.717  0.00  0.00    -0.081 NA
ATOM     24  O   UNL     1       1.854  -0.249   2.656  0.00  0.00    -0.353 OA
ATOM     25  C   UNL     1       2.715  -1.119   2.095  0.00  0.00    +0.187 A 
ATOM     26  C   UNL     1      -0.545  -2.791   2.137  0.00  0.00    +0.071 C 
BRANCH  25  27
ATOM     27  C   UNL     1       4.146  -0.913   1.855  0.00  0.00    +0.051 C 
ATOM     28  C   UNL     1       4.728   0.248   2.208  0.00  0.00    +0.011 C 
BRANCH  28  29
ATOM     29  C   UNL     1       6.165   0.455   1.967  0.00  0.00    -0.025 A 
ATOM     30  C   UNL     1       6.931  -0.555   1.376  0.00  0.00    +0.008 A 
ATOM     31  C   UNL     1       8.275  -0.351   1.147  0.00  0.00    +0.004 A 
ATOM     32  C   UNL     1       8.870   0.844   1.513  0.00  0.00    -0.050 A 
ATOM     33  C   UNL     1       8.120   1.846   2.104  0.00  0.00    +0.004 A 
ATOM     34  C   UNL     1       6.773   1.660   2.333  0.00  0.00    +0.008 A 
ATOM     35  C   UNL     1      10.341   1.056   1.265  0.00  0.00    +0.044 C 
ENDBRANCH  28  29
ENDBRANCH  25  27
ENDBRANCH   1  21
TORSDOF 9
