REMARK  Name = ZINC13495111
REMARK  12 active torsions:
REMARK  status: ('A' for Active; 'I' for Inactive)
REMARK    1  A    between atoms: C_1  and  C_2
REMARK    2  A    between atoms: C_2  and  C_3
REMARK    3  A    between atoms: C_3  and  C_5
REMARK    4  A    between atoms: C_3  and  N_16
REMARK    5  A    between atoms: N_9  and  C_10
REMARK    6  A    between atoms: N_16  and  C_17
REMARK    7  A    between atoms: N_16  and  C_26
REMARK    8  A    between atoms: C_17  and  C_18
REMARK    9  A    between atoms: C_21  and  O_24
REMARK   10  A    between atoms: O_24  and  C_25
REMARK   11  A    between atoms: C_26  and  C_27
REMARK   12  A    between atoms: C_33  and  C_39
REMARK                            x       y       z     vdW  Elec       q    Type
REMARK                         _______ _______ _______ _____ _____    ______ ____
ROOT
ATOM      1  N   UNL     1      -0.187   0.607  -2.459  0.00  0.00    -0.284 NA
ENDROOT
BRANCH   1   2
ATOM      2  C   UNL     1       0.544  -0.006  -1.342  0.00  0.00    +0.127 C 
BRANCH   2   3
ATOM      3  C   UNL     1      -0.263   0.132  -0.077  0.00  0.00    +0.169 A 
ATOM      4  N   UNL     1      -1.129   1.076   0.199  0.00  0.00    -0.112 NA
ATOM      5  N   UNL     1      -1.608   0.846   1.373  0.00  0.00    -0.023 NA
ATOM      6  N   UNL     1      -1.069  -0.220   1.853  0.00  0.00    -0.044 NA
ATOM      7  N   UNL     1      -0.238  -0.693   0.986  0.00  0.00    -0.225 N 
BRANCH   7   8
ATOM      8  C   UNL     1       0.581  -1.898   1.134  0.00  0.00    +0.111 C 
ATOM      9  C   UNL     1      -0.328  -3.127   1.208  0.00  0.00    +0.027 C 
ATOM     10  C   UNL     1       0.528  -4.385   1.362  0.00  0.00    +0.002 C 
ATOM     11  C   UNL     1       1.357  -4.285   2.645  0.00  0.00    +0.000 C 
ATOM     12  C   UNL     1       2.265  -3.057   2.570  0.00  0.00    +0.002 C 
ATOM     13  C   UNL     1       1.410  -1.798   2.416  0.00  0.00    +0.027 C 
ENDBRANCH   7   8
ENDBRANCH   2   3
BRANCH   2  15
ATOM     14  C   UNL     1       2.745   0.484  -2.418  0.00  0.00    +0.006 C 
ATOM     15  C   UNL     1       1.892   0.698  -1.167  0.00  0.00    +0.023 C 
ENDBRANCH   2  15
ENDBRANCH   1   2
BRANCH   1  16
ATOM     16  C   UNL     1       0.113  -0.079  -3.723  0.00  0.00    +0.120 C 
BRANCH  16  17
ATOM     17  C   UNL     1      -0.614  -1.398  -3.764  0.00  0.00    -0.033 A 
ATOM     18  C   UNL     1       0.044  -2.559  -3.401  0.00  0.00    +0.008 A 
ATOM     19  C   UNL     1      -0.620  -3.770  -3.437  0.00  0.00    +0.046 A 
ATOM     20  C   UNL     1      -1.947  -3.821  -3.838  0.00  0.00    +0.120 A 
ATOM     21  C   UNL     1      -2.604  -2.655  -4.201  0.00  0.00    +0.046 A 
ATOM     22  C   UNL     1      -1.938  -1.446  -4.158  0.00  0.00    +0.008 A 
BRANCH  20  23
ATOM     23  O   UNL     1      -2.602  -5.011  -3.875  0.00  0.00    -0.495 OA
ATOM     24  C   UNL     1      -3.967  -4.988  -4.297  0.00  0.00    +0.277 C 
ENDBRANCH  20  23
ENDBRANCH  16  17
ENDBRANCH   1  16
BRANCH   1  25
ATOM     25  C   UNL     1       0.108   2.043  -2.556  0.00  0.00    +0.126 C 
BRANCH  25  26
ATOM     26  C   UNL     1      -0.656   2.785  -1.490  0.00  0.00    +0.031 A 
ATOM     27  C   UNL     1      -0.004   3.272  -0.406  0.00  0.00    +0.020 A 
ATOM     28  C   UNL     1      -0.774   3.989   0.611  0.00  0.00    -0.001 A 
ATOM     29  C   UNL     1      -0.157   4.514   1.751  0.00  0.00    +0.010 A 
ATOM     30  C   UNL     1      -0.904   5.178   2.682  0.00  0.00    +0.001 A 
ATOM     31  C   UNL     1      -2.272   5.337   2.506  0.00  0.00    +0.005 A 
ATOM     32  C   UNL     1      -2.902   4.828   1.391  0.00  0.00    -0.026 A 
ATOM     33  C   UNL     1      -2.161   4.148   0.430  0.00  0.00    +0.052 A 
ATOM     34  N   UNL     1      -2.765   3.630  -0.696  0.00  0.00    -0.322 N 
ATOM     35  H   UNL     1      -3.721   3.740  -0.819  0.00  0.00    +0.169 HD
ATOM     36  C   UNL     1      -2.048   2.977  -1.627  0.00  0.00    +0.254 A 
ATOM     37  O   UNL     1      -2.614   2.536  -2.612  0.00  0.00    -0.268 OA
ATOM     38  C   UNL     1      -4.388   5.007   1.214  0.00  0.00    +0.046 C 
ENDBRANCH  25  26
ENDBRANCH   1  25
TORSDOF 9
