REMARK  Name = ZINC05364107
REMARK  6 active torsions:
REMARK  status: ('A' for Active; 'I' for Inactive)
REMARK    1  A    between atoms: C_1  and  C_2
REMARK    2  A    between atoms: C_9  and  C_21
REMARK    3  A    between atoms: C_15  and  C_19
REMARK    4  A    between atoms: C_15  and  C_20
REMARK    5  A    between atoms: C_25  and  O_28
REMARK    6  A    between atoms: C_26  and  O_27
REMARK                            x       y       z     vdW  Elec       q    Type
REMARK                         _______ _______ _______ _____ _____    ______ ____
ROOT
ATOM      1  C   UNL     1       4.613   4.737  -0.556  0.00  0.00    +0.044 C 
ATOM      2  C   UNL     1       3.409   3.846  -0.392  0.00  0.00    -0.049 A 
ATOM      3  C   UNL     1       2.631   3.945   0.748  0.00  0.00    +0.005 A 
ATOM      4  C   UNL     1       1.508   3.149   0.895  0.00  0.00    +0.025 A 
ATOM      5  C   UNL     1       1.174   2.253  -0.105  0.00  0.00    +0.052 A 
ATOM      6  C   UNL     1       1.978   2.118  -1.227  0.00  0.00    +0.050 A 
ATOM      7  C   UNL     1       3.089   2.934  -1.382  0.00  0.00    +0.028 A 
ATOM      8  N   UNL     1       1.657   1.148  -2.171  0.00  0.00    -0.331 N 
ATOM      9  C   UNL     1       1.727  -0.261  -1.848  0.00  0.00    +0.140 C 
ATOM     10  C   UNL     1       0.751  -0.702  -0.781  0.00  0.00    +0.037 C 
ATOM     11  C   UNL     1       0.026   0.108   0.005  0.00  0.00    +0.017 C 
ATOM     12  N   UNL     1       0.028   1.465  -0.050  0.00  0.00    -0.316 N 
ATOM     13  C   UNL     1      -0.884  -0.478   1.074  0.00  0.00    +0.058 C 
ATOM     14  C   UNL     1      -1.470  -1.802   0.584  0.00  0.00    -0.023 C 
ATOM     15  C   UNL     1      -0.302  -2.756   0.313  0.00  0.00    +0.086 C 
ATOM     16  C   UNL     1       0.633  -2.107  -0.663  0.00  0.00    +0.163 C 
ATOM     17  O   UNL     1       1.315  -2.814  -1.379  0.00  0.00    -0.292 OA
ATOM     18  C   UNL     1      -2.263  -1.573  -0.704  0.00  0.00    +0.011 C 
ATOM     19  C   UNL     1      -2.385  -2.394   1.658  0.00  0.00    +0.011 C 
ATOM     20  H   UNL     1       1.381   1.420  -3.061  0.00  0.00    +0.147 HD
ATOM     21  H   UNL     1      -0.830   1.917  -0.055  0.00  0.00    +0.152 HD
ENDROOT
BRANCH   9  22
ATOM     22  C   UNL     1       3.124  -0.572  -1.377  0.00  0.00    +0.022 A 
ATOM     23  C   UNL     1       3.362  -0.827  -0.039  0.00  0.00    +0.009 A 
ATOM     24  C   UNL     1       4.642  -1.114   0.396  0.00  0.00    +0.004 A 
ATOM     25  C   UNL     1       5.691  -1.146  -0.504  0.00  0.00    +0.049 A 
ATOM     26  C   UNL     1       5.460  -0.891  -1.846  0.00  0.00    +0.159 A 
ATOM     27  C   UNL     1       4.170  -0.609  -2.285  0.00  0.00    +0.164 A 
BRANCH  27  28
ATOM     28  O   UNL     1       3.937  -0.363  -3.603  0.00  0.00    -0.503 OA
ATOM     29  H   UNL     1       4.016   0.569  -3.849  0.00  0.00    +0.292 HD
ENDBRANCH  27  28
BRANCH  26  30
ATOM     30  O   UNL     1       6.490  -0.923  -2.733  0.00  0.00    -0.503 OA
ATOM     31  H   UNL     1       6.642  -1.793  -3.128  0.00  0.00    +0.292 HD
ENDBRANCH  26  30
ENDBRANCH   9  22
TORSDOF 3
