REMARK  Name = ZINC39664867
REMARK  9 active torsions:
REMARK  status: ('A' for Active; 'I' for Inactive)
REMARK    1  A    between atoms: C_1  and  N_2
REMARK    2  A    between atoms: N_2  and  C_3
REMARK    3  A    between atoms: N_2  and  C_4
REMARK    4  A    between atoms: C_4  and  C_5
REMARK    5  A    between atoms: C_5  and  C_7
REMARK    6  A    between atoms: C_5  and  N_13
REMARK    7  A    between atoms: C_14  and  C_16
REMARK    8  A    between atoms: C_27  and  C_29
REMARK    9  A    between atoms: C_32  and  C_34
REMARK                            x       y       z     vdW  Elec       q    Type
REMARK                         _______ _______ _______ _____ _____    ______ ____
ROOT
ATOM      1  C   UNL     1      -2.170   3.181   1.898  0.00  0.00    +0.100 C 
ATOM      2  C   UNL     1      -2.330   3.642   3.364  0.00  0.00    +0.121 C 
ATOM      3  N   UNL     1      -3.543   4.493   3.360  0.00  0.00    -0.294 N 
ATOM      4  C   UNL     1      -4.477   3.799   2.441  0.00  0.00    +0.115 C 
ATOM      5  C   UNL     1      -3.581   3.285   1.296  0.00  0.00    -0.004 C 
ATOM      6  C   UNL     1      -3.589   4.276   0.135  0.00  0.00    -0.010 C 
ATOM      7  C   UNL     1      -4.989   4.319  -0.483  0.00  0.00    -0.082 C 
ATOM      8  N   UNL     1      -5.359   2.979  -0.955  0.00  0.00    +0.379 N 
ATOM      9  C   UNL     1      -5.440   2.053   0.181  0.00  0.00    -0.082 C 
ATOM     10  C   UNL     1      -4.059   1.914   0.828  0.00  0.00    -0.010 C 
ATOM     11  C   UNL     1      -3.751   5.639   4.037  0.00  0.00    +0.282 C 
ATOM     12  O   UNL     1      -4.811   6.228   3.928  0.00  0.00    -0.267 OA
ATOM     13  H   UNL     1      -6.256   3.023  -1.416  0.00  0.00    -0.086 HD
ATOM     14  H   UNL     1      -4.664   2.650  -1.607  0.00  0.00    -0.086 HD
ENDROOT
BRANCH  11  15
ATOM     15  C   UNL     1      -2.700   6.177   4.905  0.00  0.00    +0.190 A 
ATOM     16  C   UNL     1      -2.783   7.330   5.655  0.00  0.00    +0.055 A 
ATOM     17  C   UNL     1      -1.563   7.463   6.327  0.00  0.00    +0.051 A 
ATOM     18  C   UNL     1      -0.789   6.397   5.967  0.00  0.00    +0.139 A 
ATOM     19  O   UNL     1      -1.486   5.627   5.115  0.00  0.00    -0.450 OA
BRANCH  18  20
ATOM     20  C   UNL     1       0.585   6.132   6.440  0.00  0.00    +0.052 A 
ATOM     21  C   UNL     1       1.551   7.139   6.390  0.00  0.00    +0.014 A 
ATOM     22  C   UNL     1       2.831   6.885   6.834  0.00  0.00    +0.001 A 
ATOM     23  C   UNL     1       3.162   5.635   7.328  0.00  0.00    +0.003 A 
ATOM     24  C   UNL     1       2.212   4.631   7.381  0.00  0.00    +0.039 A 
ATOM     25  C   UNL     1       0.923   4.873   6.946  0.00  0.00    +0.134 A 
ATOM     26  F   UNL     1      -0.006   3.894   7.003  0.00  0.00    -0.205 F 
ENDBRANCH  18  20
ENDBRANCH  11  15
BRANCH   1  28
ATOM     27  N   UNL     1      -0.918   1.344   0.815  0.00  0.00    -0.310 N 
ATOM     28  C   UNL     1      -1.681   1.757   1.846  0.00  0.00    +0.219 C 
ATOM     29  O   UNL     1      -1.974   0.982   2.732  0.00  0.00    -0.275 OA
ATOM     30  H   UNL     1      -0.623   1.980   0.144  0.00  0.00    +0.149 HD
BRANCH  27  31
ATOM     31  C   UNL     1      -0.534  -0.066   0.706  0.00  0.00    +0.087 C 
BRANCH  31  32
ATOM     32  C   UNL     1       0.682  -0.189  -0.176  0.00  0.00    -0.029 A 
ATOM     33  C   UNL     1       0.794   0.592  -1.311  0.00  0.00    +0.005 A 
ATOM     34  C   UNL     1       1.909   0.479  -2.120  0.00  0.00    +0.000 A 
ATOM     35  C   UNL     1       2.913  -0.414  -1.794  0.00  0.00    +0.000 A 
ATOM     36  C   UNL     1       2.801  -1.194  -0.658  0.00  0.00    +0.000 A 
ATOM     37  C   UNL     1       1.687  -1.078   0.153  0.00  0.00    +0.005 A 
ENDBRANCH  31  32
BRANCH  31  38
ATOM     38  C   UNL     1      -1.689  -0.863   0.097  0.00  0.00    -0.052 C 
BRANCH  38  40
ATOM     39  C   UNL     1      -1.270  -2.770   1.490  0.00  0.00    -0.097 C 
ATOM     40  N   UNL     1      -1.353  -2.293   0.103  0.00  0.00    +0.377 N 
ATOM     41  C   UNL     1      -2.395  -3.044  -0.610  0.00  0.00    -0.097 C 
ATOM     42  H   UNL     1      -0.465  -2.433  -0.354  0.00  0.00    -0.083 HD
ENDBRANCH  38  40
ENDBRANCH  31  38
ENDBRANCH  27  31
ENDBRANCH   1  28
TORSDOF 7
