REMARK  Name = ZINC59221131
REMARK  9 active torsions:
REMARK  status: ('A' for Active; 'I' for Inactive)
REMARK    1  A    between atoms: C_1  and  C_2
REMARK    2  A    between atoms: C_5  and  C_38
REMARK    3  A    between atoms: C_6  and  N_8
REMARK    4  A    between atoms: N_10  and  C_30
REMARK    5  A    between atoms: C_14  and  C_15
REMARK    6  A    between atoms: C_18  and  C_20
REMARK    7  A    between atoms: C_24  and  N_26
REMARK    8  A    between atoms: C_32  and  C_37
REMARK    9  A    between atoms: C_35  and  C_36
REMARK                            x       y       z     vdW  Elec       q    Type
REMARK                         _______ _______ _______ _____ _____    ______ ____
ROOT
ATOM      1  N   UNL     1       0.277  -2.925   2.238  0.00  0.00    -0.225 NA
ATOM      2  C   UNL     1       0.228  -2.362   3.426  0.00  0.00    +0.173 C 
ATOM      3  N   UNL     1       0.364  -2.960   4.661  0.00  0.00    -0.214 N 
ATOM      4  C   UNL     1       0.279  -2.190   5.736  0.00  0.00    +0.264 C 
ATOM      5  O   UNL     1       0.389  -2.646   6.858  0.00  0.00    -0.269 OA
ATOM      6  C   UNL     1       0.044  -0.745   5.502  0.00  0.00    +0.081 C 
ATOM      7  C   UNL     1      -0.085   0.285   6.447  0.00  0.00    +0.066 C 
ATOM      8  S   UNL     1      -0.022  -0.643   3.824  0.00  0.00    -0.048 S 
ENDROOT
BRANCH   1  14
ATOM      9  C   UNL     1       2.015   0.890  -0.271  0.00  0.00    +0.044 C 
ATOM     10  C   UNL     1       1.084  -0.287  -0.136  0.00  0.00    -0.048 A 
ATOM     11  C   UNL     1       0.195  -0.585  -1.157  0.00  0.00    +0.004 A 
ATOM     12  C   UNL     1      -0.666  -1.665  -1.044  0.00  0.00    +0.006 A 
ATOM     13  C   UNL     1      -0.647  -2.452   0.086  0.00  0.00    -0.025 A 
ATOM     14  C   UNL     1       0.250  -2.158   1.125  0.00  0.00    +0.070 A 
ATOM     15  C   UNL     1       1.123  -1.065   0.999  0.00  0.00    +0.031 A 
ATOM     16  C   UNL     1      -1.585  -3.625   0.206  0.00  0.00    +0.046 C 
ENDBRANCH   1  14
BRANCH   3  17
ATOM     17  C   UNL     1       0.584  -4.337   4.775  0.00  0.00    +0.047 A 
ATOM     18  C   UNL     1       1.880  -4.835   4.797  0.00  0.00    +0.027 A 
ATOM     19  C   UNL     1       2.094  -6.195   4.911  0.00  0.00    -0.049 A 
ATOM     20  C   UNL     1       1.019  -7.060   5.002  0.00  0.00    +0.004 A 
ATOM     21  C   UNL     1      -0.273  -6.567   4.980  0.00  0.00    +0.005 A 
ATOM     22  C   UNL     1      -0.494  -5.208   4.872  0.00  0.00    -0.029 A 
ATOM     23  C   UNL     1      -1.902  -4.671   4.855  0.00  0.00    +0.045 C 
ATOM     24  C   UNL     1       3.500  -6.737   4.934  0.00  0.00    +0.044 C 
ENDBRANCH   3  17
BRANCH   7  25
ATOM     25  C   UNL     1      -0.212   1.600   6.027  0.00  0.00    +0.130 A 
ATOM     26  C   UNL     1      -0.238   2.743   6.863  0.00  0.00    +0.050 A 
ATOM     27  C   UNL     1      -0.375   3.829   6.048  0.00  0.00    +0.050 A 
ATOM     28  C   UNL     1      -0.433   3.357   4.728  0.00  0.00    +0.136 A 
ATOM     29  O   UNL     1      -0.328   2.017   4.746  0.00  0.00    -0.455 OA
BRANCH  28  30
ATOM     30  C   UNL     1      -0.578   4.187   3.528  0.00  0.00    +0.019 A 
ATOM     31  C   UNL     1      -0.557   5.587   3.630  0.00  0.00    +0.012 A 
ATOM     32  C   UNL     1      -0.694   6.358   2.498  0.00  0.00    +0.003 A 
ATOM     33  C   UNL     1      -0.852   5.756   1.259  0.00  0.00    +0.033 A 
ATOM     34  C   UNL     1      -0.874   4.375   1.148  0.00  0.00    +0.127 A 
ATOM     35  C   UNL     1      -0.733   3.587   2.268  0.00  0.00    +0.044 A 
BRANCH  34  36
ATOM     36  N   UNL     1      -1.044   3.745  -0.181  0.00  0.00    +0.056 N 
ATOM     37  O   UNL     1      -1.069   4.492  -1.265  0.00  0.00    -0.126 OA
ATOM     38  O   UNL     1      -1.170   2.438  -0.278  0.00  0.00    -0.126 OA
ENDBRANCH  34  36
ENDBRANCH  28  30
ENDBRANCH   7  25
TORSDOF 5
