REMARK  Name = ZINC16927313
REMARK  6 active torsions:
REMARK  status: ('A' for Active; 'I' for Inactive)
REMARK    1  A    between atoms: C_2  and  C_3
REMARK    2  A    between atoms: C_3  and  N_4
REMARK    3  A    between atoms: C_8  and  C_9
REMARK    4  A    between atoms: N_18  and  C_19
REMARK    5  A    between atoms: C_22  and  C_26
REMARK    6  A    between atoms: C_23  and  O_25
REMARK                            x       y       z     vdW  Elec       q    Type
REMARK                         _______ _______ _______ _____ _____    ______ ____
ROOT
ATOM      1  N   UNL     1      -2.780   8.622  -0.237  0.00  0.00    -0.242 N 
ATOM      2  C   UNL     1      -1.516   8.240  -0.161  0.00  0.00    +0.259 C 
ATOM      3  O   UNL     1      -0.605   9.047  -0.180  0.00  0.00    -0.269 OA
ATOM      4  C   UNL     1      -1.262   6.789  -0.055  0.00  0.00    +0.078 C 
ATOM      5  C   UNL     1      -0.081   6.127   0.033  0.00  0.00    +0.028 C 
ATOM      6  S   UNL     1      -2.927   6.142  -0.067  0.00  0.00    -0.049 S 
ATOM      7  C   UNL     1      -3.797   7.695  -0.206  0.00  0.00    +0.169 C 
ATOM      8  N   UNL     1      -5.096   7.904  -0.266  0.00  0.00    -0.225 NA
ENDROOT
BRANCH   5   9
ATOM      9  C   UNL     1      -0.068   4.682   0.303  0.00  0.00    -0.024 A 
ATOM     10  C   UNL     1       1.086   3.930   0.052  0.00  0.00    +0.009 A 
ATOM     11  C   UNL     1       1.090   2.576   0.307  0.00  0.00    +0.016 A 
ATOM     12  C   UNL     1      -0.043   1.958   0.811  0.00  0.00    +0.018 A 
ATOM     13  C   UNL     1      -1.190   2.695   1.057  0.00  0.00    +0.016 A 
ATOM     14  C   UNL     1      -1.209   4.051   0.812  0.00  0.00    +0.009 A 
ATOM     15 BR   UNL     1      -0.027   0.100   1.157  0.00  0.00    -0.050 Br
ENDBRANCH   5   9
BRANCH   8  16
ATOM     16  C   UNL     1      -5.957   6.849  -0.220  0.00  0.00    +0.070 A 
ATOM     17  C   UNL     1      -5.709   5.708  -0.997  0.00  0.00    +0.029 A 
ATOM     18  C   UNL     1      -6.563   4.648  -0.952  0.00  0.00    +0.021 A 
ATOM     19  C   UNL     1      -7.703   4.695  -0.138  0.00  0.00    +0.105 A 
ATOM     20  C   UNL     1      -7.963   5.838   0.639  0.00  0.00    +0.133 A 
ATOM     21  C   UNL     1      -7.091   6.908   0.596  0.00  0.00    +0.074 A 
BRANCH  19  22
ATOM     22  C   UNL     1      -8.625   3.552  -0.097  0.00  0.00    +0.390 C 
ATOM     23  O   UNL     1      -9.614   3.594   0.610  0.00  0.00    -0.240 OA
ATOM     24  O   UNL     1      -8.375   2.457  -0.842  0.00  0.00    -0.240 OA
ENDBRANCH  19  22
BRANCH  20  25
ATOM     25  O   UNL     1      -9.065   5.888   1.428  0.00  0.00    -0.506 OA
ATOM     26  H   UNL     1      -9.846   6.252   0.990  0.00  0.00    +0.292 HD
ENDBRANCH  20  25
ENDBRANCH   8  16
BRANCH   1  27
ATOM     27  C   UNL     1      -3.101  10.047  -0.348  0.00  0.00    +0.142 C 
BRANCH  27  29
ATOM     28  C   UNL     1      -2.550  11.678   1.383  0.00  0.00    +0.005 C 
ATOM     29  C   UNL     1      -3.260  10.636   1.030  0.00  0.00    -0.015 C 
ENDBRANCH  27  29
ENDBRANCH   1  27
TORSDOF 6
