REMARK  Name = ZINC20918328
REMARK  13 active torsions:
REMARK  status: ('A' for Active; 'I' for Inactive)
REMARK    1  A    between atoms: C_1  and  C_2
REMARK    2  A    between atoms: C_2  and  C_3
REMARK    3  A    between atoms: C_3  and  C_5
REMARK    4  A    between atoms: C_3  and  C_6
REMARK    5  A    between atoms: C_9  and  N_12
REMARK    6  A    between atoms: C_13  and  C_15
REMARK    7  A    between atoms: C_15  and  C_16
REMARK    8  A    between atoms: C_16  and  S_17
REMARK    9  A    between atoms: S_17  and  C_18
REMARK   10  A    between atoms: N_22  and  N_23
REMARK   11  A    between atoms: N_24  and  N_25
REMARK   12  A    between atoms: C_26  and  C_27
REMARK   13  A    between atoms: C_30  and  C_33
REMARK                            x       y       z     vdW  Elec       q    Type
REMARK                         _______ _______ _______ _____ _____    ______ ____
ROOT
ATOM      1  C   UNL     1       0.715  -2.097  -0.023  0.00  0.00    +0.210 A 
ATOM      2  N   UNL     1      -0.596  -2.115  -0.000  0.00  0.00    -0.119 NA
ATOM      3  N   UNL     1      -1.047  -0.789   0.017  0.00  0.00    -0.109 NA
ATOM      4  C   UNL     1       0.003  -0.004  -0.003  0.00  0.00    +0.254 A 
ATOM      5  N   UNL     1       1.120  -0.792  -0.025  0.00  0.00    -0.211 N 
ATOM      6  N   UNL     1      -0.016   1.383   0.003  0.00  0.00    -0.204 N 
ATOM      7  H   UNL     1       0.929   1.946  -0.006  0.00  0.00    +0.177 HD
ENDROOT
BRANCH   5   8
ATOM      8  N   UNL     1       2.413  -0.353  -0.046  0.00  0.00    -0.294 N 
ATOM      9  H   UNL     1       2.627   0.726  -0.046  0.00  0.00    +0.163 HD
ATOM     10  H   UNL     1       3.240  -1.078  -0.062  0.00  0.00    +0.163 HD
ENDBRANCH   5   8
BRANCH   6  11
ATOM     11  N   UNL     1      -1.238   2.067   0.020  0.00  0.00    -0.188 NA
ATOM     12  C   UNL     1      -1.256   3.366   0.026  0.00  0.00    +0.138 C 
BRANCH  12  13
ATOM     13  C   UNL     1      -2.542   4.086   0.044  0.00  0.00    -0.005 A 
ATOM     14  C   UNL     1      -3.745   3.374   0.050  0.00  0.00    +0.010 A 
ATOM     15  C   UNL     1      -4.944   4.054   0.071  0.00  0.00    +0.004 A 
ATOM     16  C   UNL     1      -4.959   5.438   0.077  0.00  0.00    -0.050 A 
ATOM     17  C   UNL     1      -3.772   6.149   0.067  0.00  0.00    +0.004 A 
ATOM     18  C   UNL     1      -2.565   5.483   0.050  0.00  0.00    +0.010 A 
ATOM     19  C   UNL     1      -6.274   6.174   0.094  0.00  0.00    +0.044 C 
ENDBRANCH  12  13
ENDBRANCH   6  11
BRANCH   1  20
ATOM     20  S   UNL     1       1.770  -3.508  -0.045  0.00  0.00    -0.084 S 
BRANCH  20  21
ATOM     21  C   UNL     1       0.623  -4.914  -0.031  0.00  0.00    +0.086 C 
BRANCH  21  22
ATOM     22  C   UNL     1       1.418  -6.221  -0.048  0.00  0.00    +0.107 C 
BRANCH  22  24
ATOM     23  N   UNL     1       0.944  -8.649  -0.049  0.00  0.00    -0.285 N 
ATOM     24  C   UNL     1       0.466  -7.388  -0.036  0.00  0.00    +0.218 C 
ATOM     25  O   UNL     1      -0.731  -7.194  -0.015  0.00  0.00    -0.275 OA
ATOM     26  H   UNL     1       2.025  -8.826  -0.144  0.00  0.00    +0.155 HD
BRANCH  23  30
ATOM     27  C   UNL     1      -1.674 -11.873   0.276  0.00  0.00    -0.044 A 
ATOM     28  C   UNL     1      -2.062 -10.736  -0.409  0.00  0.00    +0.006 A 
ATOM     29  C   UNL     1      -1.196  -9.665  -0.518  0.00  0.00    +0.023 A 
ATOM     30  C   UNL     1       0.065  -9.732   0.060  0.00  0.00    +0.033 A 
ATOM     31  C   UNL     1       0.453 -10.877   0.743  0.00  0.00    +0.023 A 
ATOM     32  C   UNL     1      -0.420 -11.942   0.853  0.00  0.00    +0.006 A 
BRANCH  27  33
ATOM     33  C   UNL     1      -2.621 -13.040   0.393  0.00  0.00    +0.016 C 
ATOM     34  C   UNL     1      -2.908 -13.317   1.870  0.00  0.00    +0.012 C 
BRANCH  33  36
ATOM     35  C   UNL     1      -2.996 -15.428  -0.237  0.00  0.00    +0.004 C 
ATOM     36  C   UNL     1      -1.987 -14.277  -0.244  0.00  0.00    +0.004 C 
ENDBRANCH  33  36
ENDBRANCH  27  33
ENDBRANCH  23  30
ENDBRANCH  22  24
ENDBRANCH  21  22
ENDBRANCH  20  21
ENDBRANCH   1  20
TORSDOF 10
