REMARK  Name = ZINC35887440
REMARK  13 active torsions:
REMARK  status: ('A' for Active; 'I' for Inactive)
REMARK    1  A    between atoms: C_1  and  C_2
REMARK    2  A    between atoms: C_7  and  C_8
REMARK    3  A    between atoms: N_11  and  C_29
REMARK    4  A    between atoms: C_13  and  C_15
REMARK    5  A    between atoms: C_15  and  N_16
REMARK    6  A    between atoms: N_16  and  C_17
REMARK    7  A    between atoms: C_17  and  C_18
REMARK    8  A    between atoms: C_17  and  C_19
REMARK    9  A    between atoms: C_20  and  C_22
REMARK   10  A    between atoms: C_29  and  C_30
REMARK   11  A    between atoms: C_33  and  O_38
REMARK   12  A    between atoms: C_34  and  O_36
REMARK   13  A    between atoms: O_36  and  C_37
REMARK                            x       y       z     vdW  Elec       q    Type
REMARK                         _______ _______ _______ _____ _____    ______ ____
ROOT
ATOM      1  C   UNL     1      -1.985  -0.845   7.078  0.00  0.00    +0.005 C 
ATOM      2  C   UNL     1      -2.306  -1.540   8.419  0.00  0.00    -0.070 C 
ATOM      3  N   UNL     1      -3.783  -1.442   8.547  0.00  0.00    +0.383 N 
ATOM      4  C   UNL     1      -4.285  -1.683   7.170  0.00  0.00    -0.073 C 
ATOM      5  C   UNL     1      -3.286  -0.937   6.255  0.00  0.00    -0.005 C 
ATOM      6  H   UNL     1      -4.049  -0.523   8.864  0.00  0.00    -0.081 HD
ENDROOT
BRANCH   1  13
ATOM      7  C   UNL     1       0.284   0.639   6.080  0.00  0.00    +0.044 C 
ATOM      8  C   UNL     1       0.220  -0.855   5.893  0.00  0.00    -0.047 A 
ATOM      9  C   UNL     1       1.249  -1.516   5.248  0.00  0.00    +0.003 A 
ATOM     10  C   UNL     1       1.189  -2.886   5.077  0.00  0.00    +0.000 A 
ATOM     11  C   UNL     1       0.101  -3.596   5.549  0.00  0.00    +0.000 A 
ATOM     12  C   UNL     1      -0.927  -2.935   6.194  0.00  0.00    +0.004 A 
ATOM     13  C   UNL     1      -0.866  -1.565   6.370  0.00  0.00    -0.043 A 
ENDBRANCH   1  13
BRANCH   5  14
ATOM     14  C   UNL     1      -3.047  -1.731   4.969  0.00  0.00    +0.110 C 
BRANCH  14  15
ATOM     15  N   UNL     1      -4.235  -1.647   4.115  0.00  0.00    -0.295 N 
ATOM     16  C   UNL     1      -5.215  -2.565   4.232  0.00  0.00    +0.247 C 
ATOM     17  O   UNL     1      -4.941  -3.714   4.522  0.00  0.00    -0.270 OA
BRANCH  16  18
ATOM     18  C   UNL     1      -6.622  -2.175   4.009  0.00  0.00    +0.037 A 
ATOM     19  C   UNL     1      -6.923  -1.024   3.279  0.00  0.00    +0.016 A 
ATOM     20  C   UNL     1      -8.238  -0.665   3.074  0.00  0.00    +0.039 A 
ATOM     21  C   UNL     1      -9.261  -1.444   3.591  0.00  0.00    +0.123 A 
ATOM     22  C   UNL     1      -8.968  -2.589   4.317  0.00  0.00    +0.039 A 
ATOM     23  C   UNL     1      -7.657  -2.960   4.523  0.00  0.00    +0.016 A 
ATOM     24  F   UNL     1     -10.548  -1.087   3.388  0.00  0.00    -0.205 F 
ENDBRANCH  16  18
BRANCH  15  25
ATOM     25  C   UNL     1      -4.357  -0.566   3.134  0.00  0.00    +0.070 C 
ATOM     26  C   UNL     1      -5.104  -1.079   1.901  0.00  0.00    +0.028 C 
ATOM     27  C   UNL     1      -5.132   0.599   3.753  0.00  0.00    +0.028 C 
ENDBRANCH  15  25
ENDBRANCH  14  15
ENDBRANCH   5  14
BRANCH   3  28
ATOM     28  C   UNL     1      -4.288  -2.472   9.465  0.00  0.00    -0.043 C 
BRANCH  28  29
ATOM     29  C   UNL     1      -3.789  -2.190  10.859  0.00  0.00    -0.060 A 
ATOM     30  C   UNL     1      -2.586  -2.723  11.282  0.00  0.00    +0.005 A 
ATOM     31  C   UNL     1      -2.124  -2.467  12.560  0.00  0.00    +0.049 A 
ATOM     32  C   UNL     1      -2.868  -1.675  13.420  0.00  0.00    +0.158 A 
ATOM     33  C   UNL     1      -4.079  -1.138  12.993  0.00  0.00    +0.161 A 
ATOM     34  C   UNL     1      -4.534  -1.394  11.710  0.00  0.00    +0.051 A 
BRANCH  33  35
ATOM     35  O   UNL     1      -4.812  -0.359  13.833  0.00  0.00    -0.491 OA
ATOM     36  C   UNL     1      -6.045   0.158  13.328  0.00  0.00    +0.277 C 
ENDBRANCH  33  35
BRANCH  32  37
ATOM     37  O   UNL     1      -2.416  -1.423  14.677  0.00  0.00    -0.503 OA
ATOM     38  H   UNL     1      -1.862  -0.633  14.745  0.00  0.00    +0.292 HD
ENDBRANCH  32  37
ENDBRANCH  28  29
ENDBRANCH   3  28
TORSDOF 9
