REMARK  Name = ZINC06585969
REMARK  8 active torsions:
REMARK  status: ('A' for Active; 'I' for Inactive)
REMARK    1  A    between atoms: C_1  and  C_2
REMARK    2  A    between atoms: C_3  and  C_8
REMARK    3  A    between atoms: C_4  and  C_7
REMARK    4  A    between atoms: C_8  and  C_9
REMARK    5  A    between atoms: C_9  and  S_10
REMARK    6  A    between atoms: S_10  and  C_11
REMARK    7  A    between atoms: C_14  and  C_23
REMARK    8  A    between atoms: N_15  and  C_16
REMARK                            x       y       z     vdW  Elec       q    Type
REMARK                         _______ _______ _______ _____ _____    ______ ____
ROOT
ATOM      1  C   UNL     1      -2.565   6.272  -1.978  0.00  0.00    +0.196 A 
ATOM      2  N   UNL     1      -3.641   5.516  -2.004  0.00  0.00    -0.122 NA
ATOM      3  N   UNL     1      -4.489   5.983  -2.850  0.00  0.00    -0.128 NA
ATOM      4  C   UNL     1      -4.008   7.065  -3.418  0.00  0.00    +0.169 A 
ATOM      5  N   UNL     1      -2.762   7.288  -2.873  0.00  0.00    -0.270 N 
ENDROOT
BRANCH   5   6
ATOM      6  C   UNL     1      -1.880   8.335  -3.174  0.00  0.00    +0.051 A 
ATOM      7  C   UNL     1      -2.228   9.645  -2.877  0.00  0.00    +0.029 A 
ATOM      8  C   UNL     1      -1.355  10.675  -3.170  0.00  0.00    +0.040 A 
ATOM      9  C   UNL     1      -0.138  10.402  -3.771  0.00  0.00    +0.124 A 
ATOM     10  C   UNL     1       0.209   9.096  -4.073  0.00  0.00    +0.040 A 
ATOM     11  C   UNL     1      -0.659   8.063  -3.776  0.00  0.00    +0.029 A 
ATOM     12  F   UNL     1       0.712  11.410  -4.062  0.00  0.00    -0.205 F 
ENDBRANCH   5   6
BRANCH   4  13
ATOM     13  C   UNL     1      -4.679   7.892  -4.443  0.00  0.00    +0.020 A 
ATOM     14  C   UNL     1      -3.949   8.826  -5.178  0.00  0.00    +0.011 A 
ATOM     15  C   UNL     1      -4.580   9.591  -6.137  0.00  0.00    +0.001 A 
ATOM     16  C   UNL     1      -5.937   9.441  -6.363  0.00  0.00    +0.000 A 
ATOM     17  C   UNL     1      -6.668   8.520  -5.633  0.00  0.00    +0.001 A 
ATOM     18  C   UNL     1      -6.048   7.745  -4.675  0.00  0.00    +0.011 A 
ENDBRANCH   4  13
BRANCH   1  19
ATOM     19  S   UNL     1      -1.139   6.026  -0.973  0.00  0.00    -0.085 S 
BRANCH  19  20
ATOM     20  C   UNL     1      -1.633   4.526  -0.088  0.00  0.00    +0.082 C 
BRANCH  20  21
ATOM     21  C   UNL     1      -0.518   4.109   0.872  0.00  0.00    +0.051 C 
BRANCH  21  24
ATOM     22  C   UNL     1      -2.120   3.903   3.686  0.00  0.00    +0.069 C 
ATOM     23  C   UNL     1      -1.626   2.762   2.835  0.00  0.00    +0.084 A 
ATOM     24  C   UNL     1      -0.929   2.860   1.609  0.00  0.00    +0.018 A 
ATOM     25  C   UNL     1      -0.718   1.572   1.248  0.00  0.00    +0.138 A 
ATOM     26  O   UNL     1      -1.256   0.814   2.214  0.00  0.00    -0.359 OA
ATOM     27  N   UNL     1      -1.754   1.491   3.084  0.00  0.00    -0.083 NA
ATOM     28  C   UNL     1      -0.013   1.086   0.008  0.00  0.00    +0.089 C 
ENDBRANCH  21  24
ENDBRANCH  20  21
ENDBRANCH  19  20
ENDBRANCH   1  19
TORSDOF 6
