REMARK  Name = ZINC02422280
REMARK  7 active torsions:
REMARK  status: ('A' for Active; 'I' for Inactive)
REMARK    1  A    between atoms: C_1  and  N_2
REMARK    2  A    between atoms: C_3  and  C_23
REMARK    3  A    between atoms: C_6  and  S_7
REMARK    4  A    between atoms: S_7  and  C_8
REMARK    5  A    between atoms: C_8  and  C_9
REMARK    6  A    between atoms: N_11  and  N_12
REMARK    7  A    between atoms: C_13  and  C_14
REMARK                            x       y       z     vdW  Elec       q    Type
REMARK                         _______ _______ _______ _____ _____    ______ ____
ROOT
ATOM      1  C   UNL     1       0.337  -0.208   0.687  0.00  0.00    +0.174 C 
ENDROOT
BRANCH   1   2
ATOM      2  C   UNL     1       0.464   1.262   0.992  0.00  0.00    +0.242 C 
ATOM      3  O   UNL     1      -0.531   1.944   1.115  0.00  0.00    -0.273 OA
ATOM      4  N   UNL     1       1.684   1.820   1.122  0.00  0.00    -0.206 N 
ATOM      5  H   UNL     1       2.480   1.275   1.019  0.00  0.00    +0.177 HD
BRANCH   4   6
ATOM      6  N   UNL     1       1.802   3.187   1.405  0.00  0.00    -0.188 NA
ATOM      7  C   UNL     1       2.977   3.725   1.530  0.00  0.00    +0.138 C 
BRANCH   7   8
ATOM      8  C   UNL     1       3.102   5.163   1.828  0.00  0.00    -0.002 A 
ATOM      9  C   UNL     1       1.956   5.951   1.970  0.00  0.00    +0.013 A 
ATOM     10  C   UNL     1       2.075   7.295   2.254  0.00  0.00    +0.050 A 
ATOM     11  C   UNL     1       3.330   7.872   2.389  0.00  0.00    +0.166 A 
ATOM     12  C   UNL     1       4.477   7.093   2.242  0.00  0.00    +0.167 A 
ATOM     13  C   UNL     1       4.365   5.744   1.963  0.00  0.00    +0.059 A 
ATOM     14  O   UNL     1       5.571   7.890   2.421  0.00  0.00    -0.453 OA
ATOM     15  C   UNL     1       5.081   9.072   3.080  0.00  0.00    +0.466 C 
ATOM     16  O   UNL     1       3.708   9.156   2.658  0.00  0.00    -0.453 OA
ENDBRANCH   7   8
ENDBRANCH   4   6
ENDBRANCH   1   2
BRANCH   1  17
ATOM     17  S   UNL     1      -1.414  -0.652   0.575  0.00  0.00    -0.077 S 
BRANCH  17  23
ATOM     18  C   UNL     1      -3.736  -2.950   0.072  0.00  0.00    +0.153 C 
ATOM     19  N   UNL     1      -2.303  -3.248   0.029  0.00  0.00    -0.305 N 
ATOM     20  C   UNL     1      -1.713  -4.467  -0.215  0.00  0.00    +0.165 A 
ATOM     21  N   UNL     1      -0.414  -4.285  -0.162  0.00  0.00    -0.128 NA
ATOM     22  N   UNL     1      -0.154  -3.051   0.090  0.00  0.00    -0.122 NA
ATOM     23  C   UNL     1      -1.272  -2.372   0.222  0.00  0.00    +0.192 A 
BRANCH  20  24
ATOM     24  C   UNL     1      -2.412  -5.741  -0.486  0.00  0.00    +0.021 A 
ATOM     25  C   UNL     1      -3.733  -5.735  -0.936  0.00  0.00    +0.011 A 
ATOM     26  C   UNL     1      -4.379  -6.927  -1.188  0.00  0.00    +0.002 A 
ATOM     27  C   UNL     1      -3.721  -8.129  -0.995  0.00  0.00    +0.020 A 
ATOM     28  C   UNL     1      -2.410  -8.143  -0.549  0.00  0.00    +0.042 A 
ATOM     29  C   UNL     1      -1.751  -6.956  -0.298  0.00  0.00    +0.031 A 
ATOM     30 CL   UNL     1      -1.593  -9.656  -0.310  0.00  0.00    -0.084 Cl
ENDBRANCH  20  24
ENDBRANCH  17  23
ENDBRANCH   1  17
TORSDOF 6
