REMARK  Name = ZINC22073814
REMARK  9 active torsions:
REMARK  status: ('A' for Active; 'I' for Inactive)
REMARK    1  A    between atoms: C_1  and  C_2
REMARK    2  A    between atoms: C_2  and  O_3
REMARK    3  A    between atoms: O_3  and  C_4
REMARK    4  A    between atoms: C_6  and  C_20
REMARK    5  A    between atoms: C_9  and  O_10
REMARK    6  A    between atoms: O_10  and  C_11
REMARK    7  A    between atoms: C_11  and  C_12
REMARK    8  A    between atoms: C_20  and  N_21
REMARK    9  A    between atoms: N_21  and  C_22
REMARK                            x       y       z     vdW  Elec       q    Type
REMARK                         _______ _______ _______ _____ _____    ______ ____
ROOT
ATOM      1  C   UNL     1      -3.247   9.172  -0.422  0.00  0.00    +0.163 A 
ATOM      2  C   UNL     1      -3.248   7.787  -0.468  0.00  0.00    +0.051 A 
ATOM      3  C   UNL     1      -2.214   7.115  -1.091  0.00  0.00    -0.060 A 
ATOM      4  C   UNL     1      -1.182   7.821  -1.681  0.00  0.00    +0.021 A 
ATOM      5  C   UNL     1      -1.177   9.204  -1.644  0.00  0.00    +0.063 A 
ATOM      6  C   UNL     1      -2.209   9.884  -1.015  0.00  0.00    +0.176 A 
ATOM      7 BR   UNL     1       0.236  10.167  -2.451  0.00  0.00    -0.046 Br
ENDROOT
BRANCH   1   8
ATOM      8  O   UNL     1      -4.261   9.834   0.196  0.00  0.00    -0.489 OA
BRANCH   8  10
ATOM      9  C   UNL     1      -6.338   9.952   1.426  0.00  0.00    +0.048 C 
ATOM     10  C   UNL     1      -5.293   9.038   0.783  0.00  0.00    +0.226 C 
ENDBRANCH   8  10
ENDBRANCH   1   8
BRANCH   6  11
ATOM     11  O   UNL     1      -2.207  11.243  -0.978  0.00  0.00    -0.483 OA
BRANCH  11  12
ATOM     12  C   UNL     1      -2.852  11.923  -2.056  0.00  0.00    +0.266 C 
BRANCH  12  13
ATOM     13  C   UNL     1      -2.749  13.412  -1.844  0.00  0.00    +0.008 A 
ATOM     14  C   UNL     1      -2.104  13.908  -0.727  0.00  0.00    +0.008 A 
ATOM     15  C   UNL     1      -2.005  15.274  -0.535  0.00  0.00    +0.000 A 
ATOM     16  C   UNL     1      -2.560  16.143  -1.456  0.00  0.00    +0.001 A 
ATOM     17  C   UNL     1      -3.210  15.648  -2.570  0.00  0.00    +0.020 A 
ATOM     18  C   UNL     1      -3.305  14.282  -2.765  0.00  0.00    +0.047 A 
ATOM     19 CL   UNL     1      -4.122  13.659  -4.165  0.00  0.00    -0.083 Cl
ENDBRANCH  12  13
ENDBRANCH  11  12
ENDBRANCH   6  11
BRANCH   3  20
ATOM     20  C   UNL     1      -2.214   5.608  -1.135  0.00  0.00    -0.046 C 
BRANCH  20  21
ATOM     21  N   UNL     1      -1.510   5.085   0.044  0.00  0.00    +0.385 N 
ATOM     22  H   UNL     1      -0.472   5.452   0.044  0.00  0.00    -0.085 HD
ATOM     23  H   UNL     1      -2.019   5.426   0.957  0.00  0.00    -0.085 HD
BRANCH  21  24
ATOM     24  C   UNL     1      -1.490   3.616   0.036  0.00  0.00    -0.067 C 
ATOM     25  C   UNL     1      -0.773   3.123  -1.223  0.00  0.00    -0.009 C 
ATOM     26  C   UNL     1      -0.753   1.593  -1.232  0.00  0.00    -0.012 C 
ATOM     27  C   UNL     1      -0.013   1.086   0.008  0.00  0.00    +0.007 C 
ATOM     28  C   UNL     1      -0.729   1.579   1.267  0.00  0.00    -0.012 C 
ATOM     29  C   UNL     1      -0.750   3.109   1.275  0.00  0.00    -0.009 C 
ATOM     30  C   UNL     1      -2.164   1.050   1.278  0.00  0.00    +0.007 C 
ATOM     31  C   UNL     1      -2.904   1.556   0.038  0.00  0.00    -0.012 C 
ATOM     32  C   UNL     1      -2.188   1.063  -1.221  0.00  0.00    +0.007 C 
ATOM     33  C   UNL     1      -2.925   3.086   0.047  0.00  0.00    -0.009 C 
ENDBRANCH  21  24
ENDBRANCH  20  21
ENDBRANCH   3  20
TORSDOF 8
