REMARK  Name = ZINC25607283
REMARK  7 active torsions:
REMARK  status: ('A' for Active; 'I' for Inactive)
REMARK    1  A    between atoms: C_1  and  C_2
REMARK    2  A    between atoms: C_2  and  N_3
REMARK    3  A    between atoms: C_9  and  C_11
REMARK    4  A    between atoms: C_11  and  C_13
REMARK    5  A    between atoms: C_11  and  S_14
REMARK    6  A    between atoms: S_14  and  C_15
REMARK    7  A    between atoms: C_21  and  C_26
REMARK                            x       y       z     vdW  Elec       q    Type
REMARK                         _______ _______ _______ _____ _____    ______ ____
ROOT
ATOM      1  C   UNL     1      -2.382   5.215   2.644  0.00  0.00    +0.171 A 
ATOM      2  N   UNL     1      -1.137   4.680   2.805  0.00  0.00    -0.301 N 
ATOM      3  H   UNL     1      -0.471   5.063   3.592  0.00  0.00    +0.171 HD
ATOM      4  C   UNL     1      -0.699   3.683   2.014  0.00  0.00    +0.261 A 
ATOM      5  O   UNL     1       0.415   3.215   2.172  0.00  0.00    -0.267 OA
ATOM      6  C   UNL     1      -1.557   3.179   0.989  0.00  0.00    +0.080 A 
ATOM      7  C   UNL     1      -1.309   2.116   0.020  0.00  0.00    +0.004 A 
ATOM      8  C   UNL     1      -2.279   1.810  -0.873  0.00  0.00    +0.056 A 
ATOM      9  S   UNL     1      -3.598   2.933  -0.454  0.00  0.00    -0.076 S 
ATOM     10  C   UNL     1      -2.821   3.787   0.893  0.00  0.00    +0.117 A 
ATOM     11  N   UNL     1      -3.193   4.769   1.706  0.00  0.00    -0.216 NA
ENDROOT
BRANCH   7  12
ATOM     12  C   UNL     1      -0.017   1.390   0.010  0.00  0.00    -0.016 A 
ATOM     13  C   UNL     1       1.183   2.099   0.002  0.00  0.00    +0.011 A 
ATOM     14  C   UNL     1       2.384   1.419  -0.013  0.00  0.00    +0.039 A 
ATOM     15  C   UNL     1       2.398   0.034  -0.021  0.00  0.00    +0.123 A 
ATOM     16  C   UNL     1       1.207  -0.675  -0.013  0.00  0.00    +0.039 A 
ATOM     17  C   UNL     1       0.002  -0.004   0.002  0.00  0.00    +0.011 A 
ATOM     18  F   UNL     1       3.575  -0.628  -0.035  0.00  0.00    -0.205 F 
ENDBRANCH   7  12
BRANCH   1  19
ATOM     19  S   UNL     1      -2.911   6.520   3.703  0.00  0.00    -0.075 S 
BRANCH  19  20
ATOM     20  C   UNL     1      -4.571   6.808   3.041  0.00  0.00    +0.137 C 
ATOM     21  C   UNL     1      -4.465   7.326   1.605  0.00  0.00    +0.029 C 
BRANCH  20  28
ATOM     22  N   UNL     1      -9.214   7.262   4.792  0.00  0.00    -0.300 NA
ATOM     23  C   UNL     1      -8.354   8.099   5.640  0.00  0.00    +0.103 C 
ATOM     24  C   UNL     1      -7.340   8.839   4.761  0.00  0.00    +0.123 C 
ATOM     25  N   UNL     1      -6.628   7.851   3.937  0.00  0.00    -0.298 N 
ATOM     26  C   UNL     1      -7.424   6.890   3.159  0.00  0.00    +0.123 C 
ATOM     27  C   UNL     1      -8.435   6.223   4.106  0.00  0.00    +0.103 C 
ATOM     28  C   UNL     1      -5.281   7.830   3.892  0.00  0.00    +0.229 C 
ATOM     29  O   UNL     1      -4.640   8.633   4.536  0.00  0.00    -0.274 OA
BRANCH  22  31
ATOM     30  C   UNL     1     -11.315   6.016   4.626  0.00  0.00    +0.020 C 
ATOM     31  C   UNL     1     -10.308   6.670   5.574  0.00  0.00    +0.081 C 
ENDBRANCH  22  31
ENDBRANCH  20  28
ENDBRANCH  19  20
ENDBRANCH   1  19
TORSDOF 5
