REMARK  Name = ZINC32622390
REMARK  7 active torsions:
REMARK  status: ('A' for Active; 'I' for Inactive)
REMARK    1  A    between atoms: C_1  and  C_2
REMARK    2  A    between atoms: C_5  and  C_8
REMARK    3  A    between atoms: C_8  and  C_10
REMARK    4  A    between atoms: C_8  and  N_26
REMARK    5  A    between atoms: C_10  and  N_11
REMARK    6  A    between atoms: C_12  and  C_14
REMARK    7  A    between atoms: C_16  and  C_19
REMARK                            x       y       z     vdW  Elec       q    Type
REMARK                         _______ _______ _______ _____ _____    ______ ____
ROOT
ATOM      1  N   UNL     1       6.073  -0.369  -1.261  0.00  0.00    -0.311 N 
ATOM      2  C   UNL     1       5.849   0.936  -1.510  0.00  0.00    +0.266 C 
ATOM      3  O   UNL     1       5.114   1.575  -0.783  0.00  0.00    -0.268 OA
ATOM      4  H   UNL     1       6.739  -0.948  -1.919  0.00  0.00    +0.149 HD
ENDROOT
BRANCH   2   5
ATOM      5  C   UNL     1       6.500   1.593  -2.669  0.00  0.00    +0.168 A 
ATOM      6  C   UNL     1       6.368   2.950  -3.063  0.00  0.00    +0.086 A 
ATOM      7  C   UNL     1       7.159   3.046  -4.174  0.00  0.00    +0.168 A 
ATOM      8  O   UNL     1       7.686   1.824  -4.371  0.00  0.00    -0.354 OA
ATOM      9  N   UNL     1       7.313   1.036  -3.534  0.00  0.00    -0.073 NA
BRANCH   7  10
ATOM     10  C   UNL     1       7.394   4.254  -4.993  0.00  0.00    +0.020 A 
ATOM     11  C   UNL     1       6.767   5.457  -4.663  0.00  0.00    +0.013 A 
ATOM     12  C   UNL     1       6.994   6.582  -5.428  0.00  0.00    +0.016 A 
ATOM     13  C   UNL     1       7.833   6.517  -6.527  0.00  0.00    +0.018 A 
ATOM     14  C   UNL     1       8.454   5.326  -6.863  0.00  0.00    +0.016 A 
ATOM     15  C   UNL     1       8.239   4.195  -6.103  0.00  0.00    +0.013 A 
ATOM     16 BR   UNL     1       8.133   8.062  -7.576  0.00  0.00    -0.050 Br
ENDBRANCH   7  10
ENDBRANCH   2   5
BRANCH   1  17
ATOM     17  C   UNL     1       5.430  -1.018  -0.116  0.00  0.00    +0.094 C 
BRANCH  17  18
ATOM     18  C   UNL     1       5.754  -2.513  -0.128  0.00  0.00    -0.020 C 
BRANCH  18  23
ATOM     19  C   UNL     1      11.422  -3.260   0.716  0.00  0.00    +0.044 C 
ATOM     20  C   UNL     1       9.944  -3.066   0.496  0.00  0.00    -0.050 A 
ATOM     21  C   UNL     1       9.421  -3.134  -0.782  0.00  0.00    +0.003 A 
ATOM     22  C   UNL     1       8.065  -2.955  -0.984  0.00  0.00    +0.002 A 
ATOM     23  C   UNL     1       7.232  -2.709   0.092  0.00  0.00    -0.059 A 
ATOM     24  C   UNL     1       7.757  -2.635   1.369  0.00  0.00    +0.002 A 
ATOM     25  C   UNL     1       9.112  -2.819   1.571  0.00  0.00    +0.003 A 
ENDBRANCH  18  23
BRANCH  18  26
ATOM     26  N   UNL     1       5.007  -3.186   0.943  0.00  0.00    +0.385 N 
ATOM     27  C   UNL     1       3.544  -2.990   0.774  0.00  0.00    -0.078 C 
ATOM     28  C   UNL     1       2.934  -4.143   1.611  0.00  0.00    -0.020 C 
ATOM     29  C   UNL     1       3.910  -5.313   1.351  0.00  0.00    -0.020 C 
ATOM     30  C   UNL     1       5.226  -4.648   0.905  0.00  0.00    -0.078 C 
ATOM     31  H   UNL     1       5.372  -2.748   1.883  0.00  0.00    -0.081 HD
ENDBRANCH  18  26
ENDBRANCH  17  18
ENDBRANCH   1  17
TORSDOF 6
