REMARK  Name = ZINC15938255
REMARK  9 active torsions:
REMARK  status: ('A' for Active; 'I' for Inactive)
REMARK    1  A    between atoms: C_1  and  C_2
REMARK    2  A    between atoms: C_8  and  N_10
REMARK    3  A    between atoms: N_10  and  S_11
REMARK    4  A    between atoms: S_11  and  C_14
REMARK    5  A    between atoms: C_16  and  C_22
REMARK    6  A    between atoms: C_19  and  O_20
REMARK    7  A    between atoms: O_20  and  C_21
REMARK    8  A    between atoms: N_24  and  N_25
REMARK    9  A    between atoms: C_26  and  C_28
REMARK                            x       y       z     vdW  Elec       q    Type
REMARK                         _______ _______ _______ _____ _____    ______ ____
ROOT
ATOM      1  C   UNL     1       0.002  -0.004   0.002  0.00  0.00    +0.147 A 
ATOM      2  C   UNL     1      -0.017   1.373   0.010  0.00  0.00    +0.045 A 
ATOM      3  C   UNL     1       1.185   2.086   0.002  0.00  0.00    +0.040 A 
ATOM      4  C   UNL     1       2.401   1.398  -0.014  0.00  0.00    +0.017 A 
ATOM      5  C   UNL     1       2.411   0.021  -0.022  0.00  0.00    +0.048 A 
ATOM      6  C   UNL     1       1.214  -0.684  -0.014  0.00  0.00    +0.146 A 
ENDROOT
BRANCH   3   7
ATOM      7  C   UNL     1       1.169   3.562   0.009  0.00  0.00    +0.260 C 
ATOM      8  O   UNL     1       0.110   4.159   0.022  0.00  0.00    -0.269 OA
ATOM      9  N   UNL     1       2.329   4.248   0.002  0.00  0.00    -0.230 N 
ATOM     10  H   UNL     1       3.174   3.772  -0.008  0.00  0.00    +0.173 HD
BRANCH   9  11
ATOM     11  N   UNL     1       2.315   5.649   0.009  0.00  0.00    -0.230 N 
ATOM     12  C   UNL     1       3.475   6.335   0.002  0.00  0.00    +0.267 C 
ATOM     13  O   UNL     1       4.535   5.738  -0.011  0.00  0.00    -0.268 OA
ATOM     14  H   UNL     1       1.470   6.125   0.020  0.00  0.00    +0.173 HD
BRANCH  12  15
ATOM     15  C   UNL     1       3.459   7.801   0.009  0.00  0.00    +0.076 A 
ATOM     16  C   UNL     1       4.521   8.682   0.004  0.00  0.00    +0.024 A 
ATOM     17  C   UNL     1       4.242  10.049   0.013  0.00  0.00    -0.036 A 
ATOM     18  C   UNL     1       2.930  10.406   0.029  0.00  0.00    -0.006 A 
ATOM     19  S   UNL     1       2.064   8.911   0.020  0.00  0.00    -0.088 S 
ATOM     20  C   UNL     1       2.755  11.900   0.043  0.00  0.00    +0.043 C 
ATOM     21  C   UNL     1       4.133  12.450   0.471  0.00  0.00    +0.010 C 
ATOM     22  C   UNL     1       5.083  11.329   0.007  0.00  0.00    +0.036 C 
ENDBRANCH  12  15
ENDBRANCH   9  11
ENDBRANCH   3   7
BRANCH   1  23
ATOM     23  S   UNL     1      -1.512  -0.905   0.012  0.00  0.00    +0.062 S 
ATOM     24  O   UNL     1      -1.394  -1.888   1.031  0.00  0.00    -0.153 OA
ATOM     25  O   UNL     1      -2.558   0.058  -0.000  0.00  0.00    -0.153 OA
BRANCH  23  26
ATOM     26  N   UNL     1      -1.605  -1.722  -1.426  0.00  0.00    -0.187 NA
ATOM     27  H   UNL     1      -2.301  -1.502  -2.064  0.00  0.00    +0.148 HD
BRANCH  26  34
ATOM     28  C   UNL     1      -2.472  -4.471  -1.704  0.00  0.00    +0.009 C 
ATOM     29  C   UNL     1      -1.325  -3.886  -2.530  0.00  0.00    +0.005 C 
ATOM     30  C   UNL     1      -0.313  -4.987  -2.851  0.00  0.00    +0.005 C 
ATOM     31  C   UNL     1       0.834  -4.402  -3.677  0.00  0.00    +0.000 C 
ATOM     32  C   UNL     1       1.523  -3.292  -2.879  0.00  0.00    +0.002 C 
ATOM     33  C   UNL     1       0.511  -2.191  -2.559  0.00  0.00    +0.020 C 
ATOM     34  C   UNL     1      -0.636  -2.777  -1.732  0.00  0.00    +0.079 C 
ENDBRANCH  26  34
ENDBRANCH  23  26
ENDBRANCH   1  23
BRANCH   6  35
ATOM     35  O   UNL     1       1.228  -2.041  -0.021  0.00  0.00    -0.493 OA
ATOM     36  C   UNL     1       2.508  -2.677  -0.038  0.00  0.00    +0.277 C 
ENDBRANCH   6  35
TORSDOF 7
