REMARK  Name = ZINC17511548
REMARK  6 active torsions:
REMARK  status: ('A' for Active; 'I' for Inactive)
REMARK    1  A    between atoms: C_1  and  C_2
REMARK    2  A    between atoms: C_6  and  C_15
REMARK    3  A    between atoms: C_9  and  O_11
REMARK    4  A    between atoms: O_11  and  C_12
REMARK    5  A    between atoms: C_12  and  C_13
REMARK    6  A    between atoms: C_12  and  C_14
REMARK                            x       y       z     vdW  Elec       q    Type
REMARK                         _______ _______ _______ _____ _____    ______ ____
ROOT
ATOM      1  C   UNL     1       0.016   1.503   0.007  0.00  0.00    +0.066 C 
ATOM      2  C   UNL     1       0.019  -0.004   0.001  0.00  0.00    +0.049 C 
ATOM      3  N   UNL     1      -0.078  -0.634  -1.147  0.00  0.00    -0.256 NA
ATOM      4  C   UNL     1      -0.091  -1.952  -1.310  0.00  0.00    +0.049 C 
ATOM      5  C   UNL     1       0.000  -2.807  -0.232  0.00  0.00    +0.028 C 
ATOM      6  C   UNL     1       0.120  -2.201   1.153  0.00  0.00    +0.099 C 
ATOM      7  C   UNL     1       0.129  -0.684   1.212  0.00  0.00    +0.070 C 
ATOM      8  C   UNL     1       0.237  -0.009   2.411  0.00  0.00    +0.338 C 
ATOM      9  O   UNL     1       0.459  -0.693   3.550  0.00  0.00    -0.245 OA
ATOM     10  C   UNL     1      -0.018  -4.188  -0.383  0.00  0.00    +0.162 C 
ATOM     11  O   UNL     1       0.069  -4.901   0.598  0.00  0.00    -0.292 OA
ATOM     12  C   UNL     1      -0.144  -4.812  -1.749  0.00  0.00    +0.080 C 
ATOM     13  C   UNL     1      -0.927  -3.861  -2.660  0.00  0.00    +0.014 C 
ATOM     14  C   UNL     1      -0.205  -2.513  -2.708  0.00  0.00    +0.056 C 
ENDROOT
BRANCH   6  15
ATOM     15  C   UNL     1       1.401  -2.696   1.774  0.00  0.00    +0.047 A 
ATOM     16  C   UNL     1       1.369  -3.404   2.918  0.00  0.00    +0.204 A 
ATOM     17  O   UNL     1       2.473  -3.868   3.514  0.00  0.00    -0.462 OA
ATOM     18  C   UNL     1       3.707  -3.661   3.013  0.00  0.00    +0.138 A 
ATOM     19  C   UNL     1       4.834  -4.157   3.657  0.00  0.00    +0.047 A 
ATOM     20  C   UNL     1       6.085  -3.933   3.124  0.00  0.00    +0.004 A 
ATOM     21  C   UNL     1       6.236  -3.215   1.947  0.00  0.00    +0.001 A 
ATOM     22  C   UNL     1       5.132  -2.714   1.292  0.00  0.00    +0.015 A 
ATOM     23  C   UNL     1       3.861  -2.934   1.821  0.00  0.00    +0.064 A 
ATOM     24  C   UNL     1       2.648  -2.423   1.153  0.00  0.00    +0.197 A 
ATOM     25  O   UNL     1       2.715  -1.789   0.114  0.00  0.00    -0.287 OA
ENDBRANCH   6  15
BRANCH   8  26
ATOM     26  O   UNL     1       0.120   1.332   2.441  0.00  0.00    -0.459 OA
BRANCH  26  27
ATOM     27  C   UNL     1       0.242   1.965   3.717  0.00  0.00    +0.171 C 
ATOM     28  C   UNL     1       1.709   2.320   3.971  0.00  0.00    +0.052 C 
ATOM     29  C   UNL     1      -0.602   3.241   3.736  0.00  0.00    +0.052 C 
ENDBRANCH  26  27
ENDBRANCH   8  26
TORSDOF 3
