REMARK  Name = ZINC09370586
REMARK  20 active torsions:
REMARK  status: ('A' for Active; 'I' for Inactive)
REMARK    1  A    between atoms: C_1  and  C_2
REMARK    2  A    between atoms: C_2  and  N_75
REMARK    3  A    between atoms: C_3  and  C_4
REMARK    4  A    between atoms: C_3  and  N_75
REMARK    5  A    between atoms: C_5  and  C_6
REMARK    6  A    between atoms: C_5  and  N_75
REMARK    7  A    between atoms: C_6  and  N_7
REMARK    8  A    between atoms: C_8  and  C_28
REMARK    9  A    between atoms: C_10  and  C_15
REMARK   10  A    between atoms: C_11  and  O_14
REMARK   11  A    between atoms: C_15  and  C_17
REMARK   12  A    between atoms: C_20  and  O_24
REMARK   13  A    between atoms: C_21  and  C_23
REMARK   14  A    between atoms: O_24  and  C_25
REMARK   15  A    between atoms: C_25  and  C_26
REMARK   16  A    between atoms: C_25  and  C_27
REMARK   17  A    between atoms: C_31  and  O_37
REMARK   18  A    between atoms: C_32  and  O_34
REMARK   19  A    between atoms: O_34  and  C_35
REMARK   20  A    between atoms: C_35  and  C_36
REMARK                            x       y       z     vdW  Elec       q    Type
REMARK                         _______ _______ _______ _____ _____    ______ ____
ROOT
ATOM      1  N   UNL     1       3.413  12.347  -4.054  0.00  0.00    -0.285 N 
ATOM      2  C   UNL     1       2.998  10.972  -4.357  0.00  0.00    +0.144 C 
ATOM      3  C   UNL     1       4.270  10.178  -4.536  0.00  0.00    +0.071 C 
ATOM      4  C   UNL     1       5.298  11.037  -4.342  0.00  0.00    +0.188 C 
ATOM      5  C   UNL     1       4.758  12.381  -4.050  0.00  0.00    +0.282 C 
ATOM      6  O   UNL     1       5.429  13.370  -3.832  0.00  0.00    -0.267 OA
ENDROOT
BRANCH   2   7
ATOM      7  C   UNL     1       2.186  10.944  -5.627  0.00  0.00    -0.019 A 
ATOM      8  C   UNL     1       2.584  11.697  -6.716  0.00  0.00    +0.009 A 
ATOM      9  C   UNL     1       1.847  11.670  -7.885  0.00  0.00    +0.049 A 
ATOM     10  C   UNL     1       0.700  10.897  -7.963  0.00  0.00    +0.158 A 
ATOM     11  C   UNL     1       0.296  10.144  -6.865  0.00  0.00    +0.162 A 
ATOM     12  C   UNL     1       1.043  10.171  -5.698  0.00  0.00    +0.055 A 
BRANCH  10  13
ATOM     13  O   UNL     1      -0.030  10.874  -9.110  0.00  0.00    -0.503 OA
ATOM     14  H   UNL     1      -0.721  11.550  -9.150  0.00  0.00    +0.292 HD
ENDBRANCH  10  13
BRANCH  11  15
ATOM     15  O   UNL     1      -0.829   9.384  -6.936  0.00  0.00    -0.489 OA
BRANCH  15  16
ATOM     16  C   UNL     1      -1.246   8.727  -5.737  0.00  0.00    +0.226 C 
ATOM     17  C   UNL     1      -2.482   7.872  -6.026  0.00  0.00    +0.048 C 
ENDBRANCH  15  16
ENDBRANCH  11  15
ENDBRANCH   2   7
BRANCH   4  18
ATOM     18  O   UNL     1       6.611  10.716  -4.409  0.00  0.00    -0.502 OA
ATOM     19  H   UNL     1       7.162  11.531  -4.226  0.00  0.00    +0.292 HD
ENDBRANCH   4  18
BRANCH   3  20
ATOM     20  C   UNL     1       4.372   8.749  -4.853  0.00  0.00    +0.195 C 
ATOM     21  O   UNL     1       4.848   8.394  -5.915  0.00  0.00    -0.287 OA
BRANCH  20  22
ATOM     22  C   UNL     1       3.898   7.743  -3.883  0.00  0.00    +0.023 A 
ATOM     23  C   UNL     1       3.458   8.142  -2.617  0.00  0.00    +0.015 A 
ATOM     24  C   UNL     1       3.016   7.200  -1.716  0.00  0.00    +0.046 A 
ATOM     25  C   UNL     1       3.001   5.854  -2.064  0.00  0.00    +0.124 A 
ATOM     26  C   UNL     1       3.442   5.452  -3.320  0.00  0.00    -0.008 A 
ATOM     27  C   UNL     1       3.886   6.388  -4.228  0.00  0.00    +0.018 A 
ATOM     28  C   UNL     1       3.429   3.992  -3.691  0.00  0.00    +0.047 C 
BRANCH  25  29
ATOM     29  O   UNL     1       2.559   4.929  -1.175  0.00  0.00    -0.489 OA
BRANCH  29  30
ATOM     30  C   UNL     1       2.038   5.417   0.063  0.00  0.00    +0.167 C 
ATOM     31  C   UNL     1       1.077   4.384   0.654  0.00  0.00    +0.051 C 
ATOM     32  C   UNL     1       3.189   5.660   1.040  0.00  0.00    +0.051 C 
ENDBRANCH  29  30
ENDBRANCH  25  29
ENDBRANCH  20  22
ENDBRANCH   3  20
BRANCH   1  33
ATOM     33  C   UNL     1       2.521  13.481  -3.801  0.00  0.00    +0.090 C 
BRANCH  33  34
ATOM     34  C   UNL     1       2.213  13.564  -2.304  0.00  0.00    -0.060 C 
BRANCH  34  35
ATOM     35  N   UNL     1       1.331  14.725  -2.062  0.00  0.00    +0.380 N 
ATOM     36  H   UNL     1       1.748  15.557  -2.496  0.00  0.00    -0.082 HD
BRANCH  35  38
ATOM     37  C   UNL     1      -0.651  13.246  -2.047  0.00  0.00    -0.017 C 
ATOM     38  C   UNL     1       0.003  14.483  -2.666  0.00  0.00    -0.082 C 
ENDBRANCH  35  38
BRANCH  35  39
ATOM     39  C   UNL     1       1.190  14.959  -0.610  0.00  0.00    -0.082 C 
ATOM     40  C   UNL     1       0.510  16.312  -0.392  0.00  0.00    -0.017 C 
ENDBRANCH  35  39
ENDBRANCH  34  35
ENDBRANCH  33  34
ENDBRANCH   1  33
TORSDOF 14
