REMARK  Name = ZINC41585869
REMARK  8 active torsions:
REMARK  status: ('A' for Active; 'I' for Inactive)
REMARK    1  A    between atoms: C_1  and  C_2
REMARK    2  A    between atoms: C_4  and  O_35
REMARK    3  A    between atoms: C_5  and  C_22
REMARK    4  A    between atoms: C_11  and  C_12
REMARK    5  A    between atoms: C_15  and  N_18
REMARK    6  A    between atoms: N_18  and  C_19
REMARK    7  A    between atoms: N_18  and  C_20
REMARK    8  A    between atoms: C_22  and  N_23
REMARK                            x       y       z     vdW  Elec       q    Type
REMARK                         _______ _______ _______ _____ _____    ______ ____
ROOT
ATOM      1  C   UNL     1       1.361   1.232  -0.086  0.00  0.00    +0.045 C 
ATOM      2  C   UNL     1       0.940  -0.214  -0.096  0.00  0.00    -0.033 A 
ATOM      3  C   UNL     1       0.808  -0.881  -1.281  0.00  0.00    +0.050 A 
ATOM      4  C   UNL     1       0.419  -2.218  -1.292  0.00  0.00    +0.125 A 
ATOM      5  C   UNL     1       0.162  -2.887  -0.106  0.00  0.00    +0.051 A 
ATOM      6  C   UNL     1       0.292  -2.224   1.108  0.00  0.00    +0.148 A 
ATOM      7  C   UNL     1       0.690  -0.877   1.106  0.00  0.00    +0.071 A 
ATOM      8  C   UNL     1       0.744  -0.459   2.519  0.00  0.00    +0.232 C 
ATOM      9  O   UNL     1       1.041   0.638   2.961  0.00  0.00    -0.283 OA
ATOM     10  C   UNL     1       0.358  -1.659   3.274  0.00  0.00    +0.176 C 
ATOM     11  C   UNL     1       0.264  -1.760   4.625  0.00  0.00    +0.058 C 
ATOM     12  O   UNL     1       0.104  -2.642   2.378  0.00  0.00    -0.451 OA
ENDROOT
BRANCH  11  13
ATOM     13  C   UNL     1       0.382  -0.561   5.461  0.00  0.00    -0.021 A 
ATOM     14  C   UNL     1      -0.257   0.627   5.081  0.00  0.00    +0.010 A 
ATOM     15  C   UNL     1      -0.144   1.742   5.862  0.00  0.00    +0.023 A 
ATOM     16  C   UNL     1       0.605   1.699   7.036  0.00  0.00    +0.029 A 
ATOM     17  C   UNL     1       1.242   0.521   7.418  0.00  0.00    +0.023 A 
ATOM     18  C   UNL     1       1.130  -0.600   6.646  0.00  0.00    +0.010 A 
BRANCH  16  19
ATOM     19  N   UNL     1       0.717   2.837   7.829  0.00  0.00    -0.336 N 
ATOM     20  C   UNL     1       0.048   4.077   7.429  0.00  0.00    +0.129 C 
ATOM     21  C   UNL     1       1.504   2.794   9.063  0.00  0.00    +0.129 C 
ENDBRANCH  16  19
ENDBRANCH  11  13
BRANCH   4  22
ATOM     22  O   UNL     1       0.290  -2.871  -2.475  0.00  0.00    -0.506 OA
ATOM     23  H   UNL     1       1.099  -3.307  -2.774  0.00  0.00    +0.292 HD
ENDBRANCH   4  22
BRANCH   5  24
ATOM     24  C   UNL     1      -0.259  -4.334  -0.134  0.00  0.00    +0.127 C 
BRANCH  24  25
ATOM     25  N   UNL     1       0.933  -5.191  -0.073  0.00  0.00    -0.295 NA
ATOM     26  C   UNL     1       1.623  -5.045   1.215  0.00  0.00    +0.103 C 
ATOM     27  C   UNL     1       2.949  -5.810   1.171  0.00  0.00    +0.122 C 
ATOM     28  N   UNL     1       2.675  -7.198   0.767  0.00  0.00    -0.314 N 
ATOM     29  C   UNL     1       1.869  -7.424  -0.443  0.00  0.00    +0.122 C 
ATOM     30  C   UNL     1       0.585  -6.594  -0.335  0.00  0.00    +0.103 C 
ATOM     31  C   UNL     1       3.163  -8.267   1.509  0.00  0.00    +0.099 A 
ATOM     32  C   UNL     1       3.002  -9.565   1.035  0.00  0.00    +0.042 A 
ATOM     33  C   UNL     1       3.493 -10.620   1.784  0.00  0.00    +0.005 A 
ATOM     34  C   UNL     1       4.130 -10.339   2.986  0.00  0.00    +0.018 A 
ATOM     35  C   UNL     1       4.254  -9.027   3.395  0.00  0.00    +0.084 A 
ATOM     36  N   UNL     1       3.781  -8.040   2.657  0.00  0.00    -0.350 N 
ATOM     37  H   UNL     1       3.885  -7.127   2.966  0.00  0.00    +0.166 HD
ENDBRANCH  24  25
ENDBRANCH   5  24
TORSDOF 5
