REMARK  Name = ZINC41025635
REMARK  7 active torsions:
REMARK  status: ('A' for Active; 'I' for Inactive)
REMARK    1  A    between atoms: C_1  and  C_2
REMARK    2  A    between atoms: C_5  and  C_9
REMARK    3  A    between atoms: C_7  and  C_8
REMARK    4  A    between atoms: C_11  and  C_14
REMARK    5  A    between atoms: N_16  and  C_17
REMARK    6  A    between atoms: C_19  and  C_23
REMARK    7  A    between atoms: N_21  and  C_22
REMARK                            x       y       z     vdW  Elec       q    Type
REMARK                         _______ _______ _______ _____ _____    ______ ____
ROOT
ATOM      1  C   UNL     1       0.239  -7.564  -1.619  0.00  0.00    +0.287 C 
ATOM      2  O   UNL     1       0.342  -7.433  -2.823  0.00  0.00    -0.266 OA
ATOM      3  N   UNL     1       0.207  -8.797  -1.076  0.00  0.00    -0.264 N 
ATOM      4  H   UNL     1       0.124  -8.902  -0.115  0.00  0.00    +0.157 HD
ENDROOT
BRANCH   3   5
ATOM      5  C   UNL     1       0.292  -9.921  -1.895  0.00  0.00    +0.124 A 
ATOM      6  C   UNL     1       0.416  -9.920  -3.248  0.00  0.00    +0.073 A 
ATOM      7  C   UNL     1       0.469 -11.259  -3.677  0.00  0.00    +0.095 A 
ATOM      8  N   UNL     1       0.379 -12.033  -2.616  0.00  0.00    -0.170 NA
ATOM      9  N   UNL     1       0.272 -11.216  -1.483  0.00  0.00    -0.253 N 
ATOM     10  C   UNL     1       0.157 -11.678  -0.097  0.00  0.00    +0.174 C 
BRANCH   7  11
ATOM     11  C   UNL     1       0.601 -11.720  -5.081  0.00  0.00    +0.002 A 
ATOM     12  C   UNL     1       0.693 -10.790  -6.116  0.00  0.00    +0.011 A 
ATOM     13  C   UNL     1       0.816 -11.223  -7.420  0.00  0.00    +0.020 A 
ATOM     14  C   UNL     1       0.849 -12.578  -7.702  0.00  0.00    +0.041 A 
ATOM     15  C   UNL     1       0.758 -13.505  -6.678  0.00  0.00    +0.020 A 
ATOM     16  C   UNL     1       0.641 -13.082  -5.370  0.00  0.00    +0.011 A 
ATOM     17 CL   UNL     1       1.004 -13.116  -9.345  0.00  0.00    -0.084 Cl
ENDBRANCH   7  11
ENDBRANCH   3   5
BRANCH   1  20
ATOM     18  C   UNL     1       0.058  -4.256  -0.021  0.00  0.00    +0.114 A 
ATOM     19  C   UNL     1       0.169  -5.080  -1.166  0.00  0.00    +0.086 A 
ATOM     20  C   UNL     1       0.148  -6.374  -0.752  0.00  0.00    +0.222 A 
ATOM     21  O   UNL     1       0.031  -6.378   0.591  0.00  0.00    -0.349 OA
ATOM     22  N   UNL     1      -0.018  -5.034   1.031  0.00  0.00    -0.077 NA
BRANCH  18  27
ATOM     23  C   UNL     1      -0.018   1.503   0.010  0.00  0.00    +0.044 C 
ATOM     24  C   UNL     1       0.002  -0.004   0.002  0.00  0.00    -0.047 A 
ATOM     25  C   UNL     1       0.006  -0.687  -1.201  0.00  0.00    +0.004 A 
ATOM     26  C   UNL     1       0.024  -2.067  -1.215  0.00  0.00    +0.010 A 
ATOM     27  C   UNL     1       0.039  -2.772  -0.013  0.00  0.00    +0.004 A 
ATOM     28  C   UNL     1       0.036  -2.080   1.196  0.00  0.00    +0.013 A 
ATOM     29  C   UNL     1       0.023  -0.699   1.197  0.00  0.00    -0.047 A 
ATOM     30  C   UNL     1       0.025   0.051   2.504  0.00  0.00    +0.044 C 
ENDBRANCH  18  27
ENDBRANCH   1  20
TORSDOF 4
