REMARK  Name = ZINC40391730
REMARK  11 active torsions:
REMARK  status: ('A' for Active; 'I' for Inactive)
REMARK    1  A    between atoms: C_1  and  C_2
REMARK    2  A    between atoms: C_2  and  N_3
REMARK    3  A    between atoms: C_4  and  C_22
REMARK    4  A    between atoms: C_5  and  C_17
REMARK    5  A    between atoms: C_6  and  C_11
REMARK    6  A    between atoms: C_17  and  O_19
REMARK    7  A    between atoms: O_19  and  C_20
REMARK    8  A    between atoms: C_20  and  C_21
REMARK    9  A    between atoms: C_22  and  N_23
REMARK   10  A    between atoms: N_27  and  S_30
REMARK   11  A    between atoms: S_30  and  C_33
REMARK                            x       y       z     vdW  Elec       q    Type
REMARK                         _______ _______ _______ _____ _____    ______ ____
ROOT
ATOM      1  N   UNL     1      -1.296  -0.686  -0.139  0.00  0.00    -0.258 N 
ATOM      2  C   UNL     1      -1.795  -0.800   1.127  0.00  0.00    +0.041 C 
ATOM      3  C   UNL     1      -3.100  -1.077   1.339  0.00  0.00    +0.080 C 
ATOM      4  C   UNL     1      -3.989  -1.257   0.126  0.00  0.00    +0.144 C 
ATOM      5  N   UNL     1      -3.354  -1.113  -1.195  0.00  0.00    -0.288 N 
ATOM      6  C   UNL     1      -2.037  -0.829  -1.245  0.00  0.00    +0.307 C 
ATOM      7  O   UNL     1      -1.504  -0.705  -2.331  0.00  0.00    -0.252 OA
ATOM      8  H   UNL     1      -3.871  -1.217  -2.009  0.00  0.00    +0.151 HD
ENDROOT
BRANCH   4   9
ATOM      9  C   UNL     1      -5.106  -0.249   0.216  0.00  0.00    -0.022 A 
ATOM     10  C   UNL     1      -4.887   1.061  -0.165  0.00  0.00    +0.006 A 
ATOM     11  C   UNL     1      -5.911   1.986  -0.083  0.00  0.00    +0.000 A 
ATOM     12  C   UNL     1      -7.155   1.600   0.380  0.00  0.00    +0.000 A 
ATOM     13  C   UNL     1      -7.375   0.289   0.759  0.00  0.00    +0.000 A 
ATOM     14  C   UNL     1      -6.352  -0.637   0.673  0.00  0.00    +0.006 A 
ENDBRANCH   4   9
BRANCH   1  16
ATOM     15  C   UNL     1       0.324   1.133  -0.361  0.00  0.00    +0.025 C 
ATOM     16  C   UNL     1       0.129  -0.383  -0.296  0.00  0.00    +0.111 C 
ENDBRANCH   1  16
BRANCH   3  17
ATOM     17  C   UNL     1      -3.618  -1.197   2.650  0.00  0.00    +0.339 C 
ATOM     18  O   UNL     1      -2.911  -0.948   3.609  0.00  0.00    -0.245 OA
BRANCH  17  19
ATOM     19  O   UNL     1      -4.896  -1.587   2.838  0.00  0.00    -0.462 OA
BRANCH  19  20
ATOM     20  C   UNL     1      -5.353  -1.686   4.188  0.00  0.00    +0.229 C 
ATOM     21  C   UNL     1      -6.814  -2.138   4.200  0.00  0.00    +0.048 C 
ENDBRANCH  19  20
ENDBRANCH  17  19
ENDBRANCH   3  17
BRANCH   2  22
ATOM     22  C   UNL     1      -0.875  -0.614   2.306  0.00  0.00    +0.136 C 
BRANCH  22  23
ATOM     23  N   UNL     1      -0.562  -1.923   2.894  0.00  0.00    -0.296 NA
ATOM     24  C   UNL     1       0.219  -2.723   1.986  0.00  0.00    +0.086 C 
ATOM     25  C   UNL     1      -0.263  -4.195   2.018  0.00  0.00    +0.032 C 
ATOM     26  C   UNL     1      -0.629  -4.594   3.469  0.00  0.00    +0.111 C 
ATOM     27  N   UNL     1       0.258  -4.127   4.498  0.00  0.00    -0.175 NA
ATOM     28  C   UNL     1      -0.005  -2.790   5.130  0.00  0.00    +0.125 C 
ATOM     29  C   UNL     1       0.248  -1.774   4.102  0.00  0.00    +0.102 C 
BRANCH  27  30
ATOM     30  S   UNL     1       1.549  -5.046   4.977  0.00  0.00    +0.061 S 
ATOM     31  O   UNL     1       1.871  -4.636   6.299  0.00  0.00    -0.153 OA
ATOM     32  O   UNL     1       1.232  -6.393   4.654  0.00  0.00    -0.153 OA
BRANCH  30  33
ATOM     33  C   UNL     1       2.917  -4.593   3.962  0.00  0.00    +0.105 A 
ATOM     34  C   UNL     1       3.142  -5.256   2.770  0.00  0.00    +0.028 A 
ATOM     35  C   UNL     1       4.215  -4.901   1.974  0.00  0.00    +0.002 A 
ATOM     36  C   UNL     1       5.062  -3.882   2.369  0.00  0.00    +0.000 A 
ATOM     37  C   UNL     1       4.835  -3.218   3.561  0.00  0.00    +0.002 A 
ATOM     38  C   UNL     1       3.760  -3.571   4.355  0.00  0.00    +0.028 A 
ENDBRANCH  30  33
ENDBRANCH  27  30
ENDBRANCH  22  23
ENDBRANCH   2  22
TORSDOF 9
