REMARK  Name = ZINC09562938
REMARK  4 active torsions:
REMARK  status: ('A' for Active; 'I' for Inactive)
REMARK    1  A    between atoms: C_1  and  C_2
REMARK    2  A    between atoms: C_9  and  C_14
REMARK    3  A    between atoms: C_14  and  N_15
REMARK    4  A    between atoms: C_17  and  O_30
REMARK                            x       y       z     vdW  Elec       q    Type
REMARK                         _______ _______ _______ _____ _____    ______ ____
ROOT
ATOM      1  N   UNL     1       0.673   1.874   7.566  0.00  0.00    -0.321 N 
ATOM      2  C   UNL     1       1.705   1.329   6.689  0.00  0.00    +0.137 C 
ATOM      3  C   UNL     1       1.786  -0.194   6.785  0.00  0.00    +0.136 C 
ATOM      4  C   UNL     1       0.430  -0.757   6.340  0.00  0.00    +0.070 C 
ATOM      5  C   UNL     1      -0.620  -0.163   7.250  0.00  0.00    -0.023 A 
ATOM      6  C   UNL     1      -0.407   1.057   7.853  0.00  0.00    +0.041 A 
ATOM      7  C   UNL     1      -1.323   1.464   8.860  0.00  0.00    +0.003 A 
ATOM      8  C   UNL     1      -1.034   2.526   9.732  0.00  0.00    +0.010 A 
ATOM      9  C   UNL     1      -1.986   2.968  10.600  0.00  0.00    +0.001 A 
ATOM     10  C   UNL     1      -3.233   2.350  10.672  0.00  0.00    +0.001 A 
ATOM     11  C   UNL     1      -3.518   1.266   9.901  0.00  0.00    +0.008 A 
ATOM     12  C   UNL     1      -2.546   0.768   9.015  0.00  0.00    -0.016 A 
ATOM     13  C   UNL     1      -2.775  -0.405   8.278  0.00  0.00    +0.009 A 
ATOM     14  C   UNL     1      -1.806  -0.868   7.443  0.00  0.00    +0.006 A 
ENDROOT
BRANCH   3  15
ATOM     15  O   UNL     1       2.056  -0.592   8.130  0.00  0.00    -0.390 OA
ATOM     16  H   UNL     1       2.118  -1.550   8.251  0.00  0.00    +0.210 HD
ENDBRANCH   3  15
BRANCH   1  17
ATOM     17  C   UNL     1       0.206   3.162   7.008  0.00  0.00    +0.160 C 
BRANCH  17  26
ATOM     18  C   UNL     1      -0.700   0.609   0.224  0.00  0.00    +0.047 C 
ATOM     19  C   UNL     1      -1.269   1.249   1.465  0.00  0.00    -0.009 A 
ATOM     20  C   UNL     1      -2.626   1.598   1.521  0.00  0.00    +0.062 A 
ATOM     21  C   UNL     1      -3.135   2.167   2.638  0.00  0.00    +0.116 A 
ATOM     22  N   UNL     1      -2.341   2.419   3.716  0.00  0.00    -0.266 N 
ATOM     23  C   UNL     1      -2.872   2.993   4.816  0.00  0.00    +0.259 A 
ATOM     24  O   UNL     1      -4.056   3.287   4.853  0.00  0.00    -0.267 OA
ATOM     25  C   UNL     1      -2.043   3.246   5.915  0.00  0.00    +0.095 A 
ATOM     26  C   UNL     1      -0.708   2.900   5.838  0.00  0.00    +0.066 A 
ATOM     27  N   UNL     1      -0.231   2.338   4.739  0.00  0.00    -0.231 NA
ATOM     28  C   UNL     1      -1.014   2.095   3.689  0.00  0.00    +0.159 A 
ATOM     29  C   UNL     1      -0.466   1.497   2.539  0.00  0.00    +0.088 A 
ATOM     30 CL   UNL     1       1.218   1.078   2.487  0.00  0.00    -0.079 Cl
ATOM     31 CL   UNL     1      -3.656   1.293   0.157  0.00  0.00    -0.082 Cl
ENDBRANCH  17  26
ENDBRANCH   1  17
TORSDOF 3
