REMARK  Name = ZINC13273639
REMARK  11 active torsions:
REMARK  status: ('A' for Active; 'I' for Inactive)
REMARK    1  A    between atoms: C_1  and  C_2
REMARK    2  A    between atoms: C_2  and  N_3
REMARK    3  A    between atoms: N_3  and  C_4
REMARK    4  A    between atoms: N_3  and  S_6
REMARK    5  A    between atoms: C_4  and  C_5
REMARK    6  A    between atoms: S_6  and  C_9
REMARK    7  A    between atoms: C_12  and  S_18
REMARK    8  A    between atoms: C_13  and  C_15
REMARK    9  A    between atoms: S_18  and  C_19
REMARK   10  A    between atoms: C_25  and  C_33
REMARK   11  A    between atoms: C_26  and  C_30
REMARK                            x       y       z     vdW  Elec       q    Type
REMARK                         _______ _______ _______ _____ _____    ______ ____
ROOT
ATOM      1  C   UNL     1      -3.616   0.306   1.832  0.00  0.00    +0.106 A 
ATOM      2  C   UNL     1      -2.745   1.037   2.626  0.00  0.00    +0.029 A 
ATOM      3  C   UNL     1      -3.144   2.236   3.181  0.00  0.00    +0.018 A 
ATOM      4  C   UNL     1      -4.426   2.719   2.946  0.00  0.00    +0.030 A 
ATOM      5  C   UNL     1      -5.311   1.980   2.142  0.00  0.00    +0.079 A 
ATOM      6  C   UNL     1      -4.888   0.770   1.583  0.00  0.00    +0.044 A 
ENDROOT
BRANCH   1   7
ATOM      7  S   UNL     1      -3.088  -1.223   1.132  0.00  0.00    +0.061 S 
ATOM      8  O   UNL     1      -4.263  -1.978   0.872  0.00  0.00    -0.153 OA
ATOM      9  O   UNL     1      -2.038  -1.707   1.959  0.00  0.00    -0.153 OA
BRANCH   7  10
ATOM     10  N   UNL     1      -2.411  -0.879  -0.340  0.00  0.00    -0.177 NA
BRANCH  10  12
ATOM     11  C   UNL     1      -0.760   0.924  -0.393  0.00  0.00    +0.022 C 
ATOM     12  C   UNL     1      -0.978  -0.590  -0.438  0.00  0.00    +0.106 C 
ENDBRANCH  10  12
BRANCH  10  13
ATOM     13  C   UNL     1      -3.245  -0.866  -1.544  0.00  0.00    +0.106 C 
ATOM     14  C   UNL     1      -3.166  -2.228  -2.235  0.00  0.00    +0.022 C 
ENDBRANCH  10  13
ENDBRANCH   7  10
ENDBRANCH   1   7
BRANCH   5  15
ATOM     15  C   UNL     1      -6.670   2.479   1.886  0.00  0.00    +0.388 C 
ATOM     16  O   UNL     1      -7.437   1.833   1.185  0.00  0.00    -0.241 OA
ATOM     17  O   UNL     1      -7.035   3.541   2.374  0.00  0.00    -0.241 OA
ENDBRANCH   5  15
BRANCH   4  18
ATOM     18  S   UNL     1      -4.939   4.248   3.654  0.00  0.00    -0.051 S 
BRANCH  18  19
ATOM     19  C   UNL     1      -4.859   5.388   2.313  0.00  0.00    +0.175 A 
ATOM     20  N   UNL     1      -5.295   6.666   2.499  0.00  0.00    -0.301 N 
ATOM     21  H   UNL     1      -5.642   6.928   3.366  0.00  0.00    +0.171 HD
ATOM     22  C   UNL     1      -5.252   7.571   1.503  0.00  0.00    +0.261 A 
ATOM     23  O   UNL     1      -5.643   8.711   1.679  0.00  0.00    -0.267 OA
ATOM     24  C   UNL     1      -4.717   7.149   0.189  0.00  0.00    +0.076 A 
ATOM     25  C   UNL     1      -4.572   7.895  -0.980  0.00  0.00    -0.015 A 
ATOM     26  C   UNL     1      -4.045   7.301  -2.106  0.00  0.00    +0.106 A 
ATOM     27  S   UNL     1      -3.724   5.633  -1.556  0.00  0.00    -0.062 S 
ATOM     28  C   UNL     1      -4.295   5.798   0.117  0.00  0.00    +0.117 A 
ATOM     29  N   UNL     1      -4.373   4.984   1.157  0.00  0.00    -0.216 NA
ATOM     30  C   UNL     1      -4.990   9.342  -1.013  0.00  0.00    +0.046 C 
BRANCH  26  31
ATOM     31  C   UNL     1      -3.816   7.870  -3.381  0.00  0.00    +0.393 C 
ATOM     32  O   UNL     1      -4.100   9.045  -3.587  0.00  0.00    -0.240 OA
ATOM     33  O   UNL     1      -3.335   7.190  -4.279  0.00  0.00    -0.240 OA
ENDBRANCH  26  31
ENDBRANCH  18  19
ENDBRANCH   4  18
TORSDOF 8
