REMARK  Name = ZINC09882028
REMARK  9 active torsions:
REMARK  status: ('A' for Active; 'I' for Inactive)
REMARK    1  A    between atoms: C_1  and  C_2
REMARK    2  A    between atoms: C_5  and  N_11
REMARK    3  A    between atoms: C_6  and  N_8
REMARK    4  A    between atoms: C_12  and  C_14
REMARK    5  A    between atoms: C_14  and  S_15
REMARK    6  A    between atoms: S_15  and  C_16
REMARK    7  A    between atoms: C_19  and  C_28
REMARK    8  A    between atoms: N_20  and  C_21
REMARK    9  A    between atoms: C_28  and  N_59
REMARK                            x       y       z     vdW  Elec       q    Type
REMARK                         _______ _______ _______ _____ _____    ______ ____
ROOT
ATOM      1  C   UNL     1      -6.246   1.723  -0.551  0.00  0.00    +0.197 A 
ATOM      2  N   UNL     1      -6.253   3.035  -0.500  0.00  0.00    -0.122 NA
ATOM      3  N   UNL     1      -7.456   3.472  -0.616  0.00  0.00    -0.135 NA
ATOM      4  C   UNL     1      -8.286   2.474  -0.738  0.00  0.00    +0.122 A 
ATOM      5  N   UNL     1      -7.545   1.322  -0.700  0.00  0.00    -0.276 N 
ENDROOT
BRANCH   5   6
ATOM      6  C   UNL     1      -8.021   0.005  -0.796  0.00  0.00    +0.050 A 
ATOM      7  C   UNL     1      -8.624  -0.433  -1.967  0.00  0.00    +0.029 A 
ATOM      8  C   UNL     1      -9.086  -1.731  -2.061  0.00  0.00    +0.040 A 
ATOM      9  C   UNL     1      -8.959  -2.591  -0.983  0.00  0.00    +0.124 A 
ATOM     10  C   UNL     1      -8.363  -2.154   0.188  0.00  0.00    +0.040 A 
ATOM     11  C   UNL     1      -7.894  -0.859   0.283  0.00  0.00    +0.029 A 
ATOM     12  F   UNL     1      -9.416  -3.859  -1.075  0.00  0.00    -0.205 F 
ENDBRANCH   5   6
BRANCH   1  13
ATOM     13  S   UNL     1      -4.833   0.677  -0.439  0.00  0.00    -0.076 S 
BRANCH  13  14
ATOM     14  C   UNL     1      -3.533   1.923  -0.260  0.00  0.00    +0.173 C 
BRANCH  14  16
ATOM     15  N   UNL     1      -1.073   1.974  -0.001  0.00  0.00    -0.283 N 
ATOM     16  C   UNL     1      -2.195   1.240  -0.144  0.00  0.00    +0.228 C 
ATOM     17  O   UNL     1      -2.127   0.029  -0.179  0.00  0.00    -0.275 OA
ATOM     18  H   UNL     1      -1.134   2.936   0.109  0.00  0.00    +0.155 HD
BRANCH  15  23
ATOM     19  C   UNL     1       4.006  -0.553  -0.059  0.00  0.00    +0.044 C 
ATOM     20  C   UNL     1       2.656   0.117  -0.042  0.00  0.00    -0.048 A 
ATOM     21  C   UNL     1       1.582  -0.479  -0.676  0.00  0.00    +0.005 A 
ATOM     22  C   UNL     1       0.344   0.133  -0.662  0.00  0.00    +0.026 A 
ATOM     23  C   UNL     1       0.178   1.349  -0.011  0.00  0.00    +0.064 A 
ATOM     24  C   UNL     1       1.259   1.944   0.625  0.00  0.00    +0.148 A 
ATOM     25  C   UNL     1       2.495   1.327   0.608  0.00  0.00    +0.038 A 
BRANCH  24  26
ATOM     26  N   UNL     1       1.088   3.240   1.319  0.00  0.00    +0.058 N 
ATOM     27  O   UNL     1       2.054   3.810   1.793  0.00  0.00    -0.126 OA
ATOM     28  O   UNL     1      -0.020   3.737   1.417  0.00  0.00    -0.126 OA
ENDBRANCH  24  26
ENDBRANCH  15  23
ENDBRANCH  14  16
ENDBRANCH  13  14
ENDBRANCH   1  13
BRANCH   4  29
ATOM     29  C   UNL     1      -9.782   2.570  -0.890  0.00  0.00    -0.001 C 
BRANCH  29  35
ATOM     30  C   UNL     1     -10.205   1.260   1.101  0.00  0.00    -0.078 C 
ATOM     31  C   UNL     1     -10.745   1.328   2.532  0.00  0.00    -0.019 C 
ATOM     32  C   UNL     1     -12.237   1.671   2.493  0.00  0.00    -0.004 C 
ATOM     33  C   UNL     1     -12.429   2.998   1.754  0.00  0.00    -0.019 C 
ATOM     34  C   UNL     1     -11.840   2.882   0.346  0.00  0.00    -0.078 C 
ATOM     35  N   UNL     1     -10.397   2.575   0.453  0.00  0.00    +0.384 N 
ATOM     36  H   UNL     1      -9.945   3.298   1.025  0.00  0.00    -0.081 HD
ENDBRANCH  29  35
ENDBRANCH   4  29
TORSDOF 8
