REMARK  Name = ZINC39466495
REMARK  7 active torsions:
REMARK  status: ('A' for Active; 'I' for Inactive)
REMARK    1  A    between atoms: C_1  and  C_2
REMARK    2  A    between atoms: C_2  and  O_3
REMARK    3  A    between atoms: O_3  and  C_4
REMARK    4  A    between atoms: C_16  and  C_17
REMARK    5  A    between atoms: C_17  and  C_18
REMARK    6  A    between atoms: P_26  and  C_29
REMARK    7  A    between atoms: C_29  and  C_30
REMARK                            x       y       z     vdW  Elec       q    Type
REMARK                         _______ _______ _______ _____ _____    ______ ____
ROOT
ATOM      1  C   UNL     1      -1.498  -1.848   0.006  0.00  0.00    +0.120 C 
ATOM      2  C   UNL     1      -0.428  -2.653  -0.003  0.00  0.00    +0.021 C 
ATOM      3  C   UNL     1      -0.644  -4.141   0.005  0.00  0.00    +0.008 C 
ATOM      4  C   UNL     1       0.573  -4.884   0.542  0.00  0.00    -0.046 C 
ATOM      5  N   UNL     1       0.333  -6.337   0.491  0.00  0.00    +0.397 N 
ATOM      6  C   UNL     1      -0.827  -6.716   1.297  0.00  0.00    -0.020 C 
ATOM      7  C   UNL     1      -2.087  -5.967   0.841  0.00  0.00    -0.003 C 
ATOM      8  C   UNL     1      -1.836  -4.464   0.915  0.00  0.00    +0.016 C 
ATOM      9  C   UNL     1      -3.032  -3.682   0.447  0.00  0.00    -0.016 C 
ATOM     10  C   UNL     1      -2.853  -2.435   0.016  0.00  0.00    -0.005 C 
ATOM     11  C   UNL     1      -1.138  -8.213   1.164  0.00  0.00    +0.156 C 
ATOM     12  O   UNL     1      -0.019  -8.977   1.650  0.00  0.00    -0.319 OA
ATOM     13  P   UNL     1       1.459  -8.599   1.084  0.00  0.00    +0.262 P 
ATOM     14  O   UNL     1       1.670  -9.210  -0.247  0.00  0.00    -0.274 OA
ATOM     15  N   UNL     1       1.474  -6.936   0.980  0.00  0.00    -0.291 NA
ATOM     16  H   UNL     1       2.249  -6.409   1.233  0.00  0.00    +0.111 HD
ATOM     17  H   UNL     1       0.187  -6.621  -0.466  0.00  0.00    -0.055 HD
ENDROOT
BRANCH   1  18
ATOM     18  O   UNL     1      -1.339  -0.499   0.012  0.00  0.00    -0.492 OA
BRANCH  18  20
ATOM     19  C   UNL     1      -0.019   1.526   0.010  0.00  0.00    +0.048 C 
ATOM     20  C   UNL     1       0.002  -0.004   0.002  0.00  0.00    +0.225 C 
ENDBRANCH  18  20
ENDBRANCH   1  18
BRANCH  10  21
ATOM     21  C   UNL     1      -4.031  -1.628  -0.465  0.00  0.00    +0.073 C 
BRANCH  21  22
ATOM     22  C   UNL     1      -4.551  -0.776   0.664  0.00  0.00    -0.043 A 
ATOM     23  C   UNL     1      -5.524  -1.270   1.512  0.00  0.00    +0.004 A 
ATOM     24  C   UNL     1      -6.000  -0.488   2.547  0.00  0.00    +0.000 A 
ATOM     25  C   UNL     1      -5.503   0.788   2.735  0.00  0.00    +0.000 A 
ATOM     26  C   UNL     1      -4.530   1.282   1.887  0.00  0.00    +0.000 A 
ATOM     27  C   UNL     1      -4.050   0.499   0.854  0.00  0.00    +0.004 A 
ENDBRANCH  21  22
ENDBRANCH  10  21
BRANCH  13  28
ATOM     28  C   UNL     1       2.744  -9.163   2.248  0.00  0.00    +0.147 C 
BRANCH  28  29
ATOM     29  C   UNL     1       2.648 -10.657   2.416  0.00  0.00    -0.037 A 
ATOM     30  C   UNL     1       1.841 -11.192   3.402  0.00  0.00    +0.004 A 
ATOM     31  C   UNL     1       1.753 -12.563   3.556  0.00  0.00    +0.000 A 
ATOM     32  C   UNL     1       2.473 -13.399   2.724  0.00  0.00    +0.000 A 
ATOM     33  C   UNL     1       3.281 -12.865   1.737  0.00  0.00    +0.000 A 
ATOM     34  C   UNL     1       3.365 -11.494   1.581  0.00  0.00    +0.004 A 
ENDBRANCH  28  29
ENDBRANCH  13  28
TORSDOF 6
