REMARK  Name = ZINC01812110
REMARK  8 active torsions:
REMARK  status: ('A' for Active; 'I' for Inactive)
REMARK    1  A    between atoms: C_1  and  C_2
REMARK    2  A    between atoms: C_2  and  O_3
REMARK    3  A    between atoms: O_3  and  C_4
REMARK    4  A    between atoms: C_7  and  C_10
REMARK    5  A    between atoms: C_21  and  C_25
REMARK    6  A    between atoms: C_28  and  O_31
REMARK    7  A    between atoms: O_31  and  C_32
REMARK    8  A    between atoms: C_32  and  C_33
REMARK                            x       y       z     vdW  Elec       q    Type
REMARK                         _______ _______ _______ _____ _____    ______ ____
ROOT
ATOM      1  C   UNL     1       1.332  -6.136  -2.114  0.00  0.00    +0.047 C 
ATOM      2  C   UNL     1       1.940  -6.868  -3.077  0.00  0.00    +0.023 C 
ATOM      3  C   UNL     1       1.681  -8.295  -2.677  0.00  0.00    +0.138 C 
ATOM      4  C   UNL     1       2.805  -9.261  -2.856  0.00  0.00    +0.018 A 
ATOM      5  C   UNL     1       3.641  -9.206  -3.949  0.00  0.00    +0.029 A 
ATOM      6  C   UNL     1       4.666 -10.126  -4.087  0.00  0.00    +0.042 A 
ATOM      7  C   UNL     1       4.848 -11.102  -3.122  0.00  0.00    +0.023 A 
ATOM      8  C   UNL     1       4.016 -11.158  -2.024  0.00  0.00    +0.047 A 
ATOM      9  C   UNL     1       2.987 -10.234  -1.875  0.00  0.00    +0.128 A 
ATOM     10  O   UNL     1       2.201 -10.297  -0.766  0.00  0.00    -0.468 OA
ATOM     11  C   UNL     1       1.096  -9.386  -0.635  0.00  0.00    +0.294 C 
ATOM     12  N   UNL     1       1.504  -8.122  -1.201  0.00  0.00    -0.175 NA
ATOM     13  N   UNL     1       0.749  -7.004  -1.161  0.00  0.00    -0.273 N 
ATOM     14 CL   UNL     1       5.719 -10.056  -5.465  0.00  0.00    -0.084 Cl
ATOM     15  H   UNL     1      -0.025  -6.834  -0.601  0.00  0.00    +0.167 HD
ENDROOT
BRANCH   1  19
ATOM     16  C   UNL     1       1.210  -1.889  -1.966  0.00  0.00    +0.121 A 
ATOM     17  C   UNL     1       0.597  -2.635  -0.968  0.00  0.00    +0.046 A 
ATOM     18  C   UNL     1       0.634  -4.012  -1.013  0.00  0.00    +0.013 A 
ATOM     19  C   UNL     1       1.289  -4.656  -2.063  0.00  0.00    -0.003 A 
ATOM     20  C   UNL     1       1.904  -3.904  -3.064  0.00  0.00    +0.013 A 
ATOM     21  C   UNL     1       1.858  -2.527  -3.015  0.00  0.00    +0.046 A 
BRANCH  16  22
ATOM     22  O   UNL     1       1.171  -0.531  -1.919  0.00  0.00    -0.492 OA
BRANCH  22  24
ATOM     23  C   UNL     1       0.550   1.584  -0.929  0.00  0.00    +0.048 C 
ATOM     24  C   UNL     1       0.488   0.060  -0.812  0.00  0.00    +0.225 C 
ENDBRANCH  22  24
ENDBRANCH  16  22
ENDBRANCH   1  19
BRANCH  11  25
ATOM     25  C   UNL     1      -0.098  -9.913  -1.389  0.00  0.00    +0.009 A 
ATOM     26  C   UNL     1      -0.119 -11.227  -1.817  0.00  0.00    +0.012 A 
ATOM     27  C   UNL     1      -1.212 -11.713  -2.509  0.00  0.00    +0.046 A 
ATOM     28  C   UNL     1      -2.289 -10.879  -2.774  0.00  0.00    +0.121 A 
ATOM     29  C   UNL     1      -2.265  -9.561  -2.344  0.00  0.00    +0.046 A 
ATOM     30  C   UNL     1      -1.173  -9.082  -1.648  0.00  0.00    +0.012 A 
BRANCH  28  31
ATOM     31  O   UNL     1      -3.365 -11.354  -3.455  0.00  0.00    -0.487 OA
BRANCH  31  32
ATOM     32  C   UNL     1      -4.437 -10.440  -3.693  0.00  0.00    +0.264 C 
BRANCH  32  33
ATOM     33  C   UNL     1      -5.534 -11.139  -4.455  0.00  0.00    -0.010 A 
ATOM     34  C   UNL     1      -5.524 -11.136  -5.837  0.00  0.00    +0.007 A 
ATOM     35  C   UNL     1      -6.530 -11.777  -6.537  0.00  0.00    +0.000 A 
ATOM     36  C   UNL     1      -7.544 -12.421  -5.854  0.00  0.00    +0.000 A 
ATOM     37  C   UNL     1      -7.553 -12.425  -4.471  0.00  0.00    +0.000 A 
ATOM     38  C   UNL     1      -6.545 -11.788  -3.772  0.00  0.00    +0.007 A 
ENDBRANCH  32  33
ENDBRANCH  31  32
ENDBRANCH  28  31
ENDBRANCH  11  25
TORSDOF 7
