REMARK  Name = ZINC63794316
REMARK  6 active torsions:
REMARK  status: ('A' for Active; 'I' for Inactive)
REMARK    1  A    between atoms: C_4  and  C_7
REMARK    2  A    between atoms: C_7  and  C_9
REMARK    3  A    between atoms: C_7  and  C_24
REMARK    4  A    between atoms: C_9  and  N_10
REMARK    5  A    between atoms: C_11  and  C_13
REMARK    6  A    between atoms: C_14  and  C_15
REMARK                            x       y       z     vdW  Elec       q    Type
REMARK                         _______ _______ _______ _____ _____    ______ ____
ROOT
ATOM      1  C   UNL     1       3.711  -0.707  -0.038  0.00  0.00    +0.064 C 
ENDROOT
BRANCH   1   2
ATOM      2  C   UNL     1       3.790  -1.566  -1.273  0.00  0.00    -0.033 C 
ATOM      3  C   UNL     1       4.716  -1.494  -2.256  0.00  0.00    -0.000 A 
ATOM      4  C   UNL     1       5.883  -0.628  -2.461  0.00  0.00    +0.010 A 
ATOM      5  C   UNL     1       6.640  -0.798  -3.569  0.00  0.00    +0.001 A 
ATOM      6  C   UNL     1       6.338  -1.778  -4.524  0.00  0.00    +0.002 A 
ATOM      7  C   UNL     1       5.284  -2.612  -4.405  0.00  0.00    +0.026 A 
ATOM      8  C   UNL     1       4.420  -2.522  -3.279  0.00  0.00    +0.043 A 
ATOM      9  N   UNL     1       3.352  -3.203  -2.942  0.00  0.00    -0.380 N 
ATOM     10  C   UNL     1       2.853  -2.687  -1.662  0.00  0.00    +0.145 C 
ATOM     11  H   UNL     1       2.959  -3.929  -3.451  0.00  0.00    +0.160 HD
ENDBRANCH   1   2
BRANCH   1  15
ATOM     12  C   UNL     1      -0.017   1.378   0.010  0.00  0.00    +0.000 A 
ATOM     13  C   UNL     1       1.171   2.086   0.002  0.00  0.00    +0.000 A 
ATOM     14  C   UNL     1       2.377   1.411  -0.013  0.00  0.00    +0.004 A 
ATOM     15  C   UNL     1       2.396   0.029  -0.020  0.00  0.00    -0.039 A 
ATOM     16  C   UNL     1       1.208  -0.679  -0.012  0.00  0.00    +0.004 A 
ATOM     17  C   UNL     1       0.002  -0.004   0.002  0.00  0.00    +0.000 A 
ENDBRANCH   1  15
BRANCH   1  18
ATOM     18  C   UNL     1       3.817  -1.592   1.206  0.00  0.00    +0.117 C 
BRANCH  18  19
ATOM     19  N   UNL     1       3.861  -0.748   2.403  0.00  0.00    -0.311 N 
ATOM     20  C   UNL     1       3.954  -1.314   3.623  0.00  0.00    +0.237 C 
ATOM     21  O   UNL     1       4.003  -2.525   3.730  0.00  0.00    -0.271 OA
ATOM     22  H   UNL     1       3.822   0.217   2.318  0.00  0.00    +0.149 HD
BRANCH  20  23
ATOM     23  C   UNL     1       3.998  -0.471   4.818  0.00  0.00    +0.068 C 
ATOM     24  C   UNL     1       4.092  -1.038   6.040  0.00  0.00    +0.013 C 
BRANCH  24  25
ATOM     25  C   UNL     1       4.136  -0.191   7.241  0.00  0.00    -0.021 A 
ATOM     26  C   UNL     1       4.074   1.202   7.120  0.00  0.00    +0.012 A 
ATOM     27  C   UNL     1       4.115   1.992   8.248  0.00  0.00    +0.050 A 
ATOM     28  C   UNL     1       4.216   1.412   9.506  0.00  0.00    +0.166 A 
ATOM     29  C   UNL     1       4.278   0.024   9.633  0.00  0.00    +0.167 A 
ATOM     30  C   UNL     1       4.233  -0.776   8.508  0.00  0.00    +0.057 A 
ATOM     31  O   UNL     1       4.374  -0.288  10.959  0.00  0.00    -0.453 OA
ATOM     32  C   UNL     1       4.782   0.930  11.611  0.00  0.00    +0.466 C 
ATOM     33  O   UNL     1       4.273   1.966  10.751  0.00  0.00    -0.453 OA
ENDBRANCH  24  25
ENDBRANCH  20  23
ENDBRANCH  18  19
ENDBRANCH   1  18
TORSDOF 6
