REMARK  Name = ZINC41584618
REMARK  9 active torsions:
REMARK  status: ('A' for Active; 'I' for Inactive)
REMARK    1  A    between atoms: C_1  and  O_2
REMARK    2  A    between atoms: O_2  and  C_3
REMARK    3  A    between atoms: C_6  and  O_35
REMARK    4  A    between atoms: C_7  and  C_9
REMARK    5  A    between atoms: C_16  and  O_34
REMARK    6  A    between atoms: C_17  and  C_20
REMARK    7  A    between atoms: C_20  and  N_21
REMARK    8  A    between atoms: C_26  and  C_28
REMARK    9  A    between atoms: O_35  and  C_36
REMARK                            x       y       z     vdW  Elec       q    Type
REMARK                         _______ _______ _______ _____ _____    ______ ____
ROOT
ATOM      1  C   UNL     1       1.525  -3.472  -2.352  0.00  0.00    +0.062 C 
ATOM      2  C   UNL     1       0.974  -4.266  -1.398  0.00  0.00    +0.176 C 
ATOM      3  C   UNL     1       1.021  -5.735  -1.358  0.00  0.00    +0.231 C 
ATOM      4  O   UNL     1       1.552  -6.487  -2.157  0.00  0.00    -0.283 OA
ATOM      5  C   UNL     1       0.282  -6.094  -0.134  0.00  0.00    +0.068 A 
ATOM      6  C   UNL     1      -0.031  -7.314   0.469  0.00  0.00    +0.019 A 
ATOM      7  C   UNL     1      -0.748  -7.334   1.631  0.00  0.00    +0.046 A 
ATOM      8  C   UNL     1      -1.168  -6.142   2.216  0.00  0.00    +0.122 A 
ATOM      9  C   UNL     1      -0.865  -4.925   1.628  0.00  0.00    +0.020 A 
ATOM     10  C   UNL     1      -0.135  -4.886   0.446  0.00  0.00    +0.144 A 
ATOM     11  O   UNL     1       0.288  -3.849  -0.308  0.00  0.00    -0.451 OA
ENDROOT
BRANCH   1  16
ATOM     12  C   UNL     1       0.663  -0.041  -1.106  0.00  0.00    +0.121 A 
ATOM     13  C   UNL     1       0.912   0.727  -2.238  0.00  0.00    +0.049 A 
ATOM     14  C   UNL     1       1.359   0.132  -3.402  0.00  0.00    +0.050 A 
ATOM     15  C   UNL     1       1.562  -1.238  -3.450  0.00  0.00    +0.128 A 
ATOM     16  C   UNL     1       1.313  -2.021  -2.311  0.00  0.00    +0.024 A 
ATOM     17  C   UNL     1       0.867  -1.407  -1.134  0.00  0.00    +0.057 A 
BRANCH  12  19
ATOM     18  C   UNL     1      -0.078   1.950  -0.038  0.00  0.00    +0.277 C 
ATOM     19  O   UNL     1       0.224   0.555   0.035  0.00  0.00    -0.495 OA
ENDBRANCH  12  19
BRANCH  15  20
ATOM     20  O   UNL     1       2.000  -1.821  -4.595  0.00  0.00    -0.495 OA
ATOM     21  C   UNL     1       2.232  -0.962  -5.713  0.00  0.00    +0.277 C 
ENDBRANCH  15  20
ENDBRANCH   1  16
BRANCH   8  22
ATOM     22  O   UNL     1      -1.881  -6.173   3.370  0.00  0.00    -0.506 OA
ATOM     23  H   UNL     1      -1.336  -6.146   4.169  0.00  0.00    +0.292 HD
ENDBRANCH   8  22
BRANCH   9  24
ATOM     24  C   UNL     1      -1.326  -3.642   2.272  0.00  0.00    -0.035 C 
BRANCH  24  25
ATOM     25  N   UNL     1      -2.721  -3.379   1.894  0.00  0.00    +0.387 N 
ATOM     26  C   UNL     1      -2.795  -3.123   0.450  0.00  0.00    -0.078 C 
ATOM     27  C   UNL     1      -4.255  -2.928   0.037  0.00  0.00    -0.019 C 
ATOM     28  C   UNL     1      -4.841  -1.736   0.800  0.00  0.00    -0.003 C 
ATOM     29  C   UNL     1      -4.691  -1.981   2.304  0.00  0.00    -0.011 C 
ATOM     30  C   UNL     1      -3.214  -2.211   2.633  0.00  0.00    -0.036 C 
ATOM     31  H   UNL     1      -3.287  -4.183   2.120  0.00  0.00    -0.080 HD
BRANCH  30  32
ATOM     32  C   UNL     1      -3.061  -2.452   4.113  0.00  0.00    -0.043 A 
ATOM     33  C   UNL     1      -2.492  -1.484   4.927  0.00  0.00    +0.005 A 
ATOM     34  C   UNL     1      -2.371  -1.750   6.282  0.00  0.00    +0.020 A 
ATOM     35  C   UNL     1      -2.820  -2.962   6.773  0.00  0.00    +0.111 A 
ATOM     36  N   UNL     1      -3.356  -3.858   5.969  0.00  0.00    -0.263 NA
ATOM     37  C   UNL     1      -3.492  -3.638   4.676  0.00  0.00    +0.112 A 
ENDBRANCH  30  32
ENDBRANCH  24  25
ENDBRANCH   9  24
TORSDOF 7
