REMARK  Name = ZINC39666327
REMARK  7 active torsions:
REMARK  status: ('A' for Active; 'I' for Inactive)
REMARK    1  A    between atoms: C_1  and  C_2
REMARK    2  A    between atoms: C_2  and  C_4
REMARK    3  A    between atoms: C_2  and  O_29
REMARK    4  A    between atoms: C_4  and  N_5
REMARK    5  A    between atoms: C_6  and  C_8
REMARK    6  A    between atoms: C_19  and  C_21
REMARK    7  A    between atoms: O_29  and  C_30
REMARK                            x       y       z     vdW  Elec       q    Type
REMARK                         _______ _______ _______ _____ _____    ______ ____
ROOT
ATOM      1  C   UNL     1      -3.635  -3.740   0.533  0.00  0.00    +0.100 C 
ATOM      2  C   UNL     1      -3.038  -4.503   1.737  0.00  0.00    +0.121 C 
ATOM      3  N   UNL     1      -4.167  -4.646   2.687  0.00  0.00    -0.296 N 
ATOM      4  C   UNL     1      -5.339  -4.933   1.825  0.00  0.00    +0.115 C 
ATOM      5  C   UNL     1      -5.144  -4.027   0.593  0.00  0.00    -0.004 C 
ATOM      6  C   UNL     1      -5.594  -4.753  -0.672  0.00  0.00    -0.010 C 
ATOM      7  C   UNL     1      -7.108  -4.976  -0.616  0.00  0.00    -0.082 C 
ATOM      8  N   UNL     1      -7.791  -3.682  -0.502  0.00  0.00    +0.379 N 
ATOM      9  C   UNL     1      -7.424  -3.033   0.763  0.00  0.00    -0.082 C 
ATOM     10  C   UNL     1      -5.923  -2.727   0.765  0.00  0.00    -0.010 C 
ATOM     11  C   UNL     1      -4.135  -4.540   4.030  0.00  0.00    +0.248 C 
ATOM     12  O   UNL     1      -3.106  -4.214   4.590  0.00  0.00    -0.270 OA
ATOM     13  H   UNL     1      -7.520  -3.091  -1.273  0.00  0.00    -0.086 HD
ATOM     14  H   UNL     1      -8.789  -3.827  -0.526  0.00  0.00    -0.086 HD
ENDROOT
BRANCH  11  15
ATOM     15  C   UNL     1      -5.350  -4.820   4.822  0.00  0.00    +0.055 A 
ATOM     16  C   UNL     1      -6.226  -5.834   4.427  0.00  0.00    +0.016 A 
ATOM     17  C   UNL     1      -7.359  -6.090   5.170  0.00  0.00    +0.021 A 
ATOM     18  C   UNL     1      -7.629  -5.346   6.307  0.00  0.00    +0.042 A 
ATOM     19  C   UNL     1      -6.766  -4.340   6.704  0.00  0.00    +0.040 A 
ATOM     20  C   UNL     1      -5.624  -4.077   5.973  0.00  0.00    +0.054 A 
ATOM     21 CL   UNL     1      -4.538  -2.820   6.476  0.00  0.00    -0.083 Cl
ATOM     22 CL   UNL     1      -9.058  -5.676   7.236  0.00  0.00    -0.083 Cl
ENDBRANCH  11  15
BRANCH   1  24
ATOM     23  N   UNL     1      -3.386  -1.472  -0.423  0.00  0.00    -0.312 N 
ATOM     24  C   UNL     1      -3.377  -2.261   0.669  0.00  0.00    +0.218 C 
ATOM     25  O   UNL     1      -3.160  -1.781   1.762  0.00  0.00    -0.275 OA
ATOM     26  H   UNL     1      -3.559  -1.856  -1.297  0.00  0.00    +0.149 HD
BRANCH  23  27
ATOM     27  C   UNL     1      -3.135  -0.035  -0.292  0.00  0.00    +0.148 C 
BRANCH  27  29
ATOM     28  C   UNL     1      -2.818   2.099  -1.551  0.00  0.00    +0.053 C 
ATOM     29  C   UNL     1      -3.202   0.623  -1.671  0.00  0.00    +0.187 C 
BRANCH  29  30
ATOM     30  O   UNL     1      -4.531   0.517  -2.185  0.00  0.00    -0.486 OA
BRANCH  30  31
ATOM     31  C   UNL     1      -4.677   0.576  -3.535  0.00  0.00    +0.139 A 
ATOM     32  C   UNL     1      -3.560   0.684  -4.351  0.00  0.00    +0.047 A 
ATOM     33  C   UNL     1      -3.711   0.744  -5.723  0.00  0.00    +0.004 A 
ATOM     34  C   UNL     1      -4.974   0.696  -6.284  0.00  0.00    +0.002 A 
ATOM     35  C   UNL     1      -6.089   0.588  -5.474  0.00  0.00    +0.023 A 
ATOM     36  C   UNL     1      -5.944   0.522  -4.101  0.00  0.00    +0.083 A 
ATOM     37 CL   UNL     1      -7.344   0.380  -3.085  0.00  0.00    -0.080 Cl
ENDBRANCH  30  31
ENDBRANCH  29  30
ENDBRANCH  27  29
ENDBRANCH  23  27
ENDBRANCH   1  24
TORSDOF 6
