REMARK  Name = ZINC13090102
REMARK  7 active torsions:
REMARK  status: ('A' for Active; 'I' for Inactive)
REMARK    1  A    between atoms: C_4  and  N_7
REMARK    2  A    between atoms: C_8  and  C_32
REMARK    3  A    between atoms: C_11  and  S_12
REMARK    4  A    between atoms: S_12  and  C_13
REMARK    5  A    between atoms: C_13  and  C_14
REMARK    6  A    between atoms: C_17  and  C_27
REMARK    7  A    between atoms: C_20  and  C_22
REMARK                            x       y       z     vdW  Elec       q    Type
REMARK                         _______ _______ _______ _____ _____    ______ ____
ROOT
ATOM      1  C   UNL     1      -0.823  -3.788   4.631  0.00  0.00    +0.246 C 
ATOM      2  O   UNL     1      -1.023  -2.665   5.044  0.00  0.00    -0.273 OA
ATOM      3  N   UNL     1      -1.149  -4.853   5.389  0.00  0.00    -0.181 N 
ATOM      4  C   UNL     1      -1.750  -4.796   6.731  0.00  0.00    +0.173 C 
ATOM      5  C   UNL     1      -1.906  -6.279   7.122  0.00  0.00    +0.093 C 
ATOM      6  C   UNL     1      -1.361  -7.030   5.928  0.00  0.00    +0.104 C 
ATOM      7  N   UNL     1      -0.976  -6.188   5.029  0.00  0.00    -0.178 NA
ENDROOT
BRANCH   6   8
ATOM      8  C   UNL     1      -1.288  -8.490   5.808  0.00  0.00    +0.150 A 
ATOM      9  C   UNL     1      -0.800  -9.183   4.738  0.00  0.00    +0.051 A 
ATOM     10  C   UNL     1      -0.923 -10.549   5.051  0.00  0.00    +0.042 A 
ATOM     11  C   UNL     1      -1.473 -10.626   6.280  0.00  0.00    +0.196 A 
ATOM     12  O   UNL     1      -1.687  -9.382   6.737  0.00  0.00    -0.462 OA
ENDBRANCH   6   8
BRANCH   4  13
ATOM     13  C   UNL     1      -3.093  -4.114   6.681  0.00  0.00    +0.128 A 
ATOM     14  C   UNL     1      -3.580  -3.268   7.606  0.00  0.00    +0.046 A 
ATOM     15  C   UNL     1      -4.862  -2.869   7.162  0.00  0.00    +0.041 A 
ATOM     16  C   UNL     1      -5.081  -3.495   5.992  0.00  0.00    +0.195 A 
ATOM     17  O   UNL     1      -4.004  -4.244   5.703  0.00  0.00    -0.466 OA
ENDBRANCH   4  13
BRANCH   1  18
ATOM     18  C   UNL     1      -0.210  -3.992   3.269  0.00  0.00    +0.175 C 
BRANCH  18  19
ATOM     19  S   UNL     1       0.110  -2.383   2.505  0.00  0.00    -0.078 S 
BRANCH  19  24
ATOM     20  N   UNL     1       1.237  -2.081  -0.021  0.00  0.00    -0.282 N 
ATOM     21  C   UNL     1       1.712  -2.899  -1.042  0.00  0.00    +0.156 A 
ATOM     22  C   UNL     1       1.534  -4.197  -0.611  0.00  0.00    +0.147 A 
ATOM     23  N   UNL     1       0.983  -4.157   0.600  0.00  0.00    -0.229 NA
ATOM     24  C   UNL     1       0.804  -2.905   0.971  0.00  0.00    +0.175 A 
BRANCH  20  28
ATOM     25  C   UNL     1       1.171   2.086   0.002  0.00  0.00    +0.000 A 
ATOM     26  C   UNL     1      -0.017   1.377   0.010  0.00  0.00    +0.002 A 
ATOM     27  C   UNL     1       0.002  -0.004   0.002  0.00  0.00    +0.026 A 
ATOM     28  C   UNL     1       1.215  -0.680  -0.013  0.00  0.00    +0.049 A 
ATOM     29  C   UNL     1       2.405   0.034  -0.021  0.00  0.00    +0.026 A 
ATOM     30  C   UNL     1       2.380   1.415  -0.013  0.00  0.00    +0.002 A 
ENDBRANCH  20  28
BRANCH  21  31
ATOM     31  C   UNL     1       2.268  -2.482  -2.277  0.00  0.00    +0.405 C 
ATOM     32  O   UNL     1       2.646  -3.310  -3.085  0.00  0.00    -0.239 OA
ATOM     33  O   UNL     1       2.377  -1.166  -2.557  0.00  0.00    -0.239 OA
ENDBRANCH  21  31
ENDBRANCH  19  24
ENDBRANCH  18  19
ENDBRANCH   1  18
TORSDOF 7
