REMARK  Name = ZINC16043513
REMARK  18 active torsions:
REMARK  status: ('A' for Active; 'I' for Inactive)
REMARK    1  A    between atoms: C_1  and  C_2
REMARK    2  A    between atoms: C_4  and  N_33
REMARK    3  A    between atoms: C_5  and  O_31
REMARK    4  A    between atoms: C_7  and  N_8
REMARK    5  A    between atoms: C_9  and  C_11
REMARK    6  A    between atoms: C_11  and  O_12
REMARK    7  A    between atoms: O_12  and  C_13
REMARK    8  A    between atoms: C_13  and  C_15
REMARK    9  A    between atoms: C_15  and  C_29
REMARK   10  A    between atoms: C_16  and  C_17
REMARK   11  A    between atoms: C_19  and  C_28
REMARK   12  A    between atoms: N_20  and  C_23
REMARK   13  A    between atoms: C_21  and  C_22
REMARK   14  A    between atoms: C_23  and  C_24
REMARK   15  A    between atoms: C_24  and  C_25
REMARK   16  A    between atoms: C_25  and  C_26
REMARK   17  A    between atoms: C_25  and  C_27
REMARK   18  A    between atoms: O_31  and  C_32
REMARK                            x       y       z     vdW  Elec       q    Type
REMARK                         _______ _______ _______ _____ _____    ______ ____
ROOT
ATOM      1  O   UNL     1      -0.739   2.579   1.051  0.00  0.00    -0.451 OA
ENDROOT
BRANCH   1   2
ATOM      2  C   UNL     1      -0.809   3.912   1.240  0.00  0.00    +0.350 C 
ATOM      3  O   UNL     1      -0.331   4.669   0.416  0.00  0.00    -0.244 OA
BRANCH   2   4
ATOM      4  C   UNL     1      -1.463   4.450   2.439  0.00  0.00    +0.136 C 
ATOM      5  C   UNL     1      -1.535   5.816   2.632  0.00  0.00    +0.035 C 
BRANCH   5   6
ATOM      6  C   UNL     1      -2.075   6.335   3.836  0.00  0.00    -0.003 A 
ATOM      7  C   UNL     1      -3.165   5.760   4.638  0.00  0.00    +0.030 A 
ATOM      8  C   UNL     1      -3.337   6.581   5.687  0.00  0.00    +0.016 A 
ATOM      9  N   UNL     1      -2.453   7.618   5.596  0.00  0.00    -0.348 N 
ATOM     10  C   UNL     1      -1.689   7.490   4.496  0.00  0.00    +0.023 A 
ATOM     11  C   UNL     1      -0.602   8.437   4.059  0.00  0.00    +0.064 C 
ATOM     12  C   UNL     1      -4.350   6.392   6.787  0.00  0.00    +0.063 C 
BRANCH   9  13
ATOM     13  C   UNL     1      -2.351   8.716   6.561  0.00  0.00    +0.122 C 
BRANCH  13  14
ATOM     14  C   UNL     1      -3.281   9.854   6.138  0.00  0.00    +0.024 C 
BRANCH  14  15
ATOM     15  C   UNL     1      -3.175  11.001   7.145  0.00  0.00    -0.016 C 
ATOM     16  C   UNL     1      -4.009  12.187   6.657  0.00  0.00    +0.007 C 
ATOM     17  C   UNL     1      -3.699  10.535   8.505  0.00  0.00    +0.007 C 
ENDBRANCH  14  15
ENDBRANCH  13  14
ENDBRANCH   9  13
ENDBRANCH   5   6
BRANCH   4  18
ATOM     18  C   UNL     1      -2.026   3.559   3.408  0.00  0.00    +0.106 C 
ATOM     19  N   UNL     1      -2.472   2.852   4.177  0.00  0.00    -0.191 NA
ENDBRANCH   4  18
ENDBRANCH   2   4
ENDBRANCH   1   2
BRANCH   1  20
ATOM     20  C   UNL     1      -0.078   2.118  -0.157  0.00  0.00    +0.328 C 
BRANCH  20  22
ATOM     21  N   UNL     1       0.465  -0.043  -1.232  0.00  0.00    -0.282 N 
ATOM     22  C   UNL     1      -0.095   0.612  -0.196  0.00  0.00    +0.255 C 
ATOM     23  O   UNL     1      -0.614  -0.012   0.706  0.00  0.00    -0.272 OA
ATOM     24  H   UNL     1       0.803   0.454  -1.994  0.00  0.00    +0.155 HD
BRANCH  21  31
ATOM     25  C   UNL     1       0.609  -1.417  -3.718  0.00  0.00    +0.046 C 
ATOM     26  C   UNL     1       0.631  -2.149  -2.402  0.00  0.00    -0.027 A 
ATOM     27  C   UNL     1       0.730  -3.527  -2.380  0.00  0.00    +0.041 A 
ATOM     28  C   UNL     1       0.745  -4.202  -1.174  0.00  0.00    +0.168 A 
ATOM     29  C   UNL     1       0.667  -3.498   0.019  0.00  0.00    +0.152 A 
ATOM     30  C   UNL     1       0.574  -2.115   0.001  0.00  0.00    +0.071 A 
ATOM     31  C   UNL     1       0.559  -1.438  -1.211  0.00  0.00    +0.040 A 
BRANCH  28  32
ATOM     32  N   UNL     1       0.844  -5.679  -1.155  0.00  0.00    +0.060 N 
ATOM     33  O   UNL     1       0.913  -6.298  -2.202  0.00  0.00    -0.126 OA
ATOM     34  O   UNL     1       0.858  -6.275  -0.093  0.00  0.00    -0.126 OA
ENDBRANCH  28  32
BRANCH  29  35
ATOM     35  O   UNL     1       0.682  -4.163   1.204  0.00  0.00    -0.493 OA
ATOM     36  C   UNL     1       0.599  -3.374   2.392  0.00  0.00    +0.277 C 
ENDBRANCH  29  35
ENDBRANCH  21  31
ENDBRANCH  20  22
ENDBRANCH   1  20
TORSDOF 12
