REMARK  Name = ZINC67166879
REMARK  4 active torsions:
REMARK  status: ('A' for Active; 'I' for Inactive)
REMARK    1  A    between atoms: C_1  and  C_2
REMARK    2  A    between atoms: C_3  and  C_17
REMARK    3  A    between atoms: N_6  and  C_7
REMARK    4  A    between atoms: N_19  and  C_20
REMARK                            x       y       z     vdW  Elec       q    Type
REMARK                         _______ _______ _______ _____ _____    ______ ____
ROOT
ATOM      1  C   UNL     1       0.006   1.505   0.009  0.00  0.00    +0.068 C 
ATOM      2  C   UNL     1       0.029  -0.002   0.001  0.00  0.00    +0.074 A 
ATOM      3  C   UNL     1       0.027  -0.812  -1.100  0.00  0.00    +0.170 A 
ATOM      4  N   UNL     1       0.052  -2.091  -0.688  0.00  0.00    -0.124 NA
ATOM      5  N   UNL     1       0.069  -2.129   0.599  0.00  0.00    -0.060 NA
ATOM      6  N   UNL     1       0.060  -0.813   1.081  0.00  0.00    -0.216 N 
ENDROOT
BRANCH   6   7
ATOM      7  C   UNL     1       0.077  -0.414   2.426  0.00  0.00    +0.071 A 
ATOM      8  C   UNL     1       0.751   0.741   2.800  0.00  0.00    +0.031 A 
ATOM      9  C   UNL     1       0.770   1.133   4.124  0.00  0.00    +0.051 A 
ATOM     10  C   UNL     1       0.116   0.375   5.084  0.00  0.00    +0.162 A 
ATOM     11  C   UNL     1      -0.562  -0.780   4.713  0.00  0.00    +0.164 A 
ATOM     12  C   UNL     1      -0.584  -1.171   3.383  0.00  0.00    +0.077 A 
ATOM     13  O   UNL     1      -1.216  -1.532   5.640  0.00  0.00    -0.485 OA
ATOM     14  C   UNL     1      -0.866  -1.312   7.011  0.00  0.00    +0.270 C 
ATOM     15  C   UNL     1      -0.828   0.201   7.260  0.00  0.00    +0.270 C 
ATOM     16  O   UNL     1       0.149   0.775   6.385  0.00  0.00    -0.485 OA
ENDBRANCH   6   7
BRANCH   3  17
ATOM     17  C   UNL     1       0.003  -0.358  -2.503  0.00  0.00    +0.270 C 
ATOM     18  O   UNL     1      -0.019   0.831  -2.757  0.00  0.00    -0.268 OA
ATOM     19  N   UNL     1       0.004  -1.262  -3.503  0.00  0.00    -0.278 N 
ATOM     20  H   UNL     1       0.087  -2.207  -3.303  0.00  0.00    +0.155 HD
BRANCH  19  21
ATOM     21  C   UNL     1      -0.114  -0.835  -4.831  0.00  0.00    +0.072 A 
ATOM     22  C   UNL     1       0.458   0.365  -5.230  0.00  0.00    +0.026 A 
ATOM     23  C   UNL     1       0.342   0.784  -6.541  0.00  0.00    +0.005 A 
ATOM     24  C   UNL     1      -0.345   0.010  -7.459  0.00  0.00    +0.041 A 
ATOM     25  C   UNL     1      -0.918  -1.188  -7.067  0.00  0.00    +0.160 A 
ATOM     26  C   UNL     1      -0.799  -1.616  -5.755  0.00  0.00    +0.179 A 
ATOM     27  F   UNL     1      -1.353  -2.787  -5.372  0.00  0.00    -0.201 F 
ATOM     28  F   UNL     1      -1.589  -1.942  -7.965  0.00  0.00    -0.202 F 
ENDBRANCH  19  21
ENDBRANCH   3  17
TORSDOF 3
