REMARK  Name = ZINC21873239
REMARK  9 active torsions:
REMARK  status: ('A' for Active; 'I' for Inactive)
REMARK    1  A    between atoms: C_1  and  C_2
REMARK    2  A    between atoms: C_2  and  C_24
REMARK    3  A    between atoms: C_7  and  C_20
REMARK    4  A    between atoms: N_11  and  C_12
REMARK    5  A    between atoms: C_12  and  C_13
REMARK    6  A    between atoms: C_13  and  C_14
REMARK    7  A    between atoms: C_20  and  O_22
REMARK    8  A    between atoms: O_22  and  C_23
REMARK    9  A    between atoms: N_26  and  C_27
REMARK                            x       y       z     vdW  Elec       q    Type
REMARK                         _______ _______ _______ _____ _____    ______ ____
ROOT
ATOM      1  C   UNL     1      -1.301  -0.054   4.032  0.00  0.00    +0.043 C 
ATOM      2  C   UNL     1      -0.215  -0.227   2.968  0.00  0.00    +0.129 C 
ATOM      3  C   UNL     1       1.005  -0.901   3.603  0.00  0.00    +0.158 C 
ATOM      4  N   UNL     1       1.695   0.064   4.459  0.00  0.00    -0.323 N 
ATOM      5  C   UNL     1       2.430  -0.107   5.560  0.00  0.00    +0.200 A 
ATOM      6  N   UNL     1       2.879   1.053   5.972  0.00  0.00    -0.228 NA
ATOM      7  C   UNL     1       2.442   2.026   5.145  0.00  0.00    +0.178 A 
ATOM      8  C   UNL     1       1.672   1.419   4.188  0.00  0.00    +0.138 A 
ATOM      9  C   UNL     1       0.928   1.948   3.033  0.00  0.00    +0.266 C 
ATOM     10  O   UNL     1       1.047   3.102   2.667  0.00  0.00    -0.268 OA
ATOM     11  N   UNL     1       0.102   1.079   2.401  0.00  0.00    -0.280 N 
ENDROOT
BRANCH   2  12
ATOM     12  C   UNL     1      -0.748  -1.116   1.873  0.00  0.00    +0.238 C 
ATOM     13  O   UNL     1      -1.938  -1.334   1.795  0.00  0.00    -0.273 OA
ATOM     14  N   UNL     1       0.099  -1.668   0.982  0.00  0.00    -0.311 N 
ATOM     15  H   UNL     1       1.185  -1.547   1.107  0.00  0.00    +0.149 HD
BRANCH  14  16
ATOM     16  C   UNL     1      -0.428  -2.429  -0.154  0.00  0.00    +0.073 C 
ATOM     17  C   UNL     1      -0.777  -3.855   0.320  0.00  0.00    +0.022 C 
ATOM     18  C   UNL     1      -1.759  -4.454  -0.652  0.00  0.00    +0.002 C 
ATOM     19  C   UNL     1      -1.067  -5.295  -1.742  0.00  0.00    +0.000 C 
ATOM     20  C   UNL     1       0.217  -4.637  -2.280  0.00  0.00    +0.000 C 
ATOM     21  C   UNL     1       0.061  -3.154  -2.487  0.00  0.00    +0.002 C 
ATOM     22  C   UNL     1       0.561  -2.428  -1.221  0.00  0.00    +0.022 C 
ENDBRANCH  14  16
ENDBRANCH   2  12
BRANCH   7  23
ATOM     23  C   UNL     1       2.737   3.470   5.252  0.00  0.00    +0.360 C 
ATOM     24  O   UNL     1       2.278   4.245   4.437  0.00  0.00    -0.243 OA
BRANCH  23  25
ATOM     25  O   UNL     1       3.515   3.926   6.253  0.00  0.00    -0.463 OA
ATOM     26  C   UNL     1       3.763   5.356   6.296  0.00  0.00    +0.280 C 
ENDBRANCH  23  25
ENDBRANCH   7  23
BRANCH  11  27
ATOM     27  C   UNL     1      -0.492   1.464   1.119  0.00  0.00    +0.113 C 
BRANCH  27  28
ATOM     28  C   UNL     1       0.505   1.187  -0.009  0.00  0.00    +0.049 C 
BRANCH  28  29
ATOM     29  C   UNL     1      -0.055   1.698  -1.311  0.00  0.00    -0.072 C 
ATOM     30  C   UNL     1       0.314   2.872  -1.712  0.00  0.00    -0.028 C 
ATOM     31  C   UNL     1      -0.165   3.517  -2.979  0.00  0.00    +0.027 C 
ATOM     32  C   UNL     1      -0.778   2.466  -3.906  0.00  0.00    +0.004 C 
ATOM     33  C   UNL     1      -1.780   1.631  -3.099  0.00  0.00    +0.005 C 
ATOM     34  C   UNL     1      -1.001   0.811  -2.066  0.00  0.00    +0.030 C 
ENDBRANCH  28  29
ENDBRANCH  27  28
ENDBRANCH  11  27
TORSDOF 7
