REMARK  Name = ZINC35485751
REMARK  6 active torsions:
REMARK  status: ('A' for Active; 'I' for Inactive)
REMARK    1  A    between atoms: C_1  and  C_2
REMARK    2  A    between atoms: C_2  and  O_3
REMARK    3  A    between atoms: O_3  and  C_4
REMARK    4  A    between atoms: C_6  and  C_11
REMARK    5  A    between atoms: C_9  and  O_10
REMARK    6  A    between atoms: C_30  and  C_32
REMARK                            x       y       z     vdW  Elec       q    Type
REMARK                         _______ _______ _______ _____ _____    ______ ____
ROOT
ATOM      1  C   UNL     1      -0.229  -4.969   0.477  0.00  0.00    +0.152 C 
ATOM      2  C   UNL     1      -1.538  -5.510   0.005  0.00  0.00    +0.072 A 
ATOM      3  C   UNL     1      -2.797  -4.837  -0.333  0.00  0.00    +0.199 A 
ATOM      4  O   UNL     1      -2.900  -3.627  -0.433  0.00  0.00    -0.287 OA
ATOM      5  C   UNL     1      -3.933  -5.771  -0.540  0.00  0.00    +0.065 A 
ATOM      6  C   UNL     1      -5.233  -5.282  -0.669  0.00  0.00    +0.030 A 
ATOM      7  C   UNL     1      -6.276  -6.163  -0.856  0.00  0.00    +0.019 A 
ATOM      8  C   UNL     1      -6.030  -7.529  -0.913  0.00  0.00    +0.019 A 
ATOM      9  C   UNL     1      -4.752  -8.022  -0.787  0.00  0.00    +0.048 A 
ATOM     10  C   UNL     1      -3.679  -7.151  -0.601  0.00  0.00    +0.140 A 
ATOM     11  O   UNL     1      -2.430  -7.661  -0.491  0.00  0.00    -0.450 OA
ATOM     12  C   UNL     1      -1.420  -6.868  -0.084  0.00  0.00    +0.199 A 
ATOM     13  C   UNL     1      -0.056  -7.241   0.328  0.00  0.00    +0.289 C 
ATOM     14  O   UNL     1       0.374  -8.377   0.365  0.00  0.00    -0.266 OA
ATOM     15  N   UNL     1       0.648  -6.137   0.658  0.00  0.00    -0.230 N 
ATOM     16  C   UNL     1       1.967  -6.108   1.091  0.00  0.00    +0.191 A 
ATOM     17  N   UNL     1       2.729  -5.079   1.439  0.00  0.00    -0.125 NA
ATOM     18  N   UNL     1       3.923  -5.232   1.814  0.00  0.00    -0.145 NA
ATOM     19  C   UNL     1       4.490  -6.421   1.884  0.00  0.00    +0.101 A 
ATOM     20  S   UNL     1       3.126  -7.449   1.347  0.00  0.00    -0.035 S 
ATOM     21  C   UNL     1       5.886  -6.805   2.303  0.00  0.00    +0.075 C 
ATOM     22 BR   UNL     1      -8.042  -5.512  -1.034  0.00  0.00    -0.050 Br
ENDROOT
BRANCH   1  25
ATOM     23  C   UNL     1       0.777  -1.811  -1.336  0.00  0.00    +0.162 A 
ATOM     24  C   UNL     1       0.243  -2.669  -0.388  0.00  0.00    +0.055 A 
ATOM     25  C   UNL     1       0.352  -4.037  -0.555  0.00  0.00    -0.018 A 
ATOM     26  C   UNL     1       0.992  -4.552  -1.667  0.00  0.00    +0.009 A 
ATOM     27  C   UNL     1       1.526  -3.702  -2.616  0.00  0.00    +0.049 A 
ATOM     28  C   UNL     1       1.416  -2.330  -2.458  0.00  0.00    +0.158 A 
BRANCH  28  29
ATOM     29  O   UNL     1       1.936  -1.492  -3.394  0.00  0.00    -0.503 OA
ATOM     30  H   UNL     1       2.856  -1.241  -3.231  0.00  0.00    +0.292 HD
ENDBRANCH  28  29
BRANCH  23  31
ATOM     31  O   UNL     1       0.671  -0.465  -1.174  0.00  0.00    -0.489 OA
BRANCH  31  33
ATOM     32  C   UNL     1      -0.019   1.526   0.010  0.00  0.00    +0.048 C 
ATOM     33  C   UNL     1       0.002  -0.004   0.002  0.00  0.00    +0.226 C 
ENDBRANCH  31  33
ENDBRANCH  23  31
ENDBRANCH   1  25
TORSDOF 4
