REMARK  Name = ZINC16565011
REMARK  7 active torsions:
REMARK  status: ('A' for Active; 'I' for Inactive)
REMARK    1  A    between atoms: C_1  and  C_2
REMARK    2  A    between atoms: C_2  and  C_4
REMARK    3  A    between atoms: C_2  and  N_11
REMARK    4  A    between atoms: C_12  and  C_14
REMARK    5  A    between atoms: C_14  and  N_15
REMARK    6  A    between atoms: N_18  and  C_21
REMARK    7  A    between atoms: C_26  and  N_27
REMARK                            x       y       z     vdW  Elec       q    Type
REMARK                         _______ _______ _______ _____ _____    ______ ____
ROOT
ATOM      1  N   UNL     1      -0.242  -1.150  -4.714  0.00  0.00    -0.291 NA
ATOM      2  C   UNL     1      -0.711   0.195  -5.074  0.00  0.00    +0.104 C 
ATOM      3  C   UNL     1      -1.833   0.080  -6.112  0.00  0.00    +0.120 C 
ATOM      4  N   UNL     1      -1.346  -0.732  -7.238  0.00  0.00    -0.326 N 
ATOM      5  C   UNL     1      -0.736  -2.037  -6.943  0.00  0.00    +0.120 C 
ATOM      6  C   UNL     1       0.343  -1.839  -5.872  0.00  0.00    +0.104 C 
ENDROOT
BRANCH   4   7
ATOM      7  C   UNL     1      -1.461  -0.275  -8.553  0.00  0.00    +0.060 A 
ATOM      8  C   UNL     1      -0.438   0.472  -9.123  0.00  0.00    +0.025 A 
ATOM      9  C   UNL     1      -0.554   0.922 -10.423  0.00  0.00    +0.002 A 
ATOM     10  C   UNL     1      -1.688   0.629 -11.159  0.00  0.00    +0.002 A 
ATOM     11  C   UNL     1      -2.709  -0.114 -10.595  0.00  0.00    +0.034 A 
ATOM     12  C   UNL     1      -2.596  -0.572  -9.296  0.00  0.00    +0.147 A 
BRANCH  12  13
ATOM     13  N   UNL     1      -3.687  -1.372  -8.696  0.00  0.00    +0.058 N 
ATOM     14  O   UNL     1      -4.675  -1.630  -9.343  0.00  0.00    -0.126 OA
ATOM     15  O   UNL     1      -3.590  -1.768  -7.558  0.00  0.00    -0.126 OA
ENDBRANCH  12  13
ENDBRANCH   4   7
BRANCH   1  16
ATOM     16  C   UNL     1       0.712  -1.094  -3.598  0.00  0.00    +0.180 C 
BRANCH  16  18
ATOM     17  N   UNL     1       0.688  -0.476  -1.203  0.00  0.00    -0.308 N 
ATOM     18  C   UNL     1       0.006  -0.608  -2.358  0.00  0.00    +0.228 C 
ATOM     19  O   UNL     1      -1.175  -0.336  -2.400  0.00  0.00    -0.274 OA
ATOM     20  H   UNL     1       1.632  -0.695  -1.170  0.00  0.00    +0.149 HD
BRANCH  17  22
ATOM     21  C   UNL     1      -0.019   1.526   0.010  0.00  0.00    +0.033 C 
ATOM     22  C   UNL     1       0.002  -0.004   0.002  0.00  0.00    +0.100 C 
BRANCH  22  23
ATOM     23  C   UNL     1       0.731  -0.503   1.223  0.00  0.00    -0.027 A 
ATOM     24  C   UNL     1       2.113  -0.514   1.246  0.00  0.00    +0.006 A 
ATOM     25  C   UNL     1       2.782  -0.971   2.366  0.00  0.00    +0.015 A 
ATOM     26  C   UNL     1       2.068  -1.418   3.463  0.00  0.00    +0.018 A 
ATOM     27  C   UNL     1       0.685  -1.408   3.439  0.00  0.00    +0.015 A 
ATOM     28  C   UNL     1       0.017  -0.945   2.321  0.00  0.00    +0.006 A 
ATOM     29 BR   UNL     1       2.983  -2.045   4.995  0.00  0.00    -0.050 Br
ENDBRANCH  22  23
ENDBRANCH  17  22
ENDBRANCH  16  18
ENDBRANCH   1  16
TORSDOF 6
