REMARK  Name = ZINC27027451
REMARK  4 active torsions:
REMARK  status: ('A' for Active; 'I' for Inactive)
REMARK    1  A    between atoms: C_4  and  C_7
REMARK    2  A    between atoms: C_11  and  C_12
REMARK    3  A    between atoms: N_14  and  C_15
REMARK    4  A    between atoms: C_22  and  C_28
REMARK                            x       y       z     vdW  Elec       q    Type
REMARK                         _______ _______ _______ _____ _____    ______ ____
ROOT
ATOM      1  C   UNL     1       7.217  -0.049  -0.414  0.00  0.00    +0.018 A 
ATOM      2  C   UNL     1       8.135  -1.057  -0.621  0.00  0.00    +0.004 A 
ATOM      3  C   UNL     1       7.455  -2.236  -0.390  0.00  0.00    +0.123 A 
ATOM      4  N   UNL     1       6.150  -2.037  -0.167  0.00  0.00    -0.295 N 
ATOM      5  C   UNL     1       5.987  -0.664  -0.089  0.00  0.00    +0.118 A 
ATOM      6  C   UNL     1       5.592  -3.303  -0.176  0.00  0.00    +0.119 A 
ATOM      7  C   UNL     1       6.574  -4.226  -0.357  0.00  0.00    +0.067 A 
ATOM      8  N   UNL     1       7.776  -3.562  -0.425  0.00  0.00    -0.325 N 
ATOM      9  C   UNL     1       9.179  -4.019  -0.372  0.00  0.00    +0.124 C 
ATOM     10  C   UNL     1       9.891  -3.088   0.618  0.00  0.00    +0.022 C 
ATOM     11  C   UNL     1      10.411  -1.759   0.052  0.00  0.00    +0.006 C 
ATOM     12  C   UNL     1       9.573  -1.147  -1.058  0.00  0.00    +0.039 C 
ENDROOT
BRANCH   7  13
ATOM     13  C   UNL     1       6.382  -5.689  -0.461  0.00  0.00    +0.000 A 
ATOM     14  C   UNL     1       7.405  -6.496  -0.961  0.00  0.00    +0.011 A 
ATOM     15  C   UNL     1       7.223  -7.860  -1.050  0.00  0.00    +0.016 A 
ATOM     16  C   UNL     1       6.024  -8.429  -0.655  0.00  0.00    +0.018 A 
ATOM     17  C   UNL     1       5.004  -7.633  -0.162  0.00  0.00    +0.016 A 
ATOM     18  C   UNL     1       5.176  -6.268  -0.063  0.00  0.00    +0.011 A 
ATOM     19 BR   UNL     1       5.779 -10.299  -0.788  0.00  0.00    -0.050 Br
ENDBRANCH   7  13
BRANCH   1  23
ATOM     20  C   UNL     1       7.954   4.128  -0.692  0.00  0.00    +0.000 A 
ATOM     21  C   UNL     1       7.617   3.568   0.527  0.00  0.00    +0.001 A 
ATOM     22  C   UNL     1       7.377   2.212   0.624  0.00  0.00    +0.008 A 
ATOM     23  C   UNL     1       7.474   1.407  -0.511  0.00  0.00    -0.015 A 
ATOM     24  C   UNL     1       7.818   1.977  -1.736  0.00  0.00    +0.008 A 
ATOM     25  C   UNL     1       8.051   3.335  -1.821  0.00  0.00    +0.001 A 
ENDBRANCH   1  23
BRANCH   5  26
ATOM     26  C   UNL     1       4.793   0.007   0.251  0.00  0.00    +0.266 C 
ATOM     27  O   UNL     1       4.768   1.225   0.287  0.00  0.00    -0.268 OA
ATOM     28  N   UNL     1       3.680  -0.698   0.535  0.00  0.00    -0.280 N 
ATOM     29  H   UNL     1       3.723  -1.796   0.582  0.00  0.00    +0.155 HD
BRANCH  28  30
ATOM     30  C   UNL     1       2.473  -0.035   0.771  0.00  0.00    +0.034 A 
ATOM     31  C   UNL     1       2.187   1.149   0.103  0.00  0.00    +0.023 A 
ATOM     32  C   UNL     1       0.993   1.802   0.338  0.00  0.00    +0.002 A 
ATOM     33  C   UNL     1       0.082   1.279   1.237  0.00  0.00    +0.000 A 
ATOM     34  C   UNL     1       0.363   0.100   1.904  0.00  0.00    +0.002 A 
ATOM     35  C   UNL     1       1.556  -0.558   1.673  0.00  0.00    +0.023 A 
ENDBRANCH  28  30
ENDBRANCH   5  26
TORSDOF 4
