REMARK  Name = ZINC36242380
REMARK  6 active torsions:
REMARK  status: ('A' for Active; 'I' for Inactive)
REMARK    1  A    between atoms: C_1  and  C_2
REMARK    2  A    between atoms: C_5  and  N_9
REMARK    3  A    between atoms: N_11  and  C_25
REMARK    4  A    between atoms: C_15  and  C_16
REMARK    5  A    between atoms: C_19  and  O_23
REMARK    6  A    between atoms: C_28  and  C_32
REMARK                            x       y       z     vdW  Elec       q    Type
REMARK                         _______ _______ _______ _____ _____    ______ ____
ROOT
ATOM      1  N   UNL     1      -0.190  -4.623   0.414  0.00  0.00    -0.225 NA
ATOM      2  C   UNL     1       0.756  -5.166   1.145  0.00  0.00    +0.173 C 
ATOM      3  N   UNL     1       1.021  -6.505   1.350  0.00  0.00    -0.214 N 
ATOM      4  C   UNL     1       2.024  -6.881   2.125  0.00  0.00    +0.263 C 
ATOM      5  O   UNL     1       2.273  -8.057   2.317  0.00  0.00    -0.269 OA
ATOM      6  C   UNL     1       2.829  -5.812   2.746  0.00  0.00    +0.078 C 
ATOM      7  C   UNL     1       3.901  -5.912   3.573  0.00  0.00    +0.028 C 
ATOM      8  S   UNL     1       2.018  -4.352   2.111  0.00  0.00    -0.048 S 
ENDROOT
BRANCH   1  13
ATOM      9  C   UNL     1      -0.611   0.996   0.054  0.00  0.00    +0.045 C 
ATOM     10  C   UNL     1      -0.498  -0.504   0.151  0.00  0.00    -0.032 A 
ATOM     11  C   UNL     1      -0.599  -1.277  -0.993  0.00  0.00    +0.007 A 
ATOM     12  C   UNL     1      -0.497  -2.650  -0.912  0.00  0.00    +0.028 A 
ATOM     13  C   UNL     1      -0.292  -3.261   0.327  0.00  0.00    +0.068 A 
ATOM     14  C   UNL     1      -0.191  -2.476   1.478  0.00  0.00    +0.048 A 
ATOM     15  C   UNL     1      -0.289  -1.102   1.382  0.00  0.00    +0.046 A 
ATOM     16 CL   UNL     1      -0.158  -0.123   2.809  0.00  0.00    -0.083 Cl
ENDBRANCH   1  13
BRANCH   3  17
ATOM     17  C   UNL     1       0.220  -7.473   0.732  0.00  0.00    +0.045 A 
ATOM     18  C   UNL     1      -0.472  -8.399   1.503  0.00  0.00    +0.024 A 
ATOM     19  C   UNL     1      -1.262  -9.353   0.891  0.00  0.00    +0.006 A 
ATOM     20  C   UNL     1      -1.364  -9.388  -0.487  0.00  0.00    -0.032 A 
ATOM     21  C   UNL     1      -0.676  -8.467  -1.258  0.00  0.00    +0.046 A 
ATOM     22  C   UNL     1       0.111  -7.506  -0.651  0.00  0.00    +0.044 A 
ATOM     23 CL   UNL     1      -0.807  -8.515  -2.989  0.00  0.00    -0.083 Cl
ATOM     24  C   UNL     1      -2.226 -10.430  -1.151  0.00  0.00    +0.045 C 
ENDBRANCH   3  17
BRANCH   7  25
ATOM     25  C   UNL     1       4.506  -7.223   3.836  0.00  0.00    -0.022 A 
ATOM     26  C   UNL     1       4.655  -8.150   2.797  0.00  0.00    +0.011 A 
ATOM     27  C   UNL     1       5.224  -9.378   3.049  0.00  0.00    +0.047 A 
ATOM     28  C   UNL     1       5.649  -9.700   4.332  0.00  0.00    +0.135 A 
ATOM     29  C   UNL     1       5.503  -8.784   5.369  0.00  0.00    +0.083 A 
ATOM     30  C   UNL     1       4.941  -7.550   5.126  0.00  0.00    +0.031 A 
ATOM     31 CL   UNL     1       6.036  -9.195   6.969  0.00  0.00    -0.080 Cl
BRANCH  28  32
ATOM     32  O   UNL     1       6.209 -10.914   4.575  0.00  0.00    -0.505 OA
ATOM     33  H   UNL     1       7.169 -10.933   4.464  0.00  0.00    +0.292 HD
ENDBRANCH  28  32
ENDBRANCH   7  25
TORSDOF 4
