REMARK  Name = ZINC13536377
REMARK  9 active torsions:
REMARK  status: ('A' for Active; 'I' for Inactive)
REMARK    1  A    between atoms: C_1  and  C_2
REMARK    2  A    between atoms: C_2  and  O_3
REMARK    3  A    between atoms: O_3  and  C_4
REMARK    4  A    between atoms: C_4  and  C_6
REMARK    5  A    between atoms: C_10  and  N_11
REMARK    6  A    between atoms: C_12  and  C_33
REMARK    7  A    between atoms: C_14  and  C_17
REMARK    8  A    between atoms: C_15  and  C_16
REMARK    9  A    between atoms: N_23  and  C_26
REMARK                            x       y       z     vdW  Elec       q    Type
REMARK                         _______ _______ _______ _____ _____    ______ ____
ROOT
ATOM      1  N   UNL     1      -0.256  -2.478  -3.751  0.00  0.00    -0.311 N 
ATOM      2  C   UNL     1      -0.981  -2.445  -2.590  0.00  0.00    +0.022 A 
ATOM      3  C   UNL     1      -2.287  -2.356  -2.886  0.00  0.00    +0.031 A 
ATOM      4  C   UNL     1      -2.380  -2.331  -4.354  0.00  0.00    -0.003 A 
ATOM      5  C   UNL     1      -1.075  -2.405  -4.818  0.00  0.00    +0.029 A 
ATOM      6  C   UNL     1      -0.649  -2.406  -6.264  0.00  0.00    +0.064 C 
ATOM      7  C   UNL     1      -0.403  -2.502  -1.199  0.00  0.00    +0.064 C 
ENDROOT
BRANCH   4   8
ATOM      8  C   UNL     1      -3.559  -2.244  -5.132  0.00  0.00    +0.028 C 
ATOM      9  C   UNL     1      -4.546  -1.332  -4.795  0.00  0.00    +0.102 C 
ATOM     10  C   UNL     1      -5.869  -1.346  -5.452  0.00  0.00    +0.276 C 
ATOM     11  N   UNL     1      -6.779  -0.432  -5.075  0.00  0.00    -0.123 NA
ATOM     12  C   UNL     1      -6.524   0.460  -4.151  0.00  0.00    +0.336 C 
ATOM     13  O   UNL     1      -7.494   1.339  -3.833  0.00  0.00    -0.250 OA
ATOM     14  N   UNL     1      -5.338   0.547  -3.494  0.00  0.00    -0.217 N 
ATOM     15  C   UNL     1      -4.327  -0.306  -3.759  0.00  0.00    +0.259 C 
ATOM     16  O   UNL     1      -3.267  -0.229  -3.166  0.00  0.00    -0.269 OA
ATOM     17  O   UNL     1      -6.129  -2.167  -6.316  0.00  0.00    -0.268 OA
BRANCH  14  18
ATOM     18  C   UNL     1      -5.156   1.584  -2.475  0.00  0.00    +0.086 C 
ATOM     19  C   UNL     1      -6.191   1.395  -1.364  0.00  0.00    +0.023 C 
ATOM     20  C   UNL     1      -6.000   2.478  -0.300  0.00  0.00    +0.002 C 
ATOM     21  C   UNL     1      -6.182   3.857  -0.937  0.00  0.00    +0.000 C 
ATOM     22  C   UNL     1      -5.148   4.046  -2.048  0.00  0.00    +0.002 C 
ATOM     23  C   UNL     1      -5.338   2.963  -3.112  0.00  0.00    +0.023 C 
ENDBRANCH  14  18
ENDBRANCH   4   8
BRANCH   1  28
ATOM     24  C   UNL     1       1.891  -3.556  -4.421  0.00  0.00    +0.093 A 
ATOM     25  C   UNL     1       3.334  -3.413  -4.359  0.00  0.00    -0.021 A 
ATOM     26  C   UNL     1       3.753  -2.311  -3.700  0.00  0.00    -0.004 A 
ATOM     27  S   UNL     1       2.265  -1.502  -3.189  0.00  0.00    -0.075 S 
ATOM     28  C   UNL     1       1.129  -2.567  -3.819  0.00  0.00    +0.099 A 
ATOM     29  C   UNL     1       5.170  -1.886  -3.465  0.00  0.00    +0.043 C 
ATOM     30  C   UNL     1       6.086  -3.084  -3.757  0.00  0.00    +0.005 C 
ATOM     31  C   UNL     1       5.684  -3.701  -5.099  0.00  0.00    +0.005 C 
ATOM     32  C   UNL     1       4.326  -4.394  -4.968  0.00  0.00    +0.037 C 
BRANCH  24  33
ATOM     33  C   UNL     1       1.265  -4.696  -5.098  0.00  0.00    +0.342 C 
ATOM     34  O   UNL     1       1.103  -4.673  -6.304  0.00  0.00    -0.245 OA
BRANCH  33  35
ATOM     35  O   UNL     1       0.869  -5.769  -4.385  0.00  0.00    -0.461 OA
BRANCH  35  37
ATOM     36  C   UNL     1       0.087  -8.045  -4.159  0.00  0.00    +0.048 C 
ATOM     37  C   UNL     1       0.370  -6.889  -5.120  0.00  0.00    +0.229 C 
ENDBRANCH  35  37
ENDBRANCH  33  35
ENDBRANCH  24  33
ENDBRANCH   1  28
TORSDOF 6
