REMARK  Name = ZINC43669219
REMARK  7 active torsions:
REMARK  status: ('A' for Active; 'I' for Inactive)
REMARK    1  A    between atoms: C_1  and  C_2
REMARK    2  A    between atoms: C_5  and  C_11
REMARK    3  A    between atoms: C_7  and  N_8
REMARK    4  A    between atoms: C_11  and  C_13
REMARK    5  A    between atoms: C_11  and  N_14
REMARK    6  A    between atoms: C_15  and  N_21
REMARK    7  A    between atoms: C_17  and  C_19
REMARK                            x       y       z     vdW  Elec       q    Type
REMARK                         _______ _______ _______ _____ _____    ______ ____
ROOT
ATOM      1  C   UNL     1       0.578  -4.220  -0.099  0.00  0.00    +0.136 C 
ATOM      2  C   UNL     1       1.736  -4.481  -1.065  0.00  0.00    +0.038 C 
ENDROOT
BRANCH   1   7
ATOM      3  C   UNL     1      -0.537   1.447   0.088  0.00  0.00    +0.046 C 
ATOM      4  C   UNL     1      -0.246  -0.031   0.039  0.00  0.00    -0.020 A 
ATOM      5  C   UNL     1      -0.347  -0.716  -1.157  0.00  0.00    +0.006 A 
ATOM      6  C   UNL     1      -0.080  -2.071  -1.202  0.00  0.00    +0.006 A 
ATOM      7  C   UNL     1       0.288  -2.742  -0.051  0.00  0.00    -0.021 A 
ATOM      8  C   UNL     1       0.390  -2.057   1.145  0.00  0.00    +0.038 A 
ATOM      9  C   UNL     1       0.127  -0.700   1.190  0.00  0.00    +0.129 A 
BRANCH   9  10
ATOM     10  N   UNL     1       0.241   0.035   2.470  0.00  0.00    +0.057 N 
ATOM     11  O   UNL     1       0.674   1.163   2.482  0.00  0.00    -0.126 OA
ATOM     12  O   UNL     1      -0.099  -0.494   3.502  0.00  0.00    -0.126 OA
ENDBRANCH   9  10
ENDBRANCH   1   7
BRANCH   1  13
ATOM     13  N   UNL     1      -0.614  -4.936  -0.560  0.00  0.00    -0.243 N 
ATOM     14  C   UNL     1      -1.293  -5.887   0.131  0.00  0.00    +0.129 A 
ATOM     15  C   UNL     1      -2.332  -6.296  -0.649  0.00  0.00    +0.075 A 
ATOM     16  C   UNL     1      -2.280  -5.574  -1.844  0.00  0.00    +0.075 A 
ATOM     17  N   UNL     1      -1.259  -4.758  -1.791  0.00  0.00    -0.173 NA
ATOM     18  C   UNL     1      -3.242  -5.708  -2.997  0.00  0.00    +0.068 C 
ATOM     19  I   UNL     1      -3.754  -7.750  -0.146  0.00  0.00    -0.038 I 
BRANCH  14  20
ATOM     20  N   UNL     1      -0.984  -6.358   1.405  0.00  0.00    -0.342 N 
ATOM     21  H   UNL     1      -0.218  -6.000   1.881  0.00  0.00    +0.144 HD
ATOM     22  H   UNL     1      -1.534  -7.043   1.815  0.00  0.00    +0.144 HD
ENDBRANCH  14  20
ENDBRANCH   1  13
TORSDOF 4
