REMARK  Name = ZINC35743053
REMARK  12 active torsions:
REMARK  status: ('A' for Active; 'I' for Inactive)
REMARK    1  A    between atoms: C_4  and  C_7
REMARK    2  A    between atoms: C_7  and  O_8
REMARK    3  A    between atoms: O_8  and  C_9
REMARK    4  A    between atoms: C_9  and  C_10
REMARK    5  A    between atoms: C_10  and  C_12
REMARK    6  A    between atoms: C_10  and  O_36
REMARK    7  A    between atoms: C_12  and  N_13
REMARK    8  A    between atoms: N_13  and  C_14
REMARK    9  A    between atoms: N_13  and  C_22
REMARK   10  A    between atoms: C_14  and  C_15
REMARK   11  A    between atoms: C_22  and  C_23
REMARK   12  A    between atoms: C_26  and  C_29
REMARK                            x       y       z     vdW  Elec       q    Type
REMARK                         _______ _______ _______ _____ _____    ______ ____
ROOT
ATOM      1  N   UNL     1       6.901  -2.285   4.897  0.00  0.00    +0.387 N 
ATOM      2  H   UNL     1       6.393  -1.536   5.342  0.00  0.00    -0.081 HD
ENDROOT
BRANCH   1   3
ATOM      3  C   UNL     1       6.784  -2.158   3.438  0.00  0.00    -0.044 C 
BRANCH   3   4
ATOM      4  C   UNL     1       5.317  -1.942   3.062  0.00  0.00    +0.124 C 
BRANCH   4   5
ATOM      5  O   UNL     1       4.601  -3.170   3.208  0.00  0.00    -0.391 OA
ATOM      6  H   UNL     1       4.749  -3.799   2.488  0.00  0.00    +0.210 HD
ENDBRANCH   4   5
BRANCH   4   7
ATOM      7  C   UNL     1       5.228  -1.469   1.609  0.00  0.00    +0.189 C 
BRANCH   7   8
ATOM      8  O   UNL     1       3.870  -1.155   1.293  0.00  0.00    -0.373 OA
BRANCH   8   9
ATOM      9  C   UNL     1       3.675  -0.701  -0.048  0.00  0.00    +0.195 C 
BRANCH   9  13
ATOM     10  C   UNL     1      -0.463   0.150  -0.679  0.00  0.00    +0.000 A 
ATOM     11  C   UNL     1       0.384   1.141  -0.219  0.00  0.00    +0.000 A 
ATOM     12  C   UNL     1       1.723   0.866  -0.015  0.00  0.00    +0.006 A 
ATOM     13  C   UNL     1       2.215  -0.401  -0.270  0.00  0.00    -0.022 A 
ATOM     14  C   UNL     1       1.368  -1.392  -0.729  0.00  0.00    +0.006 A 
ATOM     15  C   UNL     1       0.029  -1.116  -0.934  0.00  0.00    +0.000 A 
ENDBRANCH   9  13
ENDBRANCH   8   9
ENDBRANCH   7   8
ENDBRANCH   4   7
ENDBRANCH   3   4
ENDBRANCH   1   3
BRANCH   1  16
ATOM     16  C   UNL     1       6.343  -3.575   5.323  0.00  0.00    -0.040 C 
BRANCH  16  17
ATOM     17  C   UNL     1       7.071  -4.694   4.622  0.00  0.00    -0.029 A 
ATOM     18  C   UNL     1       6.558  -5.226   3.454  0.00  0.00    +0.004 A 
ATOM     19  C   UNL     1       7.226  -6.252   2.811  0.00  0.00    +0.000 A 
ATOM     20  C   UNL     1       8.406  -6.746   3.334  0.00  0.00    +0.003 A 
ATOM     21  C   UNL     1       8.920  -6.215   4.502  0.00  0.00    +0.038 A 
ATOM     22  C   UNL     1       8.255  -5.184   5.144  0.00  0.00    +0.125 A 
ATOM     23  F   UNL     1       8.759  -4.660   6.283  0.00  0.00    -0.205 F 
ENDBRANCH  16  17
ENDBRANCH   1  16
BRANCH   1  24
ATOM     24  C   UNL     1       8.317  -2.213   5.282  0.00  0.00    -0.030 C 
BRANCH  24  25
ATOM     25  C   UNL     1       8.424  -1.876   6.771  0.00  0.00    +0.194 C 
ATOM     26  C   UNL     1       9.890  -1.969   7.256  0.00  0.00    +0.104 C 
ATOM     27  C   UNL     1       9.742  -2.557   8.646  0.00  0.00    +0.091 C 
ATOM     28  N   UNL     1       8.551  -3.044   8.754  0.00  0.00    -0.089 NA
ATOM     29  O   UNL     1       7.783  -2.887   7.576  0.00  0.00    -0.392 OA
BRANCH  27  30
ATOM     30  C   UNL     1      10.780  -2.571   9.695  0.00  0.00    -0.000 A 
ATOM     31  C   UNL     1      12.032  -2.004   9.450  0.00  0.00    +0.011 A 
ATOM     32  C   UNL     1      12.998  -2.020  10.434  0.00  0.00    +0.020 A 
ATOM     33  C   UNL     1      12.729  -2.598  11.663  0.00  0.00    +0.041 A 
ATOM     34  C   UNL     1      11.489  -3.163  11.912  0.00  0.00    +0.020 A 
ATOM     35  C   UNL     1      10.513  -3.148  10.938  0.00  0.00    +0.011 A 
ATOM     36 CL   UNL     1      13.950  -2.615  12.897  0.00  0.00    -0.084 Cl
ENDBRANCH  27  30
ENDBRANCH  24  25
ENDBRANCH   1  24
TORSDOF 12
