REMARK  Name = ZINC33123031
REMARK  8 active torsions:
REMARK  status: ('A' for Active; 'I' for Inactive)
REMARK    1  A    between atoms: C_1  and  C_2
REMARK    2  A    between atoms: C_6  and  N_9
REMARK    3  A    between atoms: C_7  and  C_8
REMARK    4  A    between atoms: N_9  and  S_10
REMARK    5  A    between atoms: S_10  and  C_13
REMARK    6  A    between atoms: C_15  and  C_20
REMARK    7  A    between atoms: C_18  and  C_19
REMARK    8  A    between atoms: C_21  and  C_32
REMARK                            x       y       z     vdW  Elec       q    Type
REMARK                         _______ _______ _______ _____ _____    ______ ____
ROOT
ATOM      1  C   UNL     1      -0.910   1.739   1.430  0.00  0.00    +0.112 A 
ATOM      2  C   UNL     1      -1.240   0.732   2.315  0.00  0.00    +0.037 A 
ATOM      3  C   UNL     1      -1.953   1.032   3.474  0.00  0.00    -0.011 A 
ATOM      4  C   UNL     1      -2.340   2.348   3.727  0.00  0.00    +0.009 A 
ATOM      5  C   UNL     1      -2.010   3.345   2.833  0.00  0.00    +0.006 A 
ATOM      6  C   UNL     1      -1.296   3.042   1.687  0.00  0.00    -0.024 A 
ATOM      7  C   UNL     1      -0.939   4.136   0.714  0.00  0.00    +0.046 C 
ENDROOT
BRANCH   3   8
ATOM      8  C   UNL     1      -2.304  -0.044   4.432  0.00  0.00    +0.045 A 
ATOM      9  C   UNL     1      -3.163  -1.131   4.183  0.00  0.00    +0.070 A 
ATOM     10  N   UNL     1      -3.209  -1.871   5.253  0.00  0.00    -0.167 NA
ATOM     11  N   UNL     1      -2.358  -1.321   6.231  0.00  0.00    -0.185 N 
ATOM     12  C   UNL     1      -1.842  -0.167   5.737  0.00  0.00    +0.139 A 
ATOM     13  N   UNL     1      -1.082   0.805   6.357  0.00  0.00    -0.270 N 
ATOM     14  C   UNL     1      -0.163   0.569   7.316  0.00  0.00    +0.219 C 
ATOM     15  O   UNL     1       0.447   1.492   7.813  0.00  0.00    -0.275 OA
ATOM     16  C   UNL     1       0.103  -0.830   7.764  0.00  0.00    +0.105 C 
ATOM     17  C   UNL     1      -1.118  -1.459   8.382  0.00  0.00    +0.110 C 
ATOM     18  C   UNL     1      -2.122  -1.932   7.412  0.00  0.00    +0.250 C 
ATOM     19  O   UNL     1      -2.767  -2.916   7.687  0.00  0.00    -0.271 OA
ATOM     20  C   UNL     1      -3.902  -1.395   2.897  0.00  0.00    +0.068 C 
ATOM     21  H   UNL     1      -1.206   1.861   6.077  0.00  0.00    +0.156 HD
ENDBRANCH   3   8
BRANCH   1  22
ATOM     22  S   UNL     1      -0.001   1.363  -0.032  0.00  0.00    +0.073 S 
ATOM     23  O   UNL     1      -0.694   1.977  -1.110  0.00  0.00    -0.150 OA
ATOM     24  O   UNL     1       0.267  -0.032   0.005  0.00  0.00    -0.150 OA
BRANCH  22  25
ATOM     25  N   UNL     1       1.462   2.129   0.090  0.00  0.00    -0.216 N 
ATOM     26  H   UNL     1       1.754   2.878  -0.661  0.00  0.00    +0.174 HD
BRANCH  25  32
ATOM     27  C   UNL     1       4.812   3.597   3.372  0.00  0.00    +0.044 C 
ATOM     28  C   UNL     1       3.960   2.517   2.756  0.00  0.00    -0.046 A 
ATOM     29  C   UNL     1       4.032   1.222   3.237  0.00  0.00    +0.004 A 
ATOM     30  C   UNL     1       3.253   0.228   2.675  0.00  0.00    +0.002 A 
ATOM     31  C   UNL     1       2.399   0.526   1.631  0.00  0.00    +0.025 A 
ATOM     32  C   UNL     1       2.324   1.825   1.146  0.00  0.00    +0.051 A 
ATOM     33  C   UNL     1       3.113   2.820   1.709  0.00  0.00    -0.025 A 
ATOM     34  C   UNL     1       3.040   4.230   1.182  0.00  0.00    +0.046 C 
ENDBRANCH  25  32
ENDBRANCH  22  25
ENDBRANCH   1  22
TORSDOF 4
