REMARK  Name = ZINC08623532
REMARK  7 active torsions:
REMARK  status: ('A' for Active; 'I' for Inactive)
REMARK    1  A    between atoms: C_1  and  C_2
REMARK    2  A    between atoms: C_2  and  C_26
REMARK    3  A    between atoms: N_5  and  C_9
REMARK    4  A    between atoms: C_9  and  C_10
REMARK    5  A    between atoms: N_12  and  C_13
REMARK    6  A    between atoms: C_13  and  C_14
REMARK    7  A    between atoms: N_16  and  C_17
REMARK                            x       y       z     vdW  Elec       q    Type
REMARK                         _______ _______ _______ _____ _____    ______ ____
ROOT
ATOM      1  C   UNL     1       4.072   0.508  -1.454  0.00  0.00    +0.231 C 
ATOM      2  O   UNL     1       3.276   0.564  -2.368  0.00  0.00    -0.274 OA
ATOM      3  N   UNL     1       5.392   0.425  -1.715  0.00  0.00    -0.305 N 
ATOM      4  H   UNL     1       6.028   0.380  -0.985  0.00  0.00    +0.149 HD
ENDROOT
BRANCH   1   5
ATOM      5  C   UNL     1       3.586   0.530  -0.028  0.00  0.00    +0.213 C 
BRANCH   5  10
ATOM      6  C   UNL     1      -0.709   1.910   1.283  0.00  0.00    +0.047 C 
ATOM      7  C   UNL     1      -0.026   1.396   0.014  0.00  0.00    +0.135 C 
ATOM      8  C   UNL     1       1.439   1.784   0.003  0.00  0.00    +0.251 C 
ATOM      9  O   UNL     1       1.899   2.906   0.005  0.00  0.00    -0.272 OA
ATOM     10  N   UNL     1       2.123   0.623  -0.012  0.00  0.00    -0.215 N 
ATOM     11  C   UNL     1       1.303  -0.433  -0.011  0.00  0.00    +0.310 C 
ATOM     12  O   UNL     1       1.687  -1.587  -0.023  0.00  0.00    -0.252 OA
ATOM     13  N   UNL     1       0.006  -0.077   0.004  0.00  0.00    -0.281 N 
ATOM     14  H   UNL     1      -0.759  -0.673   0.007  0.00  0.00    +0.152 HD
BRANCH   7  15
ATOM     15  C   UNL     1      -0.723   1.920  -1.215  0.00  0.00    -0.015 A 
ATOM     16  C   UNL     1      -0.347   3.134  -1.758  0.00  0.00    +0.007 A 
ATOM     17  C   UNL     1      -0.983   3.612  -2.888  0.00  0.00    +0.020 A 
ATOM     18  C   UNL     1      -2.003   2.881  -3.470  0.00  0.00    +0.041 A 
ATOM     19  C   UNL     1      -2.383   1.668  -2.922  0.00  0.00    +0.020 A 
ATOM     20  C   UNL     1      -1.743   1.188  -1.795  0.00  0.00    +0.007 A 
ATOM     21 CL   UNL     1      -2.807   3.485  -4.885  0.00  0.00    -0.084 Cl
ENDBRANCH   7  15
ENDBRANCH   5  10
ENDBRANCH   1   5
BRANCH   3  22
ATOM     22  C   UNL     1       5.865   0.404  -3.101  0.00  0.00    +0.200 C 
BRANCH  22  23
ATOM     23  C   UNL     1       7.369   0.308  -3.118  0.00  0.00    +0.234 C 
ATOM     24  O   UNL     1       7.985   0.262  -2.074  0.00  0.00    -0.274 OA
ATOM     25  N   UNL     1       8.029   0.273  -4.292  0.00  0.00    -0.282 N 
ATOM     26  H   UNL     1       7.534   0.244  -5.126  0.00  0.00    +0.155 HD
BRANCH  25  27
ATOM     27  C   UNL     1       9.430   0.278  -4.308  0.00  0.00    +0.072 A 
ATOM     28  C   UNL     1      10.139  -0.370  -3.307  0.00  0.00    +0.029 A 
ATOM     29  C   UNL     1      11.521  -0.365  -3.324  0.00  0.00    +0.043 A 
ATOM     30  C   UNL     1      12.200   0.286  -4.339  0.00  0.00    +0.161 A 
ATOM     31  C   UNL     1      11.496   0.935  -5.341  0.00  0.00    +0.195 A 
ATOM     32  C   UNL     1      10.112   0.928  -5.331  0.00  0.00    +0.182 A 
ATOM     33  F   UNL     1       9.424   1.555  -6.310  0.00  0.00    -0.200 F 
ATOM     34  F   UNL     1      12.161   1.570  -6.331  0.00  0.00    -0.199 F 
ATOM     35  F   UNL     1      13.551   0.289  -4.352  0.00  0.00    -0.202 F 
ENDBRANCH  25  27
ENDBRANCH  22  23
ENDBRANCH   3  22
TORSDOF 6
