REMARK  Name = ZINC41006331
REMARK  12 active torsions:
REMARK  status: ('A' for Active; 'I' for Inactive)
REMARK    1  A    between atoms: C_1  and  C_2
REMARK    2  A    between atoms: C_5  and  N_9
REMARK    3  A    between atoms: C_6  and  C_8
REMARK    4  A    between atoms: C_10  and  C_12
REMARK    5  A    between atoms: C_14  and  C_35
REMARK    6  A    between atoms: C_16  and  C_24
REMARK    7  A    between atoms: C_18  and  C_22
REMARK    8  A    between atoms: C_18  and  O_23
REMARK    9  A    between atoms: N_26  and  C_27
REMARK   10  A    between atoms: C_30  and  C_34
REMARK   11  A    between atoms: C_32  and  C_33
REMARK   12  A    between atoms: C_36  and  C_37
REMARK                            x       y       z     vdW  Elec       q    Type
REMARK                         _______ _______ _______ _____ _____    ______ ____
ROOT
ATOM      1  C   UNL     1      -0.121  -6.380  -1.178  0.00  0.00    +0.149 C 
ATOM      2  C   UNL     1      -0.219  -6.875  -2.624  0.00  0.00    +0.045 C 
ATOM      3  C   UNL     1       1.081  -6.550  -3.362  0.00  0.00    +0.115 C 
ATOM      4  C   UNL     1       2.243  -7.312  -2.724  0.00  0.00    +0.082 C 
ATOM      5  C   UNL     1       2.434  -6.833  -1.281  0.00  0.00    +0.110 C 
ATOM      6  C   UNL     1       1.117  -6.976  -0.544  0.00  0.00    +0.148 C 
ATOM      7  O   UNL     1       1.054  -7.551   0.516  0.00  0.00    -0.296 OA
ATOM      8  C   UNL     1       1.935  -8.810  -2.728  0.00  0.00    +0.042 C 
ENDROOT
BRANCH   1  10
ATOM      9  N   UNL     1       0.082  -4.219   0.009  0.00  0.00    -0.285 N 
ATOM     10  C   UNL     1      -0.022  -4.876  -1.163  0.00  0.00    +0.228 C 
ATOM     11  O   UNL     1      -0.037  -4.257  -2.206  0.00  0.00    -0.275 OA
ATOM     12  H   UNL     1       0.160  -4.715   0.839  0.00  0.00    +0.155 HD
BRANCH   9  17
ATOM     13  C   UNL     1       0.062   1.454   0.091  0.00  0.00    +0.044 C 
ATOM     14  C   UNL     1       0.067  -0.053   0.069  0.00  0.00    -0.050 A 
ATOM     15  C   UNL     1       0.661  -0.726  -0.983  0.00  0.00    +0.005 A 
ATOM     16  C   UNL     1       0.667  -2.107  -1.006  0.00  0.00    +0.024 A 
ATOM     17  C   UNL     1       0.077  -2.820   0.030  0.00  0.00    +0.036 A 
ATOM     18  C   UNL     1      -0.517  -2.141   1.085  0.00  0.00    -0.029 A 
ATOM     19  C   UNL     1      -0.516  -0.760   1.104  0.00  0.00    +0.008 A 
ATOM     20  C   UNL     1      -1.159  -2.911   2.211  0.00  0.00    +0.045 C 
ENDBRANCH   9  17
ENDBRANCH   1  10
BRANCH   3  21
ATOM     21  C   UNL     1       0.951  -6.956  -4.808  0.00  0.00    +0.224 C 
ATOM     22  O   UNL     1      -0.080  -7.456  -5.207  0.00  0.00    -0.275 OA
ATOM     23  N   UNL     1       1.980  -6.764  -5.656  0.00  0.00    -0.285 N 
ATOM     24  H   UNL     1       2.825  -6.423  -5.325  0.00  0.00    +0.155 HD
BRANCH  23  25
ATOM     25  C   UNL     1       1.829  -7.058  -7.016  0.00  0.00    +0.036 A 
ATOM     26  C   UNL     1       1.036  -8.126  -7.414  0.00  0.00    +0.024 A 
ATOM     27  C   UNL     1       0.889  -8.413  -8.757  0.00  0.00    +0.005 A 
ATOM     28  C   UNL     1       1.532  -7.638  -9.705  0.00  0.00    -0.050 A 
ATOM     29  C   UNL     1       2.323  -6.574  -9.312  0.00  0.00    +0.008 A 
ATOM     30  C   UNL     1       2.468  -6.278  -7.971  0.00  0.00    -0.029 A 
ATOM     31  C   UNL     1       3.325  -5.114  -7.544  0.00  0.00    +0.045 C 
ATOM     32  C   UNL     1       1.370  -7.954 -11.170  0.00  0.00    +0.044 C 
ENDBRANCH  23  25
ENDBRANCH   3  21
BRANCH   4  33
ATOM     33  O   UNL     1       3.438  -7.069  -3.469  0.00  0.00    -0.388 OA
ATOM     34  H   UNL     1       4.218  -7.522  -3.120  0.00  0.00    +0.210 HD
ENDBRANCH   4  33
BRANCH   2  35
ATOM     35  C   UNL     1      -1.373  -6.191  -3.312  0.00  0.00    -0.021 C 
ATOM     36  C   UNL     1      -2.371  -6.910  -3.805  0.00  0.00    +0.004 C 
BRANCH  36  37
ATOM     37  C   UNL     1      -3.502  -6.239  -4.480  0.00  0.00    -0.025 A 
ATOM     38  C   UNL     1      -3.519  -4.849  -4.605  0.00  0.00    +0.008 A 
ATOM     39  C   UNL     1      -4.578  -4.229  -5.236  0.00  0.00    +0.001 A 
ATOM     40  C   UNL     1      -5.621  -4.982  -5.744  0.00  0.00    +0.000 A 
ATOM     41  C   UNL     1      -5.611  -6.360  -5.623  0.00  0.00    +0.001 A 
ATOM     42  C   UNL     1      -4.555  -6.993  -5.000  0.00  0.00    +0.008 A 
ENDBRANCH  36  37
ENDBRANCH   2  35
TORSDOF 7
