REMARK  Name = ZINC22462947
REMARK  12 active torsions:
REMARK  status: ('A' for Active; 'I' for Inactive)
REMARK    1  A    between atoms: C_1  and  C_2
REMARK    2  A    between atoms: C_2  and  N_3
REMARK    3  A    between atoms: N_3  and  C_4
REMARK    4  A    between atoms: N_3  and  C_6
REMARK    5  A    between atoms: C_4  and  C_5
REMARK    6  A    between atoms: C_6  and  C_8
REMARK    7  A    between atoms: C_6  and  C_30
REMARK    8  A    between atoms: C_8  and  N_9
REMARK    9  A    between atoms: C_10  and  C_12
REMARK   10  A    between atoms: C_13  and  C_29
REMARK   11  A    between atoms: C_18  and  C_22
REMARK   12  A    between atoms: C_22  and  C_23
REMARK                            x       y       z     vdW  Elec       q    Type
REMARK                         _______ _______ _______ _____ _____    ______ ____
ROOT
ATOM      1  C   UNL     1       5.158   4.484  -7.070  0.00  0.00    +0.079 A 
ATOM      2  C   UNL     1       6.129   5.337  -6.634  0.00  0.00    -0.017 A 
ATOM      3  C   UNL     1       7.327   4.827  -6.127  0.00  0.00    +0.075 A 
ATOM      4  C   UNL     1       8.506   5.553  -5.604  0.00  0.00    +0.282 A 
ATOM      5  O   UNL     1       8.527   6.770  -5.571  0.00  0.00    -0.265 OA
ATOM      6  N   UNL     1       9.555   4.832  -5.161  0.00  0.00    -0.195 NA
ATOM      7  C   UNL     1       9.545   3.476  -5.197  0.00  0.00    +0.116 A 
ATOM      8  N   UNL     1       8.521   2.806  -5.652  0.00  0.00    -0.337 N 
ATOM      9  C   UNL     1       7.436   3.417  -6.108  0.00  0.00    +0.092 A 
ATOM     10  S   UNL     1       5.887   2.879  -6.787  0.00  0.00    -0.066 S 
ATOM     11  C   UNL     1       5.910   6.827  -6.698  0.00  0.00    +0.046 C 
ATOM     12  H   UNL     1       8.546   1.706  -5.664  0.00  0.00    +0.168 HD
ENDROOT
BRANCH   1  14
ATOM     13  N   UNL     1       3.011   3.815  -8.010  0.00  0.00    -0.312 N 
ATOM     14  C   UNL     1       3.842   4.806  -7.631  0.00  0.00    +0.251 C 
ATOM     15  O   UNL     1       3.501   5.967  -7.756  0.00  0.00    -0.270 OA
ATOM     16  H   UNL     1       3.319   2.765  -7.897  0.00  0.00    +0.149 HD
BRANCH  13  17
ATOM     17  C   UNL     1       1.696   4.136  -8.571  0.00  0.00    +0.094 C 
BRANCH  17  18
ATOM     18  C   UNL     1       0.958   2.841  -8.915  0.00  0.00    -0.020 C 
BRANCH  18  19
ATOM     19  C   UNL     1      -0.312   3.168  -9.657  0.00  0.00    -0.059 A 
ATOM     20  C   UNL     1      -0.250   3.693 -10.934  0.00  0.00    +0.002 A 
ATOM     21  C   UNL     1      -1.414   3.990 -11.618  0.00  0.00    +0.000 A 
ATOM     22  C   UNL     1      -2.641   3.769 -11.020  0.00  0.00    +0.000 A 
ATOM     23  C   UNL     1      -2.703   3.248  -9.741  0.00  0.00    +0.000 A 
ATOM     24  C   UNL     1      -1.539   2.948  -9.059  0.00  0.00    +0.002 A 
ENDBRANCH  18  19
BRANCH  18  25
ATOM     25  N   UNL     1       1.815   1.998  -9.758  0.00  0.00    +0.385 N 
ATOM     26  H   UNL     1       2.818   1.978  -9.308  0.00  0.00    -0.081 HD
BRANCH  25  28
ATOM     27  C   UNL     1       1.433  -0.016  -8.418  0.00  0.00    -0.017 C 
ATOM     28  C   UNL     1       1.314   0.618  -9.806  0.00  0.00    -0.081 C 
ENDBRANCH  25  28
BRANCH  25  29
ATOM     29  C   UNL     1       1.939   2.559 -11.110  0.00  0.00    -0.081 C 
ATOM     30  C   UNL     1       2.626   3.925 -11.034  0.00  0.00    -0.017 C 
ENDBRANCH  25  29
ENDBRANCH  18  25
ENDBRANCH  17  18
ENDBRANCH  13  17
ENDBRANCH   1  14
BRANCH   7  31
ATOM     31  C   UNL     1      10.748   2.722  -4.693  0.00  0.00    +0.109 C 
BRANCH  31  32
ATOM     32  C   UNL     1      10.505   1.241  -4.827  0.00  0.00    -0.040 A 
ATOM     33  C   UNL     1      10.867   0.583  -5.987  0.00  0.00    +0.004 A 
ATOM     34  C   UNL     1      10.644  -0.776  -6.110  0.00  0.00    +0.000 A 
ATOM     35  C   UNL     1      10.058  -1.476  -5.073  0.00  0.00    +0.000 A 
ATOM     36  C   UNL     1       9.690  -0.818  -3.914  0.00  0.00    +0.000 A 
ATOM     37  C   UNL     1       9.918   0.540  -3.789  0.00  0.00    +0.004 A 
ENDBRANCH  31  32
ENDBRANCH   7  31
TORSDOF 9
