REMARK  Name = ZINC02120399
REMARK  7 active torsions:
REMARK  status: ('A' for Active; 'I' for Inactive)
REMARK    1  A    between atoms: C_1  and  C_2
REMARK    2  A    between atoms: C_2  and  C_3
REMARK    3  A    between atoms: C_2  and  C_4
REMARK    4  A    between atoms: C_4  and  C_5
REMARK    5  A    between atoms: C_5  and  N_6
REMARK    6  A    between atoms: C_12  and  C_28
REMARK    7  A    between atoms: C_24  and  C_27
REMARK                            x       y       z     vdW  Elec       q    Type
REMARK                         _______ _______ _______ _____ _____    ______ ____
ROOT
ATOM      1  N   UNL     1       4.661  -0.391   0.455  0.00  0.00    -0.291 N 
ATOM      2  C   UNL     1       3.863  -0.200   1.655  0.00  0.00    +0.203 C 
ATOM      3  C   UNL     1       3.475   1.230   1.852  0.00  0.00    +0.234 C 
ATOM      4  O   UNL     1       2.771   1.501   2.802  0.00  0.00    -0.274 OA
ATOM      5  N   UNL     1       3.853   2.228   1.050  0.00  0.00    -0.280 N 
ATOM      6  C   UNL     1       3.273   3.570   1.242  0.00  0.00    +0.122 C 
ATOM      7  C   UNL     1       2.452   3.936   0.000  0.00  0.00    +0.070 C 
ATOM      8  C   UNL     1       3.240   3.583  -1.235  0.00  0.00    -0.008 A 
ATOM      9  C   UNL     1       3.039   4.046  -2.593  0.00  0.00    +0.004 A 
ATOM     10  C   UNL     1       2.110   4.918  -3.169  0.00  0.00    +0.010 A 
ATOM     11  C   UNL     1       2.215   5.131  -4.521  0.00  0.00    +0.001 A 
ATOM     12  C   UNL     1       3.192   4.518  -5.290  0.00  0.00    +0.002 A 
ATOM     13  C   UNL     1       4.124   3.652  -4.745  0.00  0.00    +0.026 A 
ATOM     14  C   UNL     1       4.042   3.416  -3.374  0.00  0.00    +0.047 A 
ATOM     15  N   UNL     1       4.783   2.637  -2.534  0.00  0.00    -0.356 N 
ATOM     16  H   UNL     1       5.539   2.091  -2.800  0.00  0.00    +0.166 HD
ATOM     17  C   UNL     1       4.299   2.743  -1.258  0.00  0.00    +0.054 A 
ATOM     18  C   UNL     1       4.830   2.050  -0.025  0.00  0.00    +0.151 C 
ATOM     19  C   UNL     1       5.099   0.610  -0.308  0.00  0.00    +0.245 C 
ATOM     20  O   UNL     1       5.754   0.334  -1.291  0.00  0.00    -0.273 OA
ATOM     21  C   UNL     1       6.140   2.729   0.380  0.00  0.00    +0.048 C 
ENDROOT
BRANCH   7  22
ATOM     22  C   UNL     1       1.157   3.165   0.008  0.00  0.00    -0.020 A 
ATOM     23  C   UNL     1       1.175   1.783   0.000  0.00  0.00    +0.006 A 
ATOM     24  C   UNL     1      -0.013   1.076   0.008  0.00  0.00    +0.000 A 
ATOM     25  C   UNL     1      -1.219   1.750   0.017  0.00  0.00    +0.001 A 
ATOM     26  C   UNL     1      -1.239   3.132   0.031  0.00  0.00    +0.020 A 
ATOM     27  C   UNL     1      -0.050   3.841   0.023  0.00  0.00    +0.045 A 
ATOM     28 CL   UNL     1      -0.074   5.576   0.033  0.00  0.00    -0.083 Cl
ENDBRANCH   7  22
BRANCH   1  29
ATOM     29  C   UNL     1       5.004  -1.761   0.064  0.00  0.00    +0.108 C 
BRANCH  29  30
ATOM     30  C   UNL     1       3.918  -2.313  -0.862  0.00  0.00    +0.022 C 
BRANCH  30  32
ATOM     31  C   UNL     1       4.254  -4.648  -0.036  0.00  0.00    +0.007 C 
ATOM     32  C   UNL     1       4.276  -3.744  -1.271  0.00  0.00    -0.016 C 
ATOM     33  C   UNL     1       3.257  -4.252  -2.293  0.00  0.00    +0.007 C 
ENDBRANCH  30  32
ENDBRANCH  29  30
ENDBRANCH   1  29
TORSDOF 4
