REMARK  Name = ZINC01461516
REMARK  9 active torsions:
REMARK  status: ('A' for Active; 'I' for Inactive)
REMARK    1  A    between atoms: C_1  and  C_2
REMARK    2  A    between atoms: C_2  and  O_3
REMARK    3  A    between atoms: O_3  and  C_4
REMARK    4  A    between atoms: C_11  and  C_26
REMARK    5  A    between atoms: C_12  and  N_25
REMARK    6  A    between atoms: C_22  and  C_23
REMARK    7  A    between atoms: C_31  and  C_36
REMARK    8  A    between atoms: C_31  and  C_37
REMARK    9  A    between atoms: C_33  and  C_35
REMARK                            x       y       z     vdW  Elec       q    Type
REMARK                         _______ _______ _______ _____ _____    ______ ____
ROOT
ATOM      1  C   UNL     1       0.796  -1.785   1.339  0.00  0.00    +0.121 A 
ATOM      2  C   UNL     1       0.246  -2.615   0.365  0.00  0.00    +0.051 A 
ATOM      3  C   UNL     1       0.357  -3.975   0.500  0.00  0.00    -0.019 A 
ATOM      4  C   UNL     1       1.018  -4.495   1.612  0.00  0.00    +0.045 A 
ATOM      5  C   UNL     1       1.567  -3.682   2.578  0.00  0.00    +0.003 A 
ATOM      6  C   UNL     1       1.460  -2.316   2.439  0.00  0.00    +0.052 A 
ATOM      7  C   UNL     1       2.178  -4.624   3.578  0.00  0.00    +0.149 C 
ATOM      8  C   UNL     1       3.671  -4.418   3.572  0.00  0.00    +0.090 C 
ATOM      9  C   UNL     1       4.264  -4.074   4.750  0.00  0.00    +0.109 C 
ATOM     10  N   UNL     1       3.544  -3.916   5.917  0.00  0.00    -0.242 N 
ATOM     11  C   UNL     1       3.981  -3.547   7.185  0.00  0.00    +0.062 A 
ATOM     12  C   UNL     1       5.250  -3.225   7.651  0.00  0.00    +0.026 A 
ATOM     13  C   UNL     1       5.361  -2.895   8.994  0.00  0.00    +0.002 A 
ATOM     14  C   UNL     1       4.264  -2.885   9.834  0.00  0.00    +0.002 A 
ATOM     15  C   UNL     1       2.992  -3.204   9.382  0.00  0.00    +0.025 A 
ATOM     16  C   UNL     1       2.865  -3.538   8.037  0.00  0.00    +0.054 A 
ATOM     17  N   UNL     1       1.767  -3.894   7.286  0.00  0.00    -0.300 N 
ATOM     18  C   UNL     1       2.186  -4.113   5.991  0.00  0.00    +0.116 C 
ATOM     19  C   UNL     1       1.451  -4.465   4.887  0.00  0.00    +0.090 C 
ATOM     20  C   UNL     1       1.892  -6.008   3.042  0.00  0.00    +0.241 C 
ATOM     21  O   UNL     1       2.219  -7.059   3.553  0.00  0.00    -0.273 OA
ATOM     22  N   UNL     1       1.212  -5.859   1.900  0.00  0.00    -0.264 N 
ATOM     23  C   UNL     1       0.677  -6.874   0.977  0.00  0.00    +0.037 C 
ATOM     24  C   UNL     1      -0.536  -6.279   0.254  0.00  0.00    +0.033 C 
ATOM     25  C   UNL     1      -0.188  -4.981  -0.479  0.00  0.00    +0.020 C 
ATOM     26  C   UNL     1      -1.446  -4.417  -1.142  0.00  0.00    +0.012 C 
ATOM     27  C   UNL     1       1.749  -7.258  -0.045  0.00  0.00    +0.032 C 
ATOM     28  C   UNL     1       0.249  -8.113   1.767  0.00  0.00    +0.032 C 
ATOM     29  H   UNL     1       0.857  -3.978   7.611  0.00  0.00    +0.153 HD
ENDROOT
BRANCH   9  30
ATOM     30  N   UNL     1       5.624  -3.880   4.778  0.00  0.00    -0.345 N 
ATOM     31  H   UNL     1       6.096  -3.637   3.966  0.00  0.00    +0.144 HD
ATOM     32  H   UNL     1       6.112  -3.985   5.609  0.00  0.00    +0.144 HD
ENDBRANCH   9  30
BRANCH  19  33
ATOM     33  C   UNL     1       0.037  -4.674   4.976  0.00  0.00    +0.100 C 
ATOM     34  N   UNL     1      -1.084  -4.840   5.047  0.00  0.00    -0.191 NA
ENDBRANCH  19  33
BRANCH   8  35
ATOM     35  C   UNL     1       4.439  -4.576   2.373  0.00  0.00    +0.100 C 
ATOM     36  N   UNL     1       5.047  -4.701   1.422  0.00  0.00    -0.191 NA
ENDBRANCH   8  35
BRANCH   1  37
ATOM     37  O   UNL     1       0.686  -0.436   1.209  0.00  0.00    -0.492 OA
BRANCH  37  39
ATOM     38  C   UNL     1      -0.028   1.581   0.085  0.00  0.00    +0.048 C 
ATOM     39  C   UNL     1      -0.007   0.051   0.058  0.00  0.00    +0.225 C 
ENDBRANCH  37  39
ENDBRANCH   1  37
TORSDOF 5
