REMARK  Name = ZINC09544803
REMARK  9 active torsions:
REMARK  status: ('A' for Active; 'I' for Inactive)
REMARK    1  A    between atoms: C_1  and  C_2
REMARK    2  A    between atoms: C_2  and  C_3
REMARK    3  A    between atoms: C_2  and  C_4
REMARK    4  A    between atoms: C_7  and  C_10
REMARK    5  A    between atoms: C_10  and  C_12
REMARK    6  A    between atoms: C_10  and  N_53
REMARK    7  A    between atoms: C_17  and  C_18
REMARK    8  A    between atoms: C_17  and  N_53
REMARK    9  A    between atoms: N_20  and  C_21
REMARK                            x       y       z     vdW  Elec       q    Type
REMARK                         _______ _______ _______ _____ _____    ______ ____
ROOT
ATOM      1  N   UNL     1      -2.005   4.127   5.295  0.00  0.00    +0.392 N 
ATOM      2  H   UNL     1      -2.328   4.973   4.810  0.00  0.00    -0.084 HD
ATOM      3  H   UNL     1      -0.998   4.006   5.138  0.00  0.00    -0.084 HD
ENDROOT
BRANCH   1   4
ATOM      4  C   UNL     1      -2.725   2.955   4.762  0.00  0.00    -0.003 C 
BRANCH   4   8
ATOM      5  C   UNL     1      -0.726   1.561   1.253  0.00  0.00    -0.045 A 
ATOM      6  C   UNL     1      -0.855   2.918   1.482  0.00  0.00    +0.004 A 
ATOM      7  C   UNL     1      -1.506   3.369   2.615  0.00  0.00    +0.002 A 
ATOM      8  C   UNL     1      -2.020   2.463   3.524  0.00  0.00    -0.057 A 
ATOM      9  C   UNL     1      -1.887   1.106   3.297  0.00  0.00    +0.002 A 
ATOM     10  C   UNL     1      -1.240   0.655   2.162  0.00  0.00    +0.004 A 
BRANCH   5  12
ATOM     11  C   UNL     1       1.419   1.589   0.009  0.00  0.00    +0.012 C 
ATOM     12  C   UNL     1      -0.021   1.069   0.016  0.00  0.00    +0.013 C 
ATOM     13  C   UNL     1      -0.753   1.581  -1.226  0.00  0.00    +0.012 C 
ENDBRANCH   5  12
ENDBRANCH   4   8
BRANCH   4  14
ATOM     14  C   UNL     1      -4.137   3.348   4.413  0.00  0.00    -0.020 A 
ATOM     15  C   UNL     1      -5.285   2.649   4.587  0.00  0.00    +0.010 A 
ATOM     16  C   UNL     1      -6.482   3.216   4.190  0.00  0.00    +0.008 A 
ATOM     17  C   UNL     1      -6.471   4.450   3.630  0.00  0.00    +0.045 A 
ATOM     18  S   UNL     1      -4.732   4.852   3.656  0.00  0.00    -0.103 S 
ENDBRANCH   4  14
ENDBRANCH   1   4
BRANCH   1  19
ATOM     19  C   UNL     1      -2.259   4.269   6.741  0.00  0.00    +0.016 C 
BRANCH  19  20
ATOM     20  C   UNL     1      -1.512   5.472   7.258  0.00  0.00    +0.200 C 
ATOM     21  O   UNL     1      -0.840   6.140   6.501  0.00  0.00    -0.278 OA
ATOM     22  N   UNL     1      -1.591   5.806   8.561  0.00  0.00    -0.287 N 
ATOM     23  H   UNL     1      -2.181   5.312   9.153  0.00  0.00    +0.155 HD
BRANCH  22  24
ATOM     24  C   UNL     1      -0.823   6.864   9.061  0.00  0.00    +0.035 A 
ATOM     25  C   UNL     1      -0.311   6.801  10.353  0.00  0.00    +0.025 A 
ATOM     26  C   UNL     1       0.451   7.839  10.849  0.00  0.00    +0.029 A 
ATOM     27  C   UNL     1       0.700   8.954  10.062  0.00  0.00    +0.067 A 
ATOM     28  C   UNL     1       0.183   9.022   8.767  0.00  0.00    +0.069 A 
ATOM     29  C   UNL     1      -0.577   7.976   8.269  0.00  0.00    +0.051 A 
ATOM     30  N   UNL     1       0.595  10.241   8.233  0.00  0.00    -0.306 N 
ATOM     31  H   UNL     1       0.389  10.570   7.344  0.00  0.00    +0.170 HD
ATOM     32  C   UNL     1       1.328  10.885   9.161  0.00  0.00    +0.325 A 
ATOM     33  O   UNL     1       1.839  11.980   9.014  0.00  0.00    -0.247 OA
ATOM     34  N   UNL     1       1.410  10.135  10.275  0.00  0.00    -0.306 N 
ATOM     35  H   UNL     1       1.882  10.375  11.088  0.00  0.00    +0.170 HD
ENDBRANCH  22  24
ENDBRANCH  19  20
ENDBRANCH   1  19
TORSDOF 7
