REMARK  Name = ZINC35760449
REMARK  15 active torsions:
REMARK  status: ('A' for Active; 'I' for Inactive)
REMARK    1  A    between atoms: C_1  and  C_2
REMARK    2  A    between atoms: C_2  and  C_3
REMARK    3  A    between atoms: C_2  and  C_4
REMARK    4  A    between atoms: C_2  and  O_5
REMARK    5  A    between atoms: O_5  and  C_6
REMARK    6  A    between atoms: C_6  and  C_7
REMARK    7  A    between atoms: C_7  and  C_9
REMARK    8  A    between atoms: C_7  and  O_37
REMARK    9  A    between atoms: C_9  and  N_10
REMARK   10  A    between atoms: N_10  and  C_11
REMARK   11  A    between atoms: N_10  and  C_30
REMARK   12  A    between atoms: C_11  and  C_12
REMARK   13  A    between atoms: C_13  and  C_23
REMARK   14  A    between atoms: C_16  and  N_17
REMARK   15  A    between atoms: C_30  and  C_31
REMARK                            x       y       z     vdW  Elec       q    Type
REMARK                         _______ _______ _______ _____ _____    ______ ____
ROOT
ATOM      1  C   UNL     1       5.731  -1.345  -3.735  0.00  0.00    -0.035 C 
ENDROOT
BRANCH   1   2
ATOM      2  C   UNL     1       6.349  -2.223  -2.677  0.00  0.00    +0.025 A 
ATOM      3  C   UNL     1       6.580  -1.863  -1.333  0.00  0.00    +0.117 A 
ATOM      4  N   UNL     1       7.130  -2.892  -0.728  0.00  0.00    -0.076 NA
ATOM      5  O   UNL     1       7.263  -3.936  -1.675  0.00  0.00    -0.339 OA
ATOM      6  C   UNL     1       6.774  -3.500  -2.848  0.00  0.00    +0.222 A 
BRANCH   3   7
ATOM      7  C   UNL     1       6.261  -0.554  -0.711  0.00  0.00    +0.004 A 
ATOM      8  C   UNL     1       6.531   0.629  -1.396  0.00  0.00    +0.013 A 
ATOM      9  C   UNL     1       6.232   1.844  -0.815  0.00  0.00    +0.039 A 
ATOM     10  C   UNL     1       5.664   1.889   0.448  0.00  0.00    +0.123 A 
ATOM     11  C   UNL     1       5.393   0.715   1.133  0.00  0.00    +0.039 A 
ATOM     12  C   UNL     1       5.684  -0.504   0.556  0.00  0.00    +0.013 A 
ATOM     13  F   UNL     1       5.373   3.081   1.014  0.00  0.00    -0.205 F 
ENDBRANCH   3   7
BRANCH   6  14
ATOM     14  N   UNL     1       6.717  -4.224  -4.025  0.00  0.00    -0.295 N 
ATOM     15  C   UNL     1       7.853  -4.240  -4.960  0.00  0.00    +0.136 C 
ATOM     16  C   UNL     1       8.178  -5.699  -5.301  0.00  0.00    +0.179 C 
ATOM     17  O   UNL     1       6.987  -6.357  -5.739  0.00  0.00    -0.377 OA
ATOM     18  C   UNL     1       5.958  -6.424  -4.748  0.00  0.00    +0.179 C 
ATOM     19  C   UNL     1       5.522  -5.007  -4.376  0.00  0.00    +0.136 C 
ENDBRANCH   6  14
ENDBRANCH   1   2
BRANCH   1  20
ATOM     20  N   UNL     1       4.296  -1.641  -3.841  0.00  0.00    +0.386 N 
ATOM     21  H   UNL     1       4.168  -2.626  -4.018  0.00  0.00    -0.081 HD
BRANCH  20  22
ATOM     22  C   UNL     1       3.627  -1.279  -2.584  0.00  0.00    -0.044 C 
BRANCH  22  23
ATOM     23  C   UNL     1       2.171  -1.747  -2.628  0.00  0.00    +0.124 C 
BRANCH  23  24
ATOM     24  O   UNL     1       1.454  -0.979  -3.596  0.00  0.00    -0.391 OA
ATOM     25  H   UNL     1       1.443  -0.029  -3.415  0.00  0.00    +0.210 HD
ENDBRANCH  23  24
BRANCH  23  26
ATOM     26  C   UNL     1       1.533  -1.557  -1.251  0.00  0.00    +0.189 C 
BRANCH  26  27
ATOM     27  O   UNL     1       0.211  -2.100  -1.260  0.00  0.00    -0.372 OA
BRANCH  27  29
ATOM     28  C   UNL     1      -0.600  -0.493   0.353  0.00  0.00    +0.041 C 
ATOM     29  C   UNL     1      -0.478  -1.973  -0.014  0.00  0.00    +0.061 C 
ATOM     30  C   UNL     1       0.304  -2.706   1.078  0.00  0.00    +0.041 C 
ATOM     31  C   UNL     1      -1.874  -2.585  -0.139  0.00  0.00    +0.041 C 
ENDBRANCH  27  29
ENDBRANCH  26  27
ENDBRANCH  23  26
ENDBRANCH  22  23
ENDBRANCH  20  22
BRANCH  20  32
ATOM     32  C   UNL     1       3.716  -0.865  -4.945  0.00  0.00    -0.046 C 
BRANCH  32  33
ATOM     33  C   UNL     1       4.378  -1.278  -6.261  0.00  0.00    +0.102 C 
ATOM     34  C   UNL     1       3.800  -0.442  -7.423  0.00  0.00    +0.032 C 
ATOM     35  C   UNL     1       3.697  -1.490  -8.564  0.00  0.00    +0.030 C 
ATOM     36  C   UNL     1       3.350  -2.768  -7.759  0.00  0.00    +0.160 C 
ATOM     37  O   UNL     1       4.098  -2.655  -6.535  0.00  0.00    -0.378 OA
ENDBRANCH  32  33
ENDBRANCH  20  32
ENDBRANCH   1  20
TORSDOF 12
