REMARK  Name = ZINC21539218
REMARK  8 active torsions:
REMARK  status: ('A' for Active; 'I' for Inactive)
REMARK    1  A    between atoms: C_1  and  C_2
REMARK    2  A    between atoms: C_2  and  O_3
REMARK    3  A    between atoms: O_3  and  C_4
REMARK    4  A    between atoms: C_7  and  C_10
REMARK    5  A    between atoms: N_30  and  C_31
REMARK    6  A    between atoms: C_33  and  C_39
REMARK    7  A    between atoms: C_36  and  O_37
REMARK    8  A    between atoms: O_37  and  C_38
REMARK                            x       y       z     vdW  Elec       q    Type
REMARK                         _______ _______ _______ _____ _____    ______ ____
ROOT
ATOM      1  C   UNL     1       1.539  -0.019   6.223  0.00  0.00    +0.155 C 
ATOM      2  C   UNL     1       1.056  -1.396   6.568  0.00  0.00    +0.049 A 
ATOM      3  C   UNL     1       0.549  -1.858   7.721  0.00  0.00    +0.025 A 
ATOM      4  C   UNL     1       0.195  -3.209   7.516  0.00  0.00    +0.020 A 
ATOM      5  C   UNL     1       0.517  -3.526   6.241  0.00  0.00    +0.092 A 
ATOM      6  N   UNL     1       1.072  -2.435   5.666  0.00  0.00    -0.312 N 
ATOM      7  C   UNL     1       1.649  -2.247   4.416  0.00  0.00    +0.090 A 
ATOM      8  C   UNL     1       2.837  -1.617   4.213  0.00  0.00    +0.005 A 
ATOM      9  C   UNL     1       3.265  -1.482   2.876  0.00  0.00    -0.030 A 
ATOM     10  C   UNL     1       2.476  -2.011   1.904  0.00  0.00    -0.005 A 
ATOM     11  S   UNL     1       1.107  -2.703   2.798  0.00  0.00    -0.075 S 
ATOM     12  C   UNL     1       2.716  -2.006   0.429  0.00  0.00    +0.043 C 
ATOM     13  C   UNL     1       3.819  -0.981   0.124  0.00  0.00    +0.005 C 
ATOM     14  C   UNL     1       4.979  -1.202   1.099  0.00  0.00    +0.005 C 
ATOM     15  C   UNL     1       4.567  -0.775   2.509  0.00  0.00    +0.036 C 
ATOM     16  C   UNL     1       3.646  -1.119   5.390  0.00  0.00    +0.148 C 
ATOM     17  N   UNL     1       3.013   0.026   6.070  0.00  0.00    -0.268 N 
ATOM     18  C   UNL     1       3.740   1.063   6.530  0.00  0.00    +0.308 C 
ATOM     19  O   UNL     1       3.187   1.993   7.086  0.00  0.00    -0.252 OA
ATOM     20  N   UNL     1       5.078   1.071   6.373  0.00  0.00    -0.266 N 
ATOM     21  H   UNL     1       5.570   0.268   5.804  0.00  0.00    +0.156 HD
ENDROOT
BRANCH  20  22
ATOM     22  C   UNL     1       5.844   2.102   6.934  0.00  0.00    +0.077 A 
ATOM     23  C   UNL     1       5.283   3.355   7.135  0.00  0.00    +0.030 A 
ATOM     24  C   UNL     1       6.039   4.370   7.689  0.00  0.00    -0.048 A 
ATOM     25  C   UNL     1       7.356   4.140   8.045  0.00  0.00    +0.007 A 
ATOM     26  C   UNL     1       7.921   2.894   7.848  0.00  0.00    +0.048 A 
ATOM     27  C   UNL     1       7.168   1.870   7.298  0.00  0.00    +0.141 A 
ATOM     28  C   UNL     1       5.428   5.730   7.906  0.00  0.00    +0.044 C 
BRANCH  27  29
ATOM     29  O   UNL     1       7.722   0.643   7.108  0.00  0.00    -0.493 OA
ATOM     30  C   UNL     1       9.085   0.478   7.504  0.00  0.00    +0.277 C 
ENDBRANCH  27  29
ENDBRANCH  20  22
BRANCH   1  34
ATOM     31  C   UNL     1      -0.281   1.217   2.560  0.00  0.00    +0.121 A 
ATOM     32  C   UNL     1      -0.980   0.409   3.445  0.00  0.00    +0.046 A 
ATOM     33  C   UNL     1      -0.387   0.006   4.626  0.00  0.00    +0.009 A 
ATOM     34  C   UNL     1       0.897   0.417   4.931  0.00  0.00    -0.021 A 
ATOM     35  C   UNL     1       1.594   1.226   4.053  0.00  0.00    +0.009 A 
ATOM     36  C   UNL     1       1.008   1.627   2.868  0.00  0.00    +0.046 A 
BRANCH  31  37
ATOM     37  O   UNL     1      -0.859   1.610   1.394  0.00  0.00    -0.492 OA
BRANCH  37  39
ATOM     38  C   UNL     1      -2.668   1.690  -0.206  0.00  0.00    +0.048 C 
ATOM     39  C   UNL     1      -2.188   1.150   1.142  0.00  0.00    +0.225 C 
ENDBRANCH  37  39
ENDBRANCH  31  37
ENDBRANCH   1  34
TORSDOF 5
