REMARK  Name = ZINC39711396
REMARK  10 active torsions:
REMARK  status: ('A' for Active; 'I' for Inactive)
REMARK    1  A    between atoms: C_1  and  C_2
REMARK    2  A    between atoms: C_2  and  O_3
REMARK    3  A    between atoms: O_3  and  C_4
REMARK    4  A    between atoms: C_11  and  C_16
REMARK    5  A    between atoms: C_16  and  C_18
REMARK    6  A    between atoms: C_16  and  N_28
REMARK    7  A    between atoms: N_23  and  C_24
REMARK    8  A    between atoms: C_24  and  C_25
REMARK    9  A    between atoms: C_24  and  C_26
REMARK   10  A    between atoms: C_24  and  C_27
REMARK                            x       y       z     vdW  Elec       q    Type
REMARK                         _______ _______ _______ _____ _____    ______ ____
ROOT
ATOM      1  C   UNL     1      -4.934  -6.344   1.228  0.00  0.00    -0.009 C 
ENDROOT
BRANCH   1   9
ATOM      2  C   UNL     1      -1.583  -1.591   0.719  0.00  0.00    +0.121 A 
ATOM      3  C   UNL     1      -0.442  -2.364   0.478  0.00  0.00    +0.047 A 
ATOM      4  C   UNL     1      -0.503  -3.693   0.207  0.00  0.00    +0.027 A 
ATOM      5  C   UNL     1      -1.743  -4.357   0.155  0.00  0.00    +0.041 A 
ATOM      6  N   UNL     1      -1.788  -5.662  -0.113  0.00  0.00    -0.285 N 
ATOM      7  C   UNL     1      -2.917  -6.348  -0.177  0.00  0.00    +0.223 C 
ATOM      8  O   UNL     1      -2.894  -7.538  -0.426  0.00  0.00    -0.275 OA
ATOM      9  C   UNL     1      -4.235  -5.646   0.060  0.00  0.00    +0.088 C 
ATOM     10  C   UNL     1      -4.189  -4.162   0.365  0.00  0.00    -0.006 C 
ATOM     11  C   UNL     1      -2.962  -3.569   0.404  0.00  0.00    -0.004 A 
ATOM     12  C   UNL     1      -2.828  -2.142   0.697  0.00  0.00    +0.055 A 
ATOM     13  H   UNL     1      -0.953  -6.131  -0.269  0.00  0.00    +0.155 HD
BRANCH   2  14
ATOM     14  O   UNL     1      -1.446  -0.265   0.985  0.00  0.00    -0.492 OA
BRANCH  14  16
ATOM     15  C   UNL     1      -0.163   1.757   1.311  0.00  0.00    +0.048 C 
ATOM     16  C   UNL     1      -0.117   0.261   0.996  0.00  0.00    +0.225 C 
ENDBRANCH  14  16
ENDBRANCH   2  14
ENDBRANCH   1   9
BRANCH   1  17
ATOM     17  N   UNL     1      -5.119  -7.766   0.910  0.00  0.00    +0.388 N 
ATOM     18  C   UNL     1      -5.797  -7.895  -0.390  0.00  0.00    -0.073 C 
ATOM     19  C   UNL     1      -5.706  -9.352  -0.845  0.00  0.00    +0.017 C 
ATOM     20  C   UNL     1      -6.171 -10.262   0.263  0.00  0.00    -0.048 A 
ATOM     21  C   UNL     1      -6.495 -11.574  -0.046  0.00  0.00    +0.004 A 
ATOM     22  C   UNL     1      -6.921 -12.438   0.943  0.00  0.00    +0.000 A 
ATOM     23  C   UNL     1      -7.025 -11.992   2.248  0.00  0.00    +0.000 A 
ATOM     24  C   UNL     1      -6.704 -10.685   2.556  0.00  0.00    +0.002 A 
ATOM     25  C   UNL     1      -6.277  -9.816   1.563  0.00  0.00    -0.061 A 
ATOM     26  C   UNL     1      -5.946  -8.396   1.943  0.00  0.00    -0.042 C 
ATOM     27  H   UNL     1      -4.221  -8.223   0.870  0.00  0.00    -0.081 HD
ENDBRANCH   1  17
BRANCH   1  28
ATOM     28  C   UNL     1      -4.077  -6.211   2.489  0.00  0.00    +0.205 C 
ATOM     29  N   UNL     1      -2.878  -7.054   2.384  0.00  0.00    -0.152 NA
ATOM     30  N   UNL     1      -2.896  -7.888   3.292  0.00  0.00    -0.070 NA
ATOM     31  N   UNL     1      -4.018  -7.773   4.111  0.00  0.00    -0.179 N 
ATOM     32  N   UNL     1      -4.802  -6.738   3.664  0.00  0.00    -0.183 NA
ATOM     33  H   UNL     1      -4.215  -8.336   4.877  0.00  0.00    +0.191 HD
BRANCH  32  34
ATOM     34  C   UNL     1      -4.952  -5.705   4.696  0.00  0.00    +0.035 C 
ATOM     35  C   UNL     1      -5.702  -4.505   4.112  0.00  0.00    +0.029 C 
ATOM     36  C   UNL     1      -5.742  -6.274   5.877  0.00  0.00    +0.029 C 
ATOM     37  C   UNL     1      -3.570  -5.257   5.176  0.00  0.00    +0.029 C 
ENDBRANCH  32  34
ENDBRANCH   1  28
TORSDOF 6
