REMARK  Name = ZINC35866895
REMARK  3 active torsions:
REMARK  status: ('A' for Active; 'I' for Inactive)
REMARK    1  A    between atoms: C_4  and  N_11
REMARK    2  A    between atoms: C_5  and  C_7
REMARK    3  A    between atoms: C_27  and  C_29
REMARK                            x       y       z     vdW  Elec       q    Type
REMARK                         _______ _______ _______ _____ _____    ______ ____
ROOT
ATOM      1  N   UNL     1       3.609  -0.668  -0.070  0.00  0.00    -0.269 N 
ATOM      2  C   UNL     1       4.766   0.019  -0.147  0.00  0.00    +0.307 C 
ATOM      3  O   UNL     1       4.754   1.235  -0.111  0.00  0.00    -0.252 OA
ATOM      4  N   UNL     1       5.935  -0.640  -0.264  0.00  0.00    -0.282 N 
ATOM      5  C   UNL     1       5.957  -2.103  -0.410  0.00  0.00    +0.128 C 
ATOM      6  C   UNL     1       6.741  -2.456  -1.681  0.00  0.00    +0.125 C 
ATOM      7  N   UNL     1       8.016  -1.726  -1.664  0.00  0.00    -0.312 N 
ATOM      8  C   UNL     1       7.994  -0.264  -1.517  0.00  0.00    +0.125 C 
ATOM      9  C   UNL     1       7.210   0.090  -0.253  0.00  0.00    +0.128 C 
ATOM     10  C   UNL     1       9.216  -2.403  -1.784  0.00  0.00    +0.133 A 
ATOM     11  C   UNL     1       9.726  -2.746  -3.067  0.00  0.00    +0.051 A 
ATOM     12  C   UNL     1       9.144  -2.483  -4.385  0.00  0.00    -0.025 A 
ATOM     13  C   UNL     1       9.836  -2.918  -5.457  0.00  0.00    -0.004 A 
ATOM     14  S   UNL     1      11.284  -3.694  -4.789  0.00  0.00    -0.073 S 
ATOM     15  C   UNL     1      10.956  -3.434  -3.066  0.00  0.00    +0.114 A 
ATOM     16  N   UNL     1      11.578  -3.732  -1.942  0.00  0.00    -0.224 NA
ATOM     17  C   UNL     1      11.055  -3.388  -0.780  0.00  0.00    +0.135 A 
ATOM     18  N   UNL     1       9.909  -2.736  -0.707  0.00  0.00    -0.216 NA
ATOM     19  C   UNL     1       9.459  -2.775  -6.900  0.00  0.00    +0.043 C 
ATOM     20  C   UNL     1       7.976  -2.384  -6.977  0.00  0.00    +0.005 C 
ATOM     21  C   UNL     1       7.720  -1.236  -5.995  0.00  0.00    +0.005 C 
ATOM     22  C   UNL     1       7.816  -1.750  -4.559  0.00  0.00    +0.037 C 
ATOM     23  H   UNL     1       3.621  -1.638  -0.059  0.00  0.00    +0.156 HD
ENDROOT
BRANCH   1  27
ATOM     24  C   UNL     1      -0.018   1.374   0.114  0.00  0.00    +0.001 A 
ATOM     25  C   UNL     1       1.144   1.991   0.540  0.00  0.00    +0.002 A 
ATOM     26  C   UNL     1       2.347   1.317   0.480  0.00  0.00    +0.024 A 
ATOM     27  C   UNL     1       2.390   0.018  -0.008  0.00  0.00    +0.046 A 
ATOM     28  C   UNL     1       1.222  -0.600  -0.434  0.00  0.00    +0.076 A 
ATOM     29  C   UNL     1       0.021   0.080  -0.372  0.00  0.00    +0.014 A 
BRANCH  28  30
ATOM     30  C   UNL     1       1.264  -2.010  -0.965  0.00  0.00    +0.419 C 
ATOM     31  F   UNL     1      -0.026  -2.410  -1.328  0.00  0.00    -0.166 F 
ATOM     32  F   UNL     1       2.101  -2.062  -2.085  0.00  0.00    -0.166 F 
ATOM     33  F   UNL     1       1.757  -2.866   0.026  0.00  0.00    -0.166 F 
ENDBRANCH  28  30
ENDBRANCH   1  27
BRANCH  17  34
ATOM     34  C   UNL     1      11.786  -3.741   0.490  0.00  0.00    +0.057 C 
ATOM     35  C   UNL     1      13.202  -4.306   0.357  0.00  0.00    +0.012 C 
ATOM     36  C   UNL     1      12.047  -5.223   0.766  0.00  0.00    +0.012 C 
ENDBRANCH  17  34
TORSDOF 3
