REMARK  Name = ZINC60157836
REMARK  8 active torsions:
REMARK  status: ('A' for Active; 'I' for Inactive)
REMARK    1  A    between atoms: C_1  and  C_2
REMARK    2  A    between atoms: C_3  and  C_9
REMARK    3  A    between atoms: C_4  and  C_8
REMARK    4  A    between atoms: N_5  and  C_7
REMARK    5  A    between atoms: C_9  and  C_11
REMARK    6  A    between atoms: C_9  and  N_12
REMARK    7  A    between atoms: C_13  and  C_15
REMARK    8  A    between atoms: C_18  and  C_20
REMARK                            x       y       z     vdW  Elec       q    Type
REMARK                         _______ _______ _______ _____ _____    ______ ____
ROOT
ATOM      1  N   UNL     1      -0.616   0.845  -2.745  0.00  0.00    -0.304 N 
ATOM      2  C   UNL     1      -1.168   1.100  -3.947  0.00  0.00    +0.251 C 
ATOM      3  O   UNL     1      -0.975   0.341  -4.879  0.00  0.00    -0.270 OA
ATOM      4  H   UNL     1      -0.769   1.450  -2.002  0.00  0.00    +0.150 HD
ENDROOT
BRANCH   2   5
ATOM      5  C   UNL     1      -2.001   2.291  -4.133  0.00  0.00    +0.074 A 
ATOM      6  C   UNL     1      -2.658   2.725  -5.274  0.00  0.00    +0.021 A 
ATOM      7  C   UNL     1      -3.387   3.880  -5.213  0.00  0.00    +0.017 A 
ATOM      8  C   UNL     1      -3.441   4.571  -4.013  0.00  0.00    +0.020 A 
ATOM      9  S   UNL     1      -2.438   3.550  -2.945  0.00  0.00    -0.084 S 
BRANCH   8  10
ATOM     10  C   UNL     1      -4.152   5.827  -3.696  0.00  0.00    -0.011 A 
ATOM     11  C   UNL     1      -4.902   6.475  -4.679  0.00  0.00    +0.010 A 
ATOM     12  C   UNL     1      -5.563   7.647  -4.378  0.00  0.00    +0.020 A 
ATOM     13  C   UNL     1      -5.484   8.182  -3.103  0.00  0.00    +0.041 A 
ATOM     14  C   UNL     1      -4.741   7.544  -2.123  0.00  0.00    +0.020 A 
ATOM     15  C   UNL     1      -4.080   6.368  -2.411  0.00  0.00    +0.010 A 
ATOM     16 CL   UNL     1      -6.319   9.658  -2.731  0.00  0.00    -0.084 Cl
ENDBRANCH   8  10
ENDBRANCH   2   5
BRANCH   1  17
ATOM     17  C   UNL     1       0.218  -0.346  -2.559  0.00  0.00    +0.104 C 
ATOM     18  C   UNL     1       1.648  -0.043  -3.010  0.00  0.00    +0.033 C 
BRANCH  17  21
ATOM     19  C   UNL     1      -0.183  -3.272  -1.411  0.00  0.00    +0.068 C 
ATOM     20  C   UNL     1       0.045  -2.025  -0.595  0.00  0.00    +0.065 A 
ATOM     21  C   UNL     1       0.222  -0.734  -1.103  0.00  0.00    +0.016 A 
ATOM     22  C   UNL     1       0.398   0.105  -0.056  0.00  0.00    +0.041 A 
ATOM     23  N   UNL     1       0.335  -0.630   1.075  0.00  0.00    -0.271 N 
ATOM     24  N   UNL     1       0.108  -1.963   0.710  0.00  0.00    -0.176 NA
ATOM     25  C   UNL     1       0.474  -0.121   2.442  0.00  0.00    +0.172 C 
ATOM     26  C   UNL     1       0.624   1.592  -0.137  0.00  0.00    +0.065 C 
ENDBRANCH  17  21
ENDBRANCH   1  17
TORSDOF 4
