REMARK  Name = ZINC20617657
REMARK  11 active torsions:
REMARK  status: ('A' for Active; 'I' for Inactive)
REMARK    1  A    between atoms: C_1  and  C_2
REMARK    2  A    between atoms: C_7  and  N_8
REMARK    3  A    between atoms: C_9  and  C_11
REMARK    4  A    between atoms: C_14  and  C_31
REMARK    5  A    between atoms: C_17  and  C_30
REMARK    6  A    between atoms: N_21  and  C_22
REMARK    7  A    between atoms: C_26  and  S_28
REMARK    8  A    between atoms: S_28  and  C_29
REMARK    9  A    between atoms: C_31  and  O_32
REMARK   10  A    between atoms: O_32  and  C_33
REMARK   11  A    between atoms: C_33  and  C_35
REMARK                            x       y       z     vdW  Elec       q    Type
REMARK                         _______ _______ _______ _____ _____    ______ ____
ROOT
ATOM      1  C   UNL     1      -1.216   1.764  -0.002  0.00  0.00    +0.098 A 
ATOM      2  C   UNL     1      -0.032   1.061  -0.016  0.00  0.00    +0.030 A 
ATOM      3  C   UNL     1       1.210   1.838  -0.036  0.00  0.00    +0.028 A 
ATOM      4  C   UNL     1       2.446   1.245  -0.317  0.00  0.00    +0.018 A 
ATOM      5  C   UNL     1       3.572   2.042  -0.321  0.00  0.00    +0.118 A 
ATOM      6  N   UNL     1       3.496   3.335  -0.068  0.00  0.00    -0.256 NA
ATOM      7  C   UNL     1       2.356   3.939   0.203  0.00  0.00    +0.081 A 
ATOM      8  C   UNL     1       1.170   3.220   0.232  0.00  0.00    +0.159 A 
ATOM      9  O   UNL     1      -0.012   3.816   0.512  0.00  0.00    -0.437 OA
ATOM     10  C   UNL     1      -1.128   3.238  -0.002  0.00  0.00    +0.212 A 
ATOM     11  N   UNL     1      -2.104   3.971  -0.491  0.00  0.00    -0.325 N 
ATOM     12  C   UNL     1       2.341   5.420   0.483  0.00  0.00    +0.069 C 
ATOM     13  H   UNL     1      -3.036   3.493  -0.828  0.00  0.00    +0.169 HD
ENDROOT
BRANCH  11  14
ATOM     14  C   UNL     1      -1.962   5.328  -0.580  0.00  0.00    +0.043 A 
ATOM     15  C   UNL     1      -2.260   6.139   0.519  0.00  0.00    +0.026 A 
ATOM     16  C   UNL     1      -2.111   7.507   0.428  0.00  0.00    +0.003 A 
ATOM     17  C   UNL     1      -1.676   8.083  -0.751  0.00  0.00    +0.015 A 
ATOM     18  C   UNL     1      -1.381   7.287  -1.852  0.00  0.00    +0.010 A 
ATOM     19  C   UNL     1      -1.523   5.910  -1.770  0.00  0.00    +0.040 A 
BRANCH  18  20
ATOM     20  S   UNL     1      -0.827   8.027  -3.352  0.00  0.00    -0.129 S 
ATOM     21  C   UNL     1      -0.801   9.803  -2.981  0.00  0.00    +0.090 C 
ENDBRANCH  18  20
ENDBRANCH  11  14
BRANCH   1  23
ATOM     22  N   UNL     1      -3.661   1.788   0.028  0.00  0.00    -0.281 N 
ATOM     23  C   UNL     1      -2.518   1.073   0.015  0.00  0.00    +0.253 C 
ATOM     24  O   UNL     1      -2.562  -0.143   0.018  0.00  0.00    -0.270 OA
ATOM     25  H   UNL     1      -3.624   2.884  -0.049  0.00  0.00    +0.155 HD
BRANCH  22  32
ATOM     26  C   UNL     1      -5.733   3.071   1.496  0.00  0.00    +0.045 C 
ATOM     27  C   UNL     1      -5.931   1.726   0.846  0.00  0.00    -0.029 A 
ATOM     28  C   UNL     1      -7.149   1.081   0.950  0.00  0.00    +0.005 A 
ATOM     29  C   UNL     1      -7.330  -0.156   0.359  0.00  0.00    +0.000 A 
ATOM     30  C   UNL     1      -6.296  -0.749  -0.343  0.00  0.00    +0.002 A 
ATOM     31  C   UNL     1      -5.078  -0.107  -0.455  0.00  0.00    +0.023 A 
ATOM     32  C   UNL     1      -4.893   1.135   0.139  0.00  0.00    +0.037 A 
ENDBRANCH  22  32
ENDBRANCH   1  23
BRANCH   4  33
ATOM     33  C   UNL     1       2.545  -0.231  -0.608  0.00  0.00    +0.269 C 
BRANCH  33  34
ATOM     34  O   UNL     1       3.930  -0.582  -0.864  0.00  0.00    -0.460 OA
BRANCH  34  35
ATOM     35  C   UNL     1       4.192  -1.869  -1.141  0.00  0.00    +0.304 C 
ATOM     36  O   UNL     1       3.292  -2.675  -1.170  0.00  0.00    -0.251 OA
ATOM     37  C   UNL     1       5.606  -2.308  -1.418  0.00  0.00    +0.136 C 
ENDBRANCH  34  35
ENDBRANCH  33  34
ENDBRANCH   4  33
TORSDOF 7
