REMARK  Name = ZINC13335618
REMARK  11 active torsions:
REMARK  status: ('A' for Active; 'I' for Inactive)
REMARK    1  A    between atoms: C_1  and  C_2
REMARK    2  A    between atoms: C_5  and  N_9
REMARK    3  A    between atoms: C_10  and  C_35
REMARK    4  A    between atoms: C_12  and  C_15
REMARK    5  A    between atoms: C_13  and  C_14
REMARK    6  A    between atoms: C_15  and  C_17
REMARK    7  A    between atoms: C_17  and  S_18
REMARK    8  A    between atoms: S_18  and  C_19
REMARK    9  A    between atoms: N_29  and  C_30
REMARK   10  A    between atoms: C_30  and  C_32
REMARK   11  A    between atoms: C_30  and  C_33
REMARK                            x       y       z     vdW  Elec       q    Type
REMARK                         _______ _______ _______ _____ _____    ______ ____
ROOT
ATOM      1  C   UNL     1      -2.578   1.724   0.025  0.00  0.00    +0.157 C 
ENDROOT
BRANCH   1   2
ATOM      2  C   UNL     1      -1.198   2.331   0.021  0.00  0.00    +0.175 C 
ATOM      3  O   UNL     1      -1.066   3.537   0.026  0.00  0.00    -0.291 OA
BRANCH   2   7
ATOM      4  N   UNL     1       2.076   0.757  -0.014  0.00  0.00    -0.317 N 
ATOM      5  C   UNL     1       1.296  -0.366  -0.012  0.00  0.00    +0.022 A 
ATOM      6  C   UNL     1       0.002  -0.004   0.002  0.00  0.00    +0.034 A 
ATOM      7  C   UNL     1      -0.018   1.465   0.010  0.00  0.00    +0.039 A 
ATOM      8  C   UNL     1       1.306   1.862  -0.000  0.00  0.00    +0.031 A 
ATOM      9  C   UNL     1       1.802   3.285   0.002  0.00  0.00    +0.064 C 
ATOM     10  C   UNL     1       1.806  -1.784  -0.024  0.00  0.00    +0.064 C 
BRANCH   4  15
ATOM     11  C   UNL     1       7.752   0.756  -0.072  0.00  0.00    +0.047 C 
ATOM     12  C   UNL     1       6.245   0.757  -0.056  0.00  0.00    -0.015 A 
ATOM     13  C   UNL     1       5.543   0.257  -1.137  0.00  0.00    +0.008 A 
ATOM     14  C   UNL     1       4.162   0.255  -1.126  0.00  0.00    +0.026 A 
ATOM     15  C   UNL     1       3.477   0.757  -0.027  0.00  0.00    +0.049 A 
ATOM     16  C   UNL     1       4.182   1.265   1.055  0.00  0.00    +0.064 A 
ATOM     17  C   UNL     1       5.566   1.259   1.041  0.00  0.00    +0.128 A 
ATOM     18  F   UNL     1       6.254   1.748   2.096  0.00  0.00    -0.205 F 
ENDBRANCH   4  15
ENDBRANCH   2   7
ENDBRANCH   1   2
BRANCH   1  19
ATOM     19  S   UNL     1      -3.817   3.044   0.038  0.00  0.00    -0.080 S 
BRANCH  19  20
ATOM     20  C   UNL     1      -5.291   2.079   0.041  0.00  0.00    +0.173 A 
ATOM     21  N   UNL     1      -5.183   0.773   0.034  0.00  0.00    -0.223 NA
ATOM     22  C   UNL     1      -6.269  -0.026   0.035  0.00  0.00    +0.079 A 
ATOM     23  C   UNL     1      -6.153  -1.420   0.027  0.00  0.00    +0.028 A 
ATOM     24  C   UNL     1      -7.280  -2.192   0.029  0.00  0.00    +0.002 A 
ATOM     25  C   UNL     1      -8.543  -1.613   0.038  0.00  0.00    +0.001 A 
ATOM     26  C   UNL     1      -8.689  -0.253   0.047  0.00  0.00    +0.015 A 
ATOM     27  C   UNL     1      -7.556   0.559   0.045  0.00  0.00    +0.065 A 
ATOM     28  C   UNL     1      -7.651   2.025   0.053  0.00  0.00    +0.263 A 
ATOM     29  O   UNL     1      -8.730   2.587   0.062  0.00  0.00    -0.267 OA
ATOM     30  N   UNL     1      -6.494   2.726   0.056  0.00  0.00    -0.273 N 
BRANCH  30  31
ATOM     31  C   UNL     1      -6.531   4.191   0.069  0.00  0.00    +0.202 C 
ATOM     32  C   UNL     1      -7.274   4.694  -1.170  0.00  0.00    +0.043 C 
BRANCH  31  33
ATOM     33  C   UNL     1      -7.244   4.664   1.310  0.00  0.00    +0.378 C 
ATOM     34  O   UNL     1      -7.677   3.860   2.101  0.00  0.00    -0.244 OA
ATOM     35  O   UNL     1      -7.398   5.978   1.535  0.00  0.00    -0.244 OA
ENDBRANCH  31  33
ENDBRANCH  30  31
ENDBRANCH  19  20
ENDBRANCH   1  19
TORSDOF 7
