REMARK  Name = ZINC26503388
REMARK  13 active torsions:
REMARK  status: ('A' for Active; 'I' for Inactive)
REMARK    1  A    between atoms: C_1  and  C_2
REMARK    2  A    between atoms: C_2  and  C_3
REMARK    3  A    between atoms: C_3  and  C_4
REMARK    4  A    between atoms: C_4  and  C_5
REMARK    5  A    between atoms: C_5  and  C_7
REMARK    6  A    between atoms: C_5  and  C_9
REMARK    7  A    between atoms: C_7  and  C_8
REMARK    8  A    between atoms: C_9  and  N_10
REMARK    9  A    between atoms: C_14  and  C_15
REMARK   10  A    between atoms: C_16  and  N_27
REMARK   11  A    between atoms: C_19  and  C_26
REMARK   12  A    between atoms: C_29  and  C_36
REMARK   13  A    between atoms: C_32  and  C_35
REMARK                            x       y       z     vdW  Elec       q    Type
REMARK                         _______ _______ _______ _____ _____    ______ ____
ROOT
ATOM      1  C   UNL     1      -8.373  -5.696   2.554  0.00  0.00    +0.081 A 
ATOM      2  C   UNL     1      -9.213  -5.731   3.692  0.00  0.00    +0.136 A 
ATOM      3  N   UNL     1     -10.418  -6.274   3.598  0.00  0.00    -0.213 NA
ATOM      4  C   UNL     1     -10.866  -6.790   2.453  0.00  0.00    +0.145 A 
ATOM      5  C   UNL     1     -12.155  -7.352   2.414  0.00  0.00    -0.007 A 
ATOM      6  C   UNL     1     -12.621  -7.882   1.248  0.00  0.00    +0.008 A 
ATOM      7  C   UNL     1     -11.810  -7.860   0.105  0.00  0.00    +0.019 A 
ATOM      8  C   UNL     1     -10.574  -7.315   0.161  0.00  0.00    +0.096 A 
ATOM      9  N   UNL     1     -10.098  -6.782   1.322  0.00  0.00    -0.267 N 
ATOM     10  C   UNL     1      -8.861  -6.241   1.342  0.00  0.00    +0.267 A 
ATOM     11  O   UNL     1      -8.174  -6.227   0.335  0.00  0.00    -0.267 OA
ATOM     12  C   UNL     1     -13.013  -7.368   3.652  0.00  0.00    +0.047 C 
ENDROOT
BRANCH   1  17
ATOM     13  N   UNL     1      -3.704  -6.509   2.314  0.00  0.00    -0.255 N 
ATOM     14  C   UNL     1      -4.599  -5.557   2.512  0.00  0.00    +0.258 C 
ATOM     15  O   UNL     1      -4.254  -4.410   2.735  0.00  0.00    -0.269 OA
ATOM     16  C   UNL     1      -5.978  -5.909   2.457  0.00  0.00    +0.077 C 
ATOM     17  C   UNL     1      -7.082  -5.123   2.623  0.00  0.00    +0.037 C 
ATOM     18  S   UNL     1      -5.869  -7.659   2.109  0.00  0.00    -0.061 S 
ATOM     19  C   UNL     1      -4.088  -7.781   2.061  0.00  0.00    +0.121 C 
ATOM     20  S   UNL     1      -3.113  -9.158   1.770  0.00  0.00    -0.027 S 
BRANCH  13  21
ATOM     21  C   UNL     1      -2.277  -6.181   2.365  0.00  0.00    +0.118 C 
BRANCH  21  22
ATOM     22  C   UNL     1      -1.770  -5.894   0.950  0.00  0.00    +0.007 C 
BRANCH  22  23
ATOM     23  C   UNL     1      -0.264  -5.630   0.993  0.00  0.00    +0.002 C 
ATOM     24  C   UNL     1       0.468  -6.911   1.399  0.00  0.00    +0.004 C 
ENDBRANCH  22  23
BRANCH  22  25
ATOM     25  C   UNL     1      -2.488  -4.665   0.391  0.00  0.00    +0.005 C 
BRANCH  25  26
ATOM     26  C   UNL     1      -2.074  -4.451  -1.067  0.00  0.00    +0.000 C 
BRANCH  26  28
ATOM     27  C   UNL     1      -2.377  -3.007  -3.083  0.00  0.00    +0.004 C 
ATOM     28  C   UNL     1      -2.792  -3.221  -1.626  0.00  0.00    -0.003 C 
ENDBRANCH  26  28
ENDBRANCH  25  26
ENDBRANCH  22  25
ENDBRANCH  21  22
ENDBRANCH  13  21
ENDBRANCH   1  17
BRANCH   2  29
ATOM     29  N   UNL     1      -8.779  -5.207   4.890  0.00  0.00    -0.314 N 
ATOM     30  C   UNL     1      -9.115  -3.828   5.268  0.00  0.00    +0.109 C 
ATOM     31  C   UNL     1      -9.771  -3.842   6.652  0.00  0.00    +0.004 C 
ATOM     32  C   UNL     1      -8.850  -4.558   7.642  0.00  0.00    +0.009 C 
ATOM     33  C   UNL     1      -8.642  -6.006   7.192  0.00  0.00    +0.004 C 
ATOM     34  C   UNL     1      -7.978  -6.018   5.816  0.00  0.00    +0.109 C 
ATOM     35  C   UNL     1      -7.748  -6.731   8.200  0.00  0.00    +0.009 C 
ATOM     36  C   UNL     1     -10.006  -2.404   7.121  0.00  0.00    +0.009 C 
ENDBRANCH   2  29
TORSDOF 8
