REMARK  Name = ZINC64439069
REMARK  7 active torsions:
REMARK  status: ('A' for Active; 'I' for Inactive)
REMARK    1  A    between atoms: C_1  and  C_2
REMARK    2  A    between atoms: C_2  and  N_3
REMARK    3  A    between atoms: C_11  and  N_15
REMARK    4  A    between atoms: C_19  and  C_22
REMARK    5  A    between atoms: N_24  and  C_25
REMARK    6  A    between atoms: C_25  and  C_26
REMARK    7  A    between atoms: C_26  and  C_27
REMARK                            x       y       z     vdW  Elec       q    Type
REMARK                         _______ _______ _______ _____ _____    ______ ____
ROOT
ATOM      1  N   UNL     1      -3.332  -2.777  -1.242  0.00  0.00    -0.276 NA
ATOM      2  C   UNL     1      -2.649  -3.219  -2.465  0.00  0.00    +0.086 C 
ATOM      3  C   UNL     1      -2.468  -4.738  -2.429  0.00  0.00    +0.016 C 
ATOM      4  C   UNL     1      -3.840  -5.409  -2.317  0.00  0.00    +0.015 C 
ATOM      5  C   UNL     1      -4.550  -4.895  -1.061  0.00  0.00    +0.089 C 
ATOM      6  C   UNL     1      -4.671  -3.371  -1.137  0.00  0.00    +0.099 C 
ENDROOT
BRANCH   1  15
ATOM      7  N   UNL     1      -1.372  -0.511   0.012  0.00  0.00    -0.252 N 
ATOM      8  C   UNL     1      -2.009  -0.751   1.231  0.00  0.00    +0.149 A 
ATOM      9  C   UNL     1      -3.394  -0.943   1.253  0.00  0.00    +0.069 A 
ATOM     10  C   UNL     1      -4.034  -1.174   2.458  0.00  0.00    +0.028 A 
ATOM     11  C   UNL     1      -3.262  -1.210   3.614  0.00  0.00    +0.022 A 
ATOM     12  C   UNL     1      -1.898  -1.016   3.520  0.00  0.00    +0.113 A 
ATOM     13  N   UNL     1      -1.315  -0.796   2.356  0.00  0.00    -0.238 NA
ATOM     14  N   UNL     1      -4.104  -0.904   0.047  0.00  0.00    -0.319 N 
ATOM     15  C   UNL     1      -3.400  -1.311  -1.178  0.00  0.00    +0.230 C 
ATOM     16  C   UNL     1      -2.007  -0.735  -1.153  0.00  0.00    +0.256 C 
ATOM     17  O   UNL     1      -1.449  -0.473  -2.198  0.00  0.00    -0.272 OA
ATOM     18  H   UNL     1      -5.031  -0.618   0.021  0.00  0.00    +0.148 HD
BRANCH   7  20
ATOM     19  C   UNL     1      -0.019   1.526   0.010  0.00  0.00    +0.025 C 
ATOM     20  C   UNL     1       0.002  -0.004   0.002  0.00  0.00    +0.112 C 
ENDBRANCH   7  20
ENDBRANCH   1  15
BRANCH   5  21
ATOM     21  C   UNL     1      -5.925  -5.506  -0.975  0.00  0.00    +0.217 C 
ATOM     22  O   UNL     1      -6.906  -4.793  -0.970  0.00  0.00    -0.275 OA
ATOM     23  N   UNL     1      -6.064  -6.844  -0.902  0.00  0.00    -0.315 N 
ATOM     24  H   UNL     1      -5.279  -7.414  -0.905  0.00  0.00    +0.149 HD
BRANCH  23  25
ATOM     25  C   UNL     1      -7.400  -7.438  -0.818  0.00  0.00    +0.108 C 
BRANCH  25  26
ATOM     26  C   UNL     1      -7.278  -8.961  -0.746  0.00  0.00    +0.052 C 
BRANCH  26  27
ATOM     27  C   UNL     1      -8.653  -9.572  -0.659  0.00  0.00    -0.040 C 
ATOM     28  C   UNL     1      -9.398 -10.047  -1.684  0.00  0.00    +0.000 A 
ATOM     29  C   UNL     1      -9.161 -10.132  -3.130  0.00  0.00    +0.030 A 
ATOM     30  C   UNL     1     -10.117 -10.670  -3.921  0.00  0.00    +0.042 A 
ATOM     31  C   UNL     1     -11.327 -11.147  -3.395  0.00  0.00    +0.022 A 
ATOM     32  C   UNL     1     -11.617 -11.103  -2.078  0.00  0.00    +0.027 A 
ATOM     33  C   UNL     1     -10.682 -10.558  -1.154  0.00  0.00    +0.043 A 
ATOM     34  N   UNL     1     -10.729 -10.405   0.147  0.00  0.00    -0.380 N 
ATOM     35  C   UNL     1      -9.476  -9.785   0.591  0.00  0.00    +0.144 C 
ATOM     36 CL   UNL     1      -9.840 -10.773  -5.632  0.00  0.00    -0.084 Cl
ATOM     37  H   UNL     1     -11.468 -10.662   0.721  0.00  0.00    +0.160 HD
ENDBRANCH  26  27
ENDBRANCH  25  26
ENDBRANCH  23  25
ENDBRANCH   5  21
TORSDOF 6
