REMARK  Name = ZINC12754964
REMARK  5 active torsions:
REMARK  status: ('A' for Active; 'I' for Inactive)
REMARK    1  A    between atoms: C_3  and  C_9
REMARK    2  A    between atoms: C_9  and  N_59
REMARK    3  A    between atoms: C_15  and  C_17
REMARK    4  A    between atoms: C_17  and  C_18
REMARK    5  A    between atoms: N_23  and  C_27
REMARK                            x       y       z     vdW  Elec       q    Type
REMARK                         _______ _______ _______ _____ _____    ______ ____
ROOT
ATOM      1  C   UNL     1       6.919   1.375  -0.666  0.00  0.00    -0.058 C 
ATOM      2  C   UNL     1       5.800   0.496  -0.105  0.00  0.00    +0.085 C 
ATOM      3  N   UNL     1       4.536   0.812  -0.765  0.00  0.00    -0.318 N 
ATOM      4  C   UNL     1       4.334   1.947  -1.442  0.00  0.00    +0.200 C 
ATOM      5  O   UNL     1       3.243   2.143  -1.934  0.00  0.00    -0.278 OA
ATOM      6  C   UNL     1       5.401   2.990  -1.618  0.00  0.00    +0.028 C 
ATOM      7  H   UNL     1       3.812   0.169  -0.710  0.00  0.00    +0.149 HD
ATOM      8  N   UNL     1       6.464   2.779  -0.618  0.00  0.00    +0.391 N 
ATOM      9  H   UNL     1       6.090   2.979   0.317  0.00  0.00    -0.080 HD
ENDROOT
BRANCH   8  10
ATOM     10  C   UNL     1       7.600   3.691  -0.886  0.00  0.00    -0.039 C 
BRANCH  10  13
ATOM     11  C   UNL     1       9.352   4.457   2.370  0.00  0.00    +0.003 A 
ATOM     12  C   UNL     1       8.465   4.520   1.311  0.00  0.00    +0.005 A 
ATOM     13  C   UNL     1       8.567   3.620   0.267  0.00  0.00    -0.026 A 
ATOM     14  C   UNL     1       9.559   2.654   0.281  0.00  0.00    +0.160 A 
ATOM     15  C   UNL     1      10.448   2.591   1.343  0.00  0.00    +0.159 A 
ATOM     16  C   UNL     1      10.343   3.494   2.386  0.00  0.00    +0.041 A 
ATOM     17  F   UNL     1      11.417   1.650   1.358  0.00  0.00    -0.202 F 
ATOM     18  F   UNL     1       9.660   1.774  -0.739  0.00  0.00    -0.202 F 
ENDBRANCH  10  13
ENDBRANCH   8  10
BRANCH   6  19
ATOM     19  C   UNL     1       4.793   4.378  -1.413  0.00  0.00    +0.090 C 
BRANCH  19  20
ATOM     20  C   UNL     1       4.306   4.509   0.007  0.00  0.00    +0.215 C 
ATOM     21  O   UNL     1       4.365   3.558   0.758  0.00  0.00    -0.276 OA
ATOM     22  N   UNL     1       3.804   5.682   0.443  0.00  0.00    -0.291 N 
ATOM     23  C   UNL     1       3.314   5.840   1.822  0.00  0.00    +0.127 C 
ATOM     24  C   UNL     1       4.167   6.918   2.505  0.00  0.00    +0.127 C 
ATOM     25  N   UNL     1       4.309   8.085   1.646  0.00  0.00    -0.296 N 
ATOM     26  C   UNL     1       4.154   8.073   0.321  0.00  0.00    +0.233 C 
ATOM     27  O   UNL     1       4.375   9.094  -0.296  0.00  0.00    -0.274 OA
ATOM     28  C   UNL     1       3.718   6.853  -0.443  0.00  0.00    +0.203 C 
BRANCH  25  29
ATOM     29  C   UNL     1       4.644   9.363   2.281  0.00  0.00    +0.076 C 
ATOM     30  C   UNL     1       3.570  10.418   1.943  0.00  0.00    +0.022 C 
ATOM     31  C   UNL     1       4.371  11.733   1.773  0.00  0.00    +0.002 C 
ATOM     32  C   UNL     1       5.665  11.256   1.066  0.00  0.00    +0.002 C 
ATOM     33  C   UNL     1       5.975   9.895   1.723  0.00  0.00    +0.022 C 
ENDBRANCH  25  29
ENDBRANCH  19  20
ENDBRANCH   6  19
TORSDOF 5
