REMARK  Name = ZINC39666006
REMARK  12 active torsions:
REMARK  status: ('A' for Active; 'I' for Inactive)
REMARK    1  A    between atoms: C_1  and  C_2
REMARK    2  A    between atoms: C_5  and  O_8
REMARK    3  A    between atoms: O_8  and  C_9
REMARK    4  A    between atoms: C_9  and  C_11
REMARK    5  A    between atoms: C_9  and  C_12
REMARK    6  A    between atoms: C_12  and  N_13
REMARK    7  A    between atoms: C_14  and  C_16
REMARK    8  A    between atoms: C_27  and  C_29
REMARK    9  A    between atoms: C_32  and  O_37
REMARK   10  A    between atoms: C_34  and  O_35
REMARK   11  A    between atoms: O_35  and  C_36
REMARK   12  A    between atoms: O_37  and  C_38
REMARK                            x       y       z     vdW  Elec       q    Type
REMARK                         _______ _______ _______ _____ _____    ______ ____
ROOT
ATOM      1  C   UNL     1       4.467  -6.837   0.098  0.00  0.00    +0.100 C 
ATOM      2  C   UNL     1       5.438  -6.164   1.093  0.00  0.00    +0.121 C 
ATOM      3  N   UNL     1       6.089  -7.290   1.802  0.00  0.00    -0.296 N 
ATOM      4  C   UNL     1       6.313  -8.309   0.748  0.00  0.00    +0.115 C 
ATOM      5  C   UNL     1       5.047  -8.244  -0.129  0.00  0.00    -0.004 C 
ATOM      6  C   UNL     1       4.045  -9.306   0.314  0.00  0.00    -0.010 C 
ATOM      7  C   UNL     1       4.620 -10.695   0.026  0.00  0.00    -0.082 C 
ATOM      8  N   UNL     1       4.899 -10.824  -1.409  0.00  0.00    +0.379 N 
ATOM      9  C   UNL     1       5.932  -9.861  -1.808  0.00  0.00    -0.082 C 
ATOM     10  C   UNL     1       5.412  -8.436  -1.598  0.00  0.00    -0.010 C 
ATOM     11  C   UNL     1       6.406  -7.371   3.110  0.00  0.00    +0.250 C 
ATOM     12  O   UNL     1       6.238  -6.410   3.836  0.00  0.00    -0.270 OA
ATOM     13  H   UNL     1       5.221 -11.760  -1.605  0.00  0.00    -0.086 HD
ATOM     14  H   UNL     1       4.054 -10.645  -1.932  0.00  0.00    -0.086 HD
ENDROOT
BRANCH  11  15
ATOM     15  C   UNL     1       6.955  -8.623   3.659  0.00  0.00    +0.079 A 
ATOM     16  C   UNL     1       7.913  -9.344   2.939  0.00  0.00    +0.020 A 
ATOM     17  C   UNL     1       8.424 -10.513   3.456  0.00  0.00    +0.046 A 
ATOM     18  C   UNL     1       7.990 -10.981   4.692  0.00  0.00    +0.124 A 
ATOM     19  C   UNL     1       7.039 -10.274   5.413  0.00  0.00    +0.092 A 
ATOM     20  C   UNL     1       6.522  -9.094   4.908  0.00  0.00    +0.136 A 
BRANCH  20  21
ATOM     21  O   UNL     1       5.597  -8.398   5.614  0.00  0.00    -0.494 OA
ATOM     22  C   UNL     1       5.205  -8.938   6.878  0.00  0.00    +0.277 C 
ENDBRANCH  20  21
BRANCH  18  23
ATOM     23  O   UNL     1       8.498 -12.135   5.194  0.00  0.00    -0.495 OA
ATOM     24  C   UNL     1       9.473 -12.814   4.400  0.00  0.00    +0.277 C 
ENDBRANCH  18  23
ENDBRANCH  11  15
BRANCH   1  26
ATOM     25  N   UNL     1       2.011  -7.042  -0.114  0.00  0.00    -0.312 N 
ATOM     26  C   UNL     1       3.086  -6.929   0.692  0.00  0.00    +0.218 C 
ATOM     27  O   UNL     1       2.940  -6.900   1.896  0.00  0.00    -0.275 OA
ATOM     28  H   UNL     1       2.127  -7.065  -1.077  0.00  0.00    +0.149 HD
BRANCH  25  29
ATOM     29  C   UNL     1       0.668  -7.131   0.464  0.00  0.00    +0.148 C 
BRANCH  29  30
ATOM     30  C   UNL     1      -0.363  -7.251  -0.659  0.00  0.00    +0.187 C 
ATOM     31  C   UNL     1      -1.772  -7.218  -0.063  0.00  0.00    +0.053 C 
BRANCH  30  32
ATOM     32  O   UNL     1      -0.169  -8.485  -1.354  0.00  0.00    -0.488 OA
BRANCH  32  37
ATOM     33  C   UNL     1      -1.737  -8.648  -6.761  0.00  0.00    +0.044 C 
ATOM     34  C   UNL     1      -1.318  -8.604  -5.314  0.00  0.00    -0.050 A 
ATOM     35  C   UNL     1      -1.577  -7.479  -4.554  0.00  0.00    +0.007 A 
ATOM     36  C   UNL     1      -1.194  -7.436  -3.228  0.00  0.00    +0.046 A 
ATOM     37  C   UNL     1      -0.548  -8.524  -2.659  0.00  0.00    +0.121 A 
ATOM     38  C   UNL     1      -0.289  -9.652  -3.423  0.00  0.00    +0.046 A 
ATOM     39  C   UNL     1      -0.680  -9.692  -4.748  0.00  0.00    +0.007 A 
ENDBRANCH  32  37
ENDBRANCH  30  32
ENDBRANCH  29  30
ENDBRANCH  25  29
ENDBRANCH   1  26
TORSDOF 8
