REMARK  Name = ZINC06811950
REMARK  9 active torsions:
REMARK  status: ('A' for Active; 'I' for Inactive)
REMARK    1  A    between atoms: C_1  and  C_2
REMARK    2  A    between atoms: C_2  and  C_3
REMARK    3  A    between atoms: C_6  and  C_9
REMARK    4  A    between atoms: C_11  and  C_22
REMARK    5  A    between atoms: C_17  and  C_20
REMARK    6  A    between atoms: C_20  and  C_21
REMARK    7  A    between atoms: N_24  and  C_25
REMARK    8  A    between atoms: C_29  and  C_32
REMARK    9  A    between atoms: C_30  and  C_31
REMARK                            x       y       z     vdW  Elec       q    Type
REMARK                         _______ _______ _______ _____ _____    ______ ____
ROOT
ATOM      1  C   UNL     1      -0.019   1.093  -0.008  0.00  0.00    +0.140 C 
ATOM      2  C   UNL     1      -0.754   1.584   1.246  0.00  0.00    +0.166 C 
ATOM      3  S   UNL     1      -0.083   0.682   2.675  0.00  0.00    -0.069 S 
ATOM      4  C   UNL     1       1.629   0.814   2.263  0.00  0.00    +0.209 A 
ATOM      5  N   UNL     1       2.661   0.552   3.016  0.00  0.00    -0.121 NA
ATOM      6  N   UNL     1       3.743   0.757   2.347  0.00  0.00    -0.132 NA
ATOM      7  C   UNL     1       3.455   1.160   1.139  0.00  0.00    +0.151 A 
ATOM      8  N   UNL     1       2.094   1.218   1.044  0.00  0.00    -0.225 N 
ATOM      9  N   UNL     1       1.354   1.601  -0.028  0.00  0.00    -0.272 N 
ATOM     10  H   UNL     1       1.367   2.604  -0.137  0.00  0.00    +0.167 HD
ENDROOT
BRANCH   1  14
ATOM     11  C   UNL     1      -2.089   2.477  -3.478  0.00  0.00    -0.048 A 
ATOM     12  C   UNL     1      -2.277   1.183  -3.032  0.00  0.00    +0.004 A 
ATOM     13  C   UNL     1      -1.607   0.735  -1.909  0.00  0.00    +0.006 A 
ATOM     14  C   UNL     1      -0.749   1.581  -1.232  0.00  0.00    -0.024 A 
ATOM     15  C   UNL     1      -0.565   2.878  -1.675  0.00  0.00    +0.006 A 
ATOM     16  C   UNL     1      -1.231   3.324  -2.801  0.00  0.00    +0.004 A 
BRANCH  11  18
ATOM     17  C   UNL     1      -4.160   3.575  -4.288  0.00  0.00    +0.009 C 
ATOM     18  C   UNL     1      -2.819   2.966  -4.703  0.00  0.00    +0.032 C 
ENDBRANCH  11  18
ENDBRANCH   1  14
BRANCH   2  19
ATOM     19  C   UNL     1      -2.229   1.306   1.114  0.00  0.00    +0.233 C 
ATOM     20  O   UNL     1      -2.609   0.305   0.544  0.00  0.00    -0.274 OA
ATOM     21  N   UNL     1      -3.126   2.170   1.630  0.00  0.00    -0.284 N 
ATOM     22  H   UNL     1      -2.824   2.927   2.154  0.00  0.00    +0.155 HD
BRANCH  21  23
ATOM     23  C   UNL     1      -4.494   1.973   1.408  0.00  0.00    +0.037 A 
ATOM     24  C   UNL     1      -4.923   1.258   0.297  0.00  0.00    +0.023 A 
ATOM     25  C   UNL     1      -6.274   1.066   0.081  0.00  0.00    +0.002 A 
ATOM     26  C   UNL     1      -7.198   1.583   0.970  0.00  0.00    +0.004 A 
ATOM     27  C   UNL     1      -6.774   2.295   2.077  0.00  0.00    -0.046 A 
ATOM     28  C   UNL     1      -5.424   2.486   2.302  0.00  0.00    -0.026 A 
ATOM     29  C   UNL     1      -4.963   3.256   3.512  0.00  0.00    +0.046 C 
ATOM     30  C   UNL     1      -7.785   2.857   3.044  0.00  0.00    +0.044 C 
ENDBRANCH  21  23
ENDBRANCH   2  19
BRANCH   7  31
ATOM     31  C   UNL     1       4.442   1.499   0.052  0.00  0.00    +0.074 C 
ATOM     32  C   UNL     1       4.802   2.984   0.135  0.00  0.00    +0.012 C 
ENDBRANCH   7  31
TORSDOF 5
