REMARK  Name = ZINC19941315
REMARK  5 active torsions:
REMARK  status: ('A' for Active; 'I' for Inactive)
REMARK    1  A    between atoms: C_1  and  C_2
REMARK    2  A    between atoms: C_9  and  C_14
REMARK    3  A    between atoms: C_14  and  C_16
REMARK    4  A    between atoms: C_14  and  N_26
REMARK    5  A    between atoms: N_20  and  C_21
REMARK                            x       y       z     vdW  Elec       q    Type
REMARK                         _______ _______ _______ _____ _____    ______ ____
ROOT
ATOM      1  C   UNL     1      -4.985   1.048   0.031  0.00  0.00    +0.162 C 
ENDROOT
BRANCH   1   2
ATOM      2  N   UNL     1      -5.786   1.512   1.171  0.00  0.00    -0.286 NA
ATOM      3  C   UNL     1      -5.064   1.319   2.436  0.00  0.00    +0.104 C 
ATOM      4  C   UNL     1      -5.896   1.885   3.588  0.00  0.00    +0.122 C 
ATOM      5  N   UNL     1      -7.202   1.212   3.623  0.00  0.00    -0.307 N 
ATOM      6  C   UNL     1      -7.925   1.406   2.358  0.00  0.00    +0.122 C 
ATOM      7  C   UNL     1      -7.092   0.839   1.206  0.00  0.00    +0.104 C 
ATOM      8  C   UNL     1      -7.955   1.648   4.694  0.00  0.00    +0.162 A 
ATOM      9  N   UNL     1      -7.651   1.640   5.973  0.00  0.00    -0.225 NA
ATOM     10  C   UNL     1      -8.494   2.104   6.921  0.00  0.00    +0.080 A 
ATOM     11  C   UNL     1      -8.292   2.152   8.320  0.00  0.00    +0.029 A 
ATOM     12  C   UNL     1      -9.257   2.660   9.150  0.00  0.00    +0.002 A 
ATOM     13  C   UNL     1     -10.460   3.140   8.654  0.00  0.00    +0.001 A 
ATOM     14  C   UNL     1     -10.692   3.107   7.290  0.00  0.00    +0.017 A 
ATOM     15  C   UNL     1      -9.730   2.602   6.452  0.00  0.00    +0.041 A 
ATOM     16  S   UNL     1      -9.588   2.374   4.696  0.00  0.00    -0.052 S 
ENDBRANCH   1   2
BRANCH   1  25
ATOM     17  C   UNL     1       2.472   1.039  -0.015  0.00  0.00    +0.044 C 
ATOM     18  C   UNL     1       1.159   1.778   0.001  0.00  0.00    -0.050 A 
ATOM     19  C   UNL     1       1.151   3.166   0.008  0.00  0.00    +0.005 A 
ATOM     20  C   UNL     1      -0.038   3.862   0.022  0.00  0.00    +0.026 A 
ATOM     21  C   UNL     1      -1.244   3.169   0.030  0.00  0.00    +0.049 A 
ATOM     22  C   UNL     1      -1.232   1.762   0.017  0.00  0.00    -0.001 A 
ATOM     23  C   UNL     1      -0.013   1.076   0.008  0.00  0.00    +0.013 A 
ATOM     24  C   UNL     1      -2.506   1.041   0.019  0.00  0.00    +0.021 A 
ATOM     25  C   UNL     1      -3.656   1.759   0.028  0.00  0.00    +0.042 A 
ATOM     26  C   UNL     1      -3.613   3.170   0.035  0.00  0.00    +0.254 A 
ATOM     27  O   UNL     1      -4.659   3.796   0.042  0.00  0.00    -0.268 OA
ATOM     28  N   UNL     1      -2.448   3.840   0.044  0.00  0.00    -0.322 N 
ATOM     29  H   UNL     1      -2.464   4.940   0.063  0.00  0.00    +0.169 HD
ENDBRANCH   1  25
BRANCH   1  30
ATOM     30  C   UNL     1      -5.717   1.348  -1.252  0.00  0.00    +0.173 A 
ATOM     31  N   UNL     1      -6.321   2.468  -1.565  0.00  0.00    -0.111 NA
ATOM     32  N   UNL     1      -6.826   2.332  -2.743  0.00  0.00    -0.023 NA
ATOM     33  N   UNL     1      -6.559   1.154  -3.189  0.00  0.00    -0.044 NA
ATOM     34  N   UNL     1      -5.872   0.518  -2.301  0.00  0.00    -0.224 N 
BRANCH  34  35
ATOM     35  C   UNL     1      -5.361  -0.850  -2.412  0.00  0.00    +0.111 C 
ATOM     36  C   UNL     1      -4.446  -0.974  -3.647  0.00  0.00    +0.027 C 
ATOM     37  C   UNL     1      -4.751  -2.387  -4.205  0.00  0.00    +0.002 C 
ATOM     38  C   UNL     1      -6.278  -2.519  -3.985  0.00  0.00    +0.002 C 
ATOM     39  C   UNL     1      -6.526  -1.832  -2.626  0.00  0.00    +0.027 C 
ENDBRANCH  34  35
ENDBRANCH   1  30
TORSDOF 4
