REMARK  Name = ZINC39990240
REMARK  15 active torsions:
REMARK  status: ('A' for Active; 'I' for Inactive)
REMARK    1  A    between atoms: C_1  and  C_2
REMARK    2  A    between atoms: C_2  and  C_3
REMARK    3  A    between atoms: C_3  and  C_4
REMARK    4  A    between atoms: C_4  and  C_5
REMARK    5  A    between atoms: C_5  and  C_6
REMARK    6  A    between atoms: C_6  and  N_7
REMARK    7  A    between atoms: C_11  and  C_12
REMARK    8  A    between atoms: C_13  and  C_34
REMARK    9  A    between atoms: C_14  and  C_32
REMARK   10  A    between atoms: N_17  and  C_29
REMARK   11  A    between atoms: C_18  and  N_19
REMARK   12  A    between atoms: C_21  and  C_28
REMARK   13  A    between atoms: C_24  and  C_27
REMARK   14  A    between atoms: C_29  and  C_30
REMARK   15  A    between atoms: C_30  and  C_31
REMARK                            x       y       z     vdW  Elec       q    Type
REMARK                         _______ _______ _______ _____ _____    ______ ____
ROOT
ATOM      1  C   UNL     1      -8.289  -5.816   2.050  0.00  0.00    +0.019 A 
ATOM      2  C   UNL     1      -8.557  -6.037   0.689  0.00  0.00    -0.017 A 
ATOM      3  C   UNL     1      -9.508  -6.991   0.336  0.00  0.00    +0.120 A 
ATOM      4  C   UNL     1     -10.180  -7.714   1.355  0.00  0.00    +0.270 A 
ATOM      5  O   UNL     1     -11.013  -8.551   1.053  0.00  0.00    -0.266 OA
ATOM      6  N   UNL     1      -9.904  -7.484   2.651  0.00  0.00    -0.295 N 
ATOM      7  C   UNL     1      -8.978  -6.563   3.020  0.00  0.00    +0.112 A 
ATOM      8  C   UNL     1      -7.829  -5.253  -0.373  0.00  0.00    +0.046 C 
ENDROOT
BRANCH   1  13
ATOM      9  N   UNL     1      -3.706  -4.459   1.818  0.00  0.00    -0.255 N 
ATOM     10  C   UNL     1      -4.884  -4.093   2.294  0.00  0.00    +0.258 C 
ATOM     11  O   UNL     1      -5.017  -3.047   2.902  0.00  0.00    -0.269 OA
ATOM     12  C   UNL     1      -5.995  -4.963   2.074  0.00  0.00    +0.077 C 
ATOM     13  C   UNL     1      -7.294  -4.821   2.454  0.00  0.00    +0.032 C 
ATOM     14  S   UNL     1      -5.216  -6.288   1.161  0.00  0.00    -0.061 S 
ATOM     15  C   UNL     1      -3.560  -5.618   1.138  0.00  0.00    +0.121 C 
ATOM     16  S   UNL     1      -2.146  -6.279   0.436  0.00  0.00    -0.027 S 
BRANCH   9  17
ATOM     17  C   UNL     1      -2.543  -3.593   2.025  0.00  0.00    +0.115 C 
BRANCH  17  18
ATOM     18  C   UNL     1      -2.431  -2.604   0.862  0.00  0.00    +0.019 C 
BRANCH  18  19
ATOM     19  C   UNL     1      -1.216  -1.699   1.079  0.00  0.00    +0.002 C 
BRANCH  19  20
ATOM     20  C   UNL     1      -1.103  -0.711  -0.084  0.00  0.00    -0.000 C 
BRANCH  20  22
ATOM     21  C   UNL     1       0.224   1.182  -1.030  0.00  0.00    +0.004 C 
ATOM     22  C   UNL     1       0.111   0.194   0.132  0.00  0.00    -0.003 C 
ENDBRANCH  20  22
ENDBRANCH  19  20
ENDBRANCH  18  19
ENDBRANCH  17  18
ENDBRANCH   9  17
ENDBRANCH   1  13
BRANCH   7  23
ATOM     23  N   UNL     1      -8.717  -6.357   4.343  0.00  0.00    -0.311 N 
ATOM     24  C   UNL     1      -8.050  -7.389   5.153  0.00  0.00    +0.137 C 
ATOM     25  C   UNL     1      -6.877  -6.738   5.894  0.00  0.00    +0.133 C 
ATOM     26  O   UNL     1      -7.346  -5.584   6.597  0.00  0.00    -0.371 OA
ATOM     27  C   UNL     1      -7.870  -4.558   5.751  0.00  0.00    +0.133 C 
ATOM     28  C   UNL     1      -9.089  -5.095   5.001  0.00  0.00    +0.137 C 
ATOM     29  C   UNL     1      -8.280  -3.354   6.603  0.00  0.00    +0.039 C 
ATOM     30  C   UNL     1      -5.803  -6.323   4.887  0.00  0.00    +0.039 C 
ENDBRANCH   7  23
BRANCH   3  31
ATOM     31  C   UNL     1      -9.805  -7.239  -1.042  0.00  0.00    +0.105 C 
ATOM     32  N   UNL     1     -10.041  -7.437  -2.136  0.00  0.00    -0.191 NA
ENDBRANCH   3  31
BRANCH   6  33
ATOM     33  C   UNL     1     -10.613  -8.245   3.683  0.00  0.00    +0.126 C 
BRANCH  33  34
ATOM     34  C   UNL     1      -9.908  -9.585   3.904  0.00  0.00    +0.018 C 
ATOM     35  C   UNL     1     -10.715 -10.430   4.891  0.00  0.00    +0.005 C 
ENDBRANCH  33  34
ENDBRANCH   6  33
TORSDOF 10
