REMARK  Name = ZINC04486063
REMARK  9 active torsions:
REMARK  status: ('A' for Active; 'I' for Inactive)
REMARK    1  A    between atoms: C_1  and  C_2
REMARK    2  A    between atoms: C_6  and  C_9
REMARK    3  A    between atoms: C_7  and  C_8
REMARK    4  A    between atoms: C_9  and  O_11
REMARK    5  A    between atoms: O_11  and  C_12
REMARK    6  A    between atoms: C_12  and  C_14
REMARK    7  A    between atoms: C_12  and  C_15
REMARK    8  A    between atoms: C_21  and  C_27
REMARK    9  A    between atoms: C_22  and  C_26
REMARK                            x       y       z     vdW  Elec       q    Type
REMARK                         _______ _______ _______ _____ _____    ______ ____
ROOT
ATOM      1  C   UNL     1      -2.702   4.885  -0.006  0.00  0.00    +0.239 C 
ATOM      2  C   UNL     1      -2.729   6.401   0.199  0.00  0.00    +0.060 C 
ENDROOT
BRANCH   1   3
ATOM      3  C   UNL     1      -1.278   4.394   0.061  0.00  0.00    +0.152 A 
ATOM      4  N   UNL     1      -1.037   3.066   0.207  0.00  0.00    -0.307 N 
ATOM      5  H   UNL     1      -1.808   2.432   0.264  0.00  0.00    +0.170 HD
ATOM      6  C   UNL     1       0.219   2.586   0.277  0.00  0.00    +0.260 A 
ATOM      7  O   UNL     1       0.418   1.391   0.413  0.00  0.00    -0.267 OA
ATOM      8  C   UNL     1       1.317   3.502   0.184  0.00  0.00    +0.075 A 
ATOM      9  C   UNL     1       2.743   3.236   0.226  0.00  0.00    -0.026 A 
ATOM     10  C   UNL     1       3.604   4.260   0.118  0.00  0.00    -0.008 A 
ATOM     11  S   UNL     1       2.538   5.680  -0.051  0.00  0.00    -0.073 S 
ATOM     12  C   UNL     1       0.969   4.856   0.029  0.00  0.00    +0.116 A 
ATOM     13  N   UNL     1      -0.299   5.254  -0.027  0.00  0.00    -0.223 NA
ATOM     14  C   UNL     1       5.111   4.220   0.135  0.00  0.00    +0.052 C 
ATOM     15  C   UNL     1       3.251   1.827   0.389  0.00  0.00    +0.045 C 
ENDBRANCH   1   3
BRANCH   1  16
ATOM     16  O   UNL     1      -3.264   4.563  -1.306  0.00  0.00    -0.450 OA
BRANCH  16  17
ATOM     17  C   UNL     1      -4.591   4.340  -1.359  0.00  0.00    +0.340 C 
ATOM     18  O   UNL     1      -5.261   4.414  -0.349  0.00  0.00    -0.245 OA
BRANCH  17  24
ATOM     19  C   UNL     1      -8.631   2.956  -3.940  0.00  0.00    +0.044 C 
ATOM     20  C   UNL     1      -7.175   3.341  -3.894  0.00  0.00    -0.047 A 
ATOM     21  C   UNL     1      -6.435   3.383  -5.063  0.00  0.00    +0.003 A 
ATOM     22  C   UNL     1      -5.098   3.735  -5.031  0.00  0.00    +0.001 A 
ATOM     23  C   UNL     1      -4.492   4.047  -3.831  0.00  0.00    +0.015 A 
ATOM     24  C   UNL     1      -5.233   4.007  -2.648  0.00  0.00    +0.062 A 
ATOM     25  C   UNL     1      -6.581   3.645  -2.687  0.00  0.00    -0.034 A 
ATOM     26  C   UNL     1      -7.386   3.592  -1.415  0.00  0.00    +0.045 C 
ENDBRANCH  17  24
ENDBRANCH  16  17
ENDBRANCH   1  16
TORSDOF 4
