REMARK  Name = ZINC12920342
REMARK  7 active torsions:
REMARK  status: ('A' for Active; 'I' for Inactive)
REMARK    1  A    between atoms: C_1  and  O_2
REMARK    2  A    between atoms: O_2  and  C_3
REMARK    3  A    between atoms: C_6  and  N_28
REMARK    4  A    between atoms: C_8  and  N_9
REMARK    5  A    between atoms: C_10  and  C_12
REMARK    6  A    between atoms: C_12  and  N_13
REMARK    7  A    between atoms: C_21  and  C_23
REMARK                            x       y       z     vdW  Elec       q    Type
REMARK                         _______ _______ _______ _____ _____    ______ ____
ROOT
ATOM      1  N   UNL     1      -0.074  -2.780  -0.012  0.00  0.00    -0.281 N 
ATOM      2  C   UNL     1      -0.127  -4.124   0.083  0.00  0.00    +0.231 C 
ATOM      3  O   UNL     1      -1.200  -4.689   0.090  0.00  0.00    -0.274 OA
ATOM      4  H   UNL     1       0.783  -2.334  -0.098  0.00  0.00    +0.155 HD
ENDROOT
BRANCH   1  10
ATOM      5  C   UNL     1      -1.294  -0.766  -0.572  0.00  0.00    +0.141 A 
ATOM      6  C   UNL     1      -2.468  -0.030  -0.548  0.00  0.00    +0.050 A 
ATOM      7  C   UNL     1      -3.596  -0.546   0.062  0.00  0.00    +0.036 A 
ATOM      8  C   UNL     1      -3.557  -1.798   0.649  0.00  0.00    +0.128 A 
ATOM      9  C   UNL     1      -2.391  -2.538   0.629  0.00  0.00    +0.059 A 
ATOM     10  C   UNL     1      -1.256  -2.029   0.014  0.00  0.00    +0.078 A 
BRANCH   8  11
ATOM     11  N   UNL     1      -4.768  -2.345   1.302  0.00  0.00    +0.056 N 
ATOM     12  O   UNL     1      -5.789  -1.698   1.320  0.00  0.00    -0.126 OA
ATOM     13  O   UNL     1      -4.736  -3.438   1.815  0.00  0.00    -0.126 OA
ENDBRANCH   8  11
BRANCH   5  15
ATOM     14  C   UNL     1      -0.296   1.042  -1.751  0.00  0.00    +0.277 C 
ATOM     15  O   UNL     1      -0.184  -0.259  -1.171  0.00  0.00    -0.493 OA
ENDBRANCH   5  15
ENDBRANCH   1  10
BRANCH   2  16
ATOM     16  C   UNL     1       1.147  -4.923   0.181  0.00  0.00    +0.181 C 
BRANCH  16  17
ATOM     17  N   UNL     1       0.822  -6.353   0.274  0.00  0.00    -0.282 NA
ATOM     18  C   UNL     1       0.172  -6.826  -0.957  0.00  0.00    +0.091 C 
ATOM     19  C   UNL     1      -0.509  -8.175  -0.670  0.00  0.00    +0.058 C 
ATOM     20  C   UNL     1       0.467  -9.028   0.072  0.00  0.00    -0.004 A 
ATOM     21  C   UNL     1       1.622  -8.616   0.666  0.00  0.00    -0.015 A 
ATOM     22  C   UNL     1       2.379  -9.597   1.302  0.00  0.00    +0.013 A 
ATOM     23  C   UNL     1       1.954 -10.882   1.310  0.00  0.00    +0.046 A 
ATOM     24  S   UNL     1       0.422 -10.768   0.395  0.00  0.00    -0.101 S 
ATOM     25  C   UNL     1       2.014  -7.143   0.607  0.00  0.00    +0.125 C 
BRANCH  25  26
ATOM     26  C   UNL     1       2.551  -6.708   1.946  0.00  0.00    +0.011 A 
ATOM     27  C   UNL     1       3.838  -6.540   2.336  0.00  0.00    +0.013 A 
ATOM     28  C   UNL     1       4.098  -6.129   3.630  0.00  0.00    +0.008 A 
ATOM     29  C   UNL     1       3.058  -5.907   4.471  0.00  0.00    +0.045 A 
ATOM     30  S   UNL     1       1.656  -6.274   3.429  0.00  0.00    -0.100 S 
ENDBRANCH  25  26
ENDBRANCH  16  17
ENDBRANCH   2  16
TORSDOF 6
