REMARK  Name = ZINC20484826
REMARK  10 active torsions:
REMARK  status: ('A' for Active; 'I' for Inactive)
REMARK    1  A    between atoms: C_1  and  C_2
REMARK    2  A    between atoms: C_7  and  N_12
REMARK    3  A    between atoms: C_9  and  C_11
REMARK    4  A    between atoms: N_12  and  C_13
REMARK    5  A    between atoms: N_12  and  C_32
REMARK    6  A    between atoms: C_13  and  C_14
REMARK    7  A    between atoms: C_14  and  C_15
REMARK    8  A    between atoms: C_15  and  N_16
REMARK    9  A    between atoms: C_17  and  C_19
REMARK   10  A    between atoms: C_32  and  C_33
REMARK                            x       y       z     vdW  Elec       q    Type
REMARK                         _______ _______ _______ _____ _____    ______ ____
ROOT
ATOM      1  C   UNL     1      -7.583   8.333  -0.423  0.00  0.00    +0.000 C 
ENDROOT
BRANCH   1   2
ATOM      2  C   UNL     1      -7.877   9.833  -0.497  0.00  0.00    -0.076 C 
BRANCH   2   3
ATOM      3  N   UNL     1      -9.312  10.062  -0.283  0.00  0.00    +0.386 N 
ATOM      4  H   UNL     1      -9.579   9.639   0.697  0.00  0.00    -0.081 HD
BRANCH   3  10
ATOM      5  C   UNL     1      -7.564  14.515   0.980  0.00  0.00    +0.008 C 
ATOM      6  C   UNL     1      -8.749  13.755   0.380  0.00  0.00    -0.013 C 
ATOM      7  C   UNL     1      -9.994  13.994   1.236  0.00  0.00    +0.003 C 
ATOM      8  C   UNL     1     -11.179  13.235   0.636  0.00  0.00    -0.001 C 
ATOM      9  C   UNL     1     -10.862  11.738   0.604  0.00  0.00    -0.015 C 
ATOM     10  C   UNL     1      -9.616  11.499  -0.252  0.00  0.00    -0.065 C 
ATOM     11  C   UNL     1      -8.431  12.259   0.348  0.00  0.00    -0.025 C 
ATOM     12  C   UNL     1      -8.175  11.761   1.772  0.00  0.00    +0.006 C 
ENDBRANCH   3  10
BRANCH   3  13
ATOM     13  C   UNL     1     -10.113   9.376  -1.305  0.00  0.00    -0.003 C 
BRANCH  13  14
ATOM     14  C   UNL     1     -11.543   9.275  -0.838  0.00  0.00    +0.089 A 
ATOM     15  C   UNL     1     -12.550  10.086  -1.206  0.00  0.00    +0.042 A 
ATOM     16  C   UNL     1     -13.709   9.631  -0.536  0.00  0.00    +0.041 A 
ATOM     17  C   UNL     1     -13.338   8.573   0.208  0.00  0.00    +0.195 A 
ATOM     18  O   UNL     1     -12.025   8.362   0.021  0.00  0.00    -0.470 OA
ENDBRANCH  13  14
ENDBRANCH   3  13
ENDBRANCH   2   3
ENDBRANCH   1   2
BRANCH   1  19
ATOM     19  C   UNL     1      -6.089   8.094  -0.647  0.00  0.00    +0.103 C 
BRANCH  19  20
ATOM     20  N   UNL     1      -5.808   6.658  -0.576  0.00  0.00    -0.310 N 
ATOM     21  C   UNL     1      -4.548   6.208  -0.744  0.00  0.00    +0.266 C 
ATOM     22  O   UNL     1      -3.646   6.994  -0.955  0.00  0.00    -0.268 OA
ATOM     23  H   UNL     1      -6.625   5.946  -0.385  0.00  0.00    +0.149 HD
BRANCH  21  24
ATOM     24  C   UNL     1      -4.264   4.754  -0.672  0.00  0.00    +0.175 A 
ATOM     25  C   UNL     1      -3.023   4.132  -0.823  0.00  0.00    +0.069 A 
ATOM     26  C   UNL     1      -3.297   2.787  -0.666  0.00  0.00    +0.178 A 
ATOM     27  O   UNL     1      -4.599   2.690  -0.450  0.00  0.00    -0.353 OA
ATOM     28  N   UNL     1      -5.132   3.785  -0.452  0.00  0.00    -0.073 NA
ATOM     29  C   UNL     1      -2.189   1.822  -0.757  0.00  0.00    +0.062 A 
ATOM     30  C   UNL     1      -2.387   0.456  -0.885  0.00  0.00    +0.015 A 
ATOM     31  C   UNL     1      -1.296  -0.385  -0.986  0.00  0.00    +0.001 A 
ATOM     32  C   UNL     1      -0.014   0.138  -0.966  0.00  0.00    +0.004 A 
ATOM     33  C   UNL     1       0.193   1.497  -0.834  0.00  0.00    +0.046 A 
ATOM     34  C   UNL     1      -0.887   2.359  -0.725  0.00  0.00    +0.132 A 
ATOM     35  O   UNL     1      -0.691   3.691  -0.570  0.00  0.00    -0.486 OA
ATOM     36  C   UNL     1      -1.636   4.630  -1.093  0.00  0.00    +0.270 C 
ENDBRANCH  21  24
ENDBRANCH  19  20
ENDBRANCH   1  19
TORSDOF 8
