REMARK  Name = ZINC33729992
REMARK  13 active torsions:
REMARK  status: ('A' for Active; 'I' for Inactive)
REMARK    1  A    between atoms: C_1  and  C_2
REMARK    2  A    between atoms: C_2  and  C_3
REMARK    3  A    between atoms: C_8  and  N_9
REMARK    4  A    between atoms: N_12  and  C_13
REMARK    5  A    between atoms: N_12  and  C_17
REMARK    6  A    between atoms: C_13  and  C_14
REMARK    7  A    between atoms: C_14  and  C_15
REMARK    8  A    between atoms: C_14  and  C_16
REMARK    9  A    between atoms: C_17  and  C_18
REMARK   10  A    between atoms: N_20  and  C_21
REMARK   11  A    between atoms: N_20  and  C_31
REMARK   12  A    between atoms: C_21  and  C_22
REMARK   13  A    between atoms: C_31  and  C_32
REMARK                            x       y       z     vdW  Elec       q    Type
REMARK                         _______ _______ _______ _____ _____    ______ ____
ROOT
ATOM      1  C   UNL     1       6.284  -2.461   0.968  0.00  0.00    +0.234 C 
ATOM      2  O   UNL     1       5.639  -3.339   1.500  0.00  0.00    -0.274 OA
ATOM      3  N   UNL     1       6.043  -1.169   1.270  0.00  0.00    -0.291 N 
ENDROOT
BRANCH   1   4
ATOM      4  C   UNL     1       7.356  -2.812  -0.032  0.00  0.00    +0.205 C 
BRANCH   4   8
ATOM      5  N   UNL     1       6.948  -6.298  -1.130  0.00  0.00    -0.269 N 
ATOM      6  C   UNL     1       6.823  -4.958  -1.058  0.00  0.00    +0.307 C 
ATOM      7  O   UNL     1       6.109  -4.370  -1.847  0.00  0.00    -0.252 OA
ATOM      8  N   UNL     1       7.491  -4.269  -0.110  0.00  0.00    -0.276 N 
ATOM      9  H   UNL     1       7.658  -6.821  -0.472  0.00  0.00    +0.156 HD
BRANCH   5  15
ATOM     10  C   UNL     1       5.737  -8.303  -1.720  0.00  0.00    -0.026 A 
ATOM     11  C   UNL     1       4.973  -9.017  -2.622  0.00  0.00    +0.005 A 
ATOM     12  C   UNL     1       4.642  -8.460  -3.844  0.00  0.00    +0.000 A 
ATOM     13  C   UNL     1       5.075  -7.187  -4.167  0.00  0.00    +0.002 A 
ATOM     14  C   UNL     1       5.835  -6.466  -3.267  0.00  0.00    +0.023 A 
ATOM     15  C   UNL     1       6.173  -7.024  -2.041  0.00  0.00    +0.038 A 
BRANCH  10  17
ATOM     16  C   UNL     1       5.086  -8.459   0.667  0.00  0.00    +0.009 C 
ATOM     17  C   UNL     1       6.097  -8.910  -0.389  0.00  0.00    +0.033 C 
ENDBRANCH  10  17
ENDBRANCH   5  15
BRANCH   8  18
ATOM     18  C   UNL     1       8.351  -4.977   0.841  0.00  0.00    +0.113 C 
BRANCH  18  19
ATOM     19  C   UNL     1       9.798  -4.941   0.344  0.00  0.00    +0.000 C 
ATOM     20  C   UNL     1      10.713  -5.576   1.393  0.00  0.00    +0.009 C 
ATOM     21  C   UNL     1       9.907  -5.721  -0.967  0.00  0.00    +0.009 C 
ENDBRANCH  18  19
ENDBRANCH   8  18
ENDBRANCH   4   8
ENDBRANCH   1   4
BRANCH   3  22
ATOM     22  C   UNL     1       5.001  -0.827   2.242  0.00  0.00    +0.143 C 
BRANCH  22  23
ATOM     23  C   UNL     1       3.688  -0.643   1.526  0.00  0.00    -0.026 A 
ATOM     24  C   UNL     1       2.842  -1.722   1.347  0.00  0.00    +0.009 A 
ATOM     25  C   UNL     1       1.637  -1.559   0.691  0.00  0.00    +0.050 A 
ATOM     26  C   UNL     1       1.272  -0.311   0.212  0.00  0.00    +0.166 A 
ATOM     27  C   UNL     1       2.123   0.776   0.393  0.00  0.00    +0.167 A 
ATOM     28  C   UNL     1       3.330   0.605   1.051  0.00  0.00    +0.054 A 
ATOM     29  O   UNL     1       1.544   1.881  -0.163  0.00  0.00    -0.453 OA
ATOM     30  C   UNL     1       0.153   1.546  -0.324  0.00  0.00    +0.466 C 
ATOM     31  O   UNL     1       0.160   0.112  -0.457  0.00  0.00    -0.453 OA
ENDBRANCH  22  23
ENDBRANCH   3  22
BRANCH   3  32
ATOM     32  C   UNL     1       6.822  -0.108   0.627  0.00  0.00    +0.150 C 
BRANCH  32  33
ATOM     33  C   UNL     1       8.045   0.189   1.455  0.00  0.00    +0.007 A 
ATOM     34  C   UNL     1       9.278  -0.371   1.388  0.00  0.00    +0.013 A 
ATOM     35  C   UNL     1      10.261   0.066   2.256  0.00  0.00    +0.008 A 
ATOM     36  C   UNL     1       9.960   1.034   3.156  0.00  0.00    +0.045 A 
ATOM     37  S   UNL     1       8.245   1.364   2.784  0.00  0.00    -0.100 S 
ENDBRANCH  32  33
ENDBRANCH   3  32
TORSDOF 10
