REMARK  Name = ZINC63489319
REMARK  9 active torsions:
REMARK  status: ('A' for Active; 'I' for Inactive)
REMARK    1  A    between atoms: C_1  and  C_2
REMARK    2  A    between atoms: C_2  and  C_4
REMARK    3  A    between atoms: C_7  and  N_10
REMARK    4  A    between atoms: C_11  and  C_13
REMARK    5  A    between atoms: C_13  and  S_14
REMARK    6  A    between atoms: S_14  and  C_15
REMARK    7  A    between atoms: C_19  and  C_29
REMARK    8  A    between atoms: N_21  and  C_22
REMARK    9  A    between atoms: C_29  and  C_30
REMARK                            x       y       z     vdW  Elec       q    Type
REMARK                         _______ _______ _______ _____ _____    ______ ____
ROOT
ATOM      1  C   UNL     1      -7.403  -7.531  -0.422  0.00  0.00    +0.217 C 
ATOM      2  N   UNL     1      -8.134  -6.986  -1.589  0.00  0.00    -0.226 NA
ATOM      3  N   UNL     1      -9.530  -6.888  -1.133  0.00  0.00    -0.234 NA
ATOM      4  C   UNL     1      -9.389  -6.462   0.284  0.00  0.00    +0.163 C 
ATOM      5  N   UNL     1      -8.203  -7.197   0.769  0.00  0.00    -0.287 N 
ATOM      6  H   UNL     1      -7.775  -6.079  -1.849  0.00  0.00    +0.143 HD
ATOM      7  H   UNL     1      -9.994  -7.782  -1.197  0.00  0.00    +0.143 HD
ENDROOT
BRANCH   5   8
ATOM      8  C   UNL     1      -7.899  -7.514   2.097  0.00  0.00    +0.033 A 
ATOM      9  C   UNL     1      -8.760  -7.134   3.118  0.00  0.00    +0.026 A 
ATOM     10  C   UNL     1      -8.458  -7.448   4.428  0.00  0.00    +0.040 A 
ATOM     11  C   UNL     1      -7.297  -8.142   4.725  0.00  0.00    +0.124 A 
ATOM     12  C   UNL     1      -6.436  -8.522   3.709  0.00  0.00    +0.040 A 
ATOM     13  C   UNL     1      -6.737  -8.214   2.396  0.00  0.00    +0.026 A 
ATOM     14  F   UNL     1      -7.003  -8.448   6.007  0.00  0.00    -0.205 F 
ENDBRANCH   5   8
BRANCH   1  15
ATOM     15  S   UNL     1      -5.763  -6.766  -0.304  0.00  0.00    -0.112 S 
BRANCH  15  16
ATOM     16  C   UNL     1      -6.114  -4.991  -0.178  0.00  0.00    +0.168 C 
BRANCH  16  18
ATOM     17  N   UNL     1      -4.834  -2.885   0.031  0.00  0.00    -0.285 N 
ATOM     18  C   UNL     1      -4.819  -4.228  -0.073  0.00  0.00    +0.227 C 
ATOM     19  O   UNL     1      -3.762  -4.824  -0.081  0.00  0.00    -0.275 OA
ATOM     20  H   UNL     1      -5.678  -2.414   0.115  0.00  0.00    +0.155 HD
BRANCH  17  24
ATOM     21  C   UNL     1      -1.260  -0.754  -0.007  0.00  0.00    +0.017 A 
ATOM     22  C   UNL     1      -1.388  -1.926  -0.763  0.00  0.00    +0.013 A 
ATOM     23  C   UNL     1      -2.567  -2.625  -0.748  0.00  0.00    +0.024 A 
ATOM     24  C   UNL     1      -3.637  -2.171   0.018  0.00  0.00    +0.033 A 
ATOM     25  C   UNL     1      -3.515  -1.006   0.771  0.00  0.00    +0.024 A 
ATOM     26  C   UNL     1      -2.338  -0.304   0.766  0.00  0.00    +0.013 A 
BRANCH  21  28
ATOM     27  C   UNL     1       1.159  -0.489  -0.854  0.00  0.00    +0.091 C 
ATOM     28  C   UNL     1       0.001  -0.003  -0.021  0.00  0.00    +0.160 C 
ATOM     29  O   UNL     1       0.111   1.010   0.639  0.00  0.00    -0.292 OA
ENDBRANCH  21  28
ENDBRANCH  17  24
ENDBRANCH  16  18
ENDBRANCH  15  16
ENDBRANCH   1  15
BRANCH   4  30
ATOM     30  C   UNL     1      -9.158  -4.952   0.368  0.00  0.00    +0.093 C 
BRANCH  30  31
ATOM     31  C   UNL     1     -10.394  -4.228  -0.101  0.00  0.00    +0.029 A 
ATOM     32  N   UNL     1     -10.590  -3.995  -1.435  0.00  0.00    -0.311 N 
ATOM     33  C   UNL     1     -11.690  -3.350  -1.864  0.00  0.00    +0.327 A 
ATOM     34  O   UNL     1     -11.844  -3.154  -3.054  0.00  0.00    -0.247 OA
ATOM     35  N   UNL     1     -12.622  -2.919  -0.995  0.00  0.00    -0.275 N 
ATOM     36  C   UNL     1     -12.466  -3.128   0.328  0.00  0.00    +0.254 A 
ATOM     37  O   UNL     1     -13.309  -2.739   1.116  0.00  0.00    -0.268 OA
ATOM     38  C   UNL     1     -11.316  -3.810   0.793  0.00  0.00    +0.091 A 
ATOM     39  H   UNL     1     -13.410  -2.456  -1.321  0.00  0.00    +0.173 HD
ATOM     40  H   UNL     1      -9.929  -4.298  -2.078  0.00  0.00    +0.170 HD
ENDBRANCH  30  31
ENDBRANCH   4  30
TORSDOF 8
