REMARK  Name = ZINC35189545
REMARK  8 active torsions:
REMARK  status: ('A' for Active; 'I' for Inactive)
REMARK    1  A    between atoms: C_1  and  C_2
REMARK    2  A    between atoms: C_2  and  N_3
REMARK    3  A    between atoms: C_6  and  C_19
REMARK    4  A    between atoms: N_8  and  C_11
REMARK    5  A    between atoms: C_11  and  C_12
REMARK    6  A    between atoms: C_12  and  C_13
REMARK    7  A    between atoms: C_19  and  C_20
REMARK    8  A    between atoms: N_22  and  C_23
REMARK                            x       y       z     vdW  Elec       q    Type
REMARK                         _______ _______ _______ _____ _____    ______ ____
ROOT
ATOM      1  N   UNL     1       0.495  -0.633   1.300  0.00  0.00    -0.252 N 
ATOM      2  C   UNL     1       1.825  -0.827   1.198  0.00  0.00    +0.242 C 
ATOM      3  O   UNL     1       2.507  -0.716   0.202  0.00  0.00    -0.273 OA
ATOM      4  C   UNL     1       2.290  -1.213   2.588  0.00  0.00    +0.170 C 
ATOM      5  N   UNL     1       1.053  -1.188   3.387  0.00  0.00    -0.300 N 
ATOM      6  C   UNL     1       0.061  -0.835   2.549  0.00  0.00    +0.142 C 
ATOM      7  S   UNL     1      -1.574  -0.667   3.027  0.00  0.00    -0.018 S 
ENDROOT
BRANCH   1   9
ATOM      8  C   UNL     1      -0.435   1.284   0.099  0.00  0.00    +0.025 C 
ATOM      9  C   UNL     1      -0.368  -0.243   0.182  0.00  0.00    +0.112 C 
ENDBRANCH   1   9
BRANCH   5  10
ATOM     10  C   UNL     1       0.927  -1.486   4.815  0.00  0.00    +0.112 C 
BRANCH  10  11
ATOM     11  C   UNL     1       0.989  -0.184   5.616  0.00  0.00    +0.054 C 
BRANCH  11  12
ATOM     12  C   UNL     1       0.860  -0.491   7.085  0.00  0.00    -0.046 A 
ATOM     13  C   UNL     1      -0.390  -0.530   7.676  0.00  0.00    +0.004 A 
ATOM     14  C   UNL     1      -0.508  -0.811   9.024  0.00  0.00    +0.000 A 
ATOM     15  C   UNL     1       0.623  -1.054   9.782  0.00  0.00    +0.000 A 
ATOM     16  C   UNL     1       1.872  -1.015   9.191  0.00  0.00    +0.000 A 
ATOM     17  C   UNL     1       1.990  -0.738   7.842  0.00  0.00    +0.004 A 
ENDBRANCH  11  12
ENDBRANCH  10  11
ENDBRANCH   5  10
BRANCH   4  18
ATOM     18  C   UNL     1       2.903  -2.615   2.581  0.00  0.00    +0.128 C 
BRANCH  18  19
ATOM     19  C   UNL     1       4.178  -2.602   1.777  0.00  0.00    +0.219 C 
ATOM     20  O   UNL     1       4.625  -1.552   1.366  0.00  0.00    -0.275 OA
ATOM     21  N   UNL     1       4.821  -3.757   1.515  0.00  0.00    -0.285 N 
ATOM     22  H   UNL     1       4.501  -4.588   1.900  0.00  0.00    +0.155 HD
BRANCH  21  23
ATOM     23  C   UNL     1       5.949  -3.757   0.687  0.00  0.00    +0.033 A 
ATOM     24  C   UNL     1       6.185  -4.827  -0.167  0.00  0.00    +0.024 A 
ATOM     25  C   UNL     1       7.299  -4.824  -0.983  0.00  0.00    +0.016 A 
ATOM     26  C   UNL     1       8.180  -3.758  -0.950  0.00  0.00    +0.013 A 
ATOM     27  C   UNL     1       7.948  -2.691  -0.100  0.00  0.00    +0.016 A 
ATOM     28  C   UNL     1       6.832  -2.686   0.714  0.00  0.00    +0.024 A 
ATOM     29  I   UNL     1       9.870  -3.759  -2.188  0.00  0.00    -0.044 I 
ENDBRANCH  21  23
ENDBRANCH  18  19
ENDBRANCH   4  18
TORSDOF 7
