REMARK  Name = ZINC39993743
REMARK  9 active torsions:
REMARK  status: ('A' for Active; 'I' for Inactive)
REMARK    1  A    between atoms: C_1  and  C_2
REMARK    2  A    between atoms: C_5  and  C_36
REMARK    3  A    between atoms: C_6  and  N_8
REMARK    4  A    between atoms: C_9  and  C_11
REMARK    5  A    between atoms: C_11  and  C_34
REMARK    6  A    between atoms: C_12  and  C_13
REMARK    7  A    between atoms: C_14  and  N_24
REMARK    8  A    between atoms: C_26  and  C_33
REMARK    9  A    between atoms: C_29  and  C_32
REMARK                            x       y       z     vdW  Elec       q    Type
REMARK                         _______ _______ _______ _____ _____    ______ ____
ROOT
ATOM      1  C   UNL     1       0.343  -3.292   6.990  0.00  0.00    +0.081 A 
ATOM      2  C   UNL     1       0.479  -2.778   8.305  0.00  0.00    +0.136 A 
ATOM      3  N   UNL     1       0.566  -3.617   9.326  0.00  0.00    -0.214 NA
ATOM      4  C   UNL     1       0.529  -4.939   9.153  0.00  0.00    +0.142 A 
ATOM      5  C   UNL     1       0.625  -5.778  10.277  0.00  0.00    +0.047 A 
ATOM      6  C   UNL     1       0.589  -7.131  10.113  0.00  0.00    +0.005 A 
ATOM      7  C   UNL     1       0.455  -7.667   8.825  0.00  0.00    +0.018 A 
ATOM      8  C   UNL     1       0.364  -6.845   7.755  0.00  0.00    +0.096 A 
ATOM      9  N   UNL     1       0.399  -5.491   7.910  0.00  0.00    -0.268 N 
ATOM     10  C   UNL     1       0.300  -4.700   6.819  0.00  0.00    +0.267 A 
ATOM     11  O   UNL     1       0.179  -5.187   5.709  0.00  0.00    -0.267 OA
ENDROOT
BRANCH   2  12
ATOM     12  N   UNL     1       0.522  -1.420   8.518  0.00  0.00    -0.310 N 
ATOM     13  C   UNL     1       1.381  -0.844   9.564  0.00  0.00    +0.138 C 
ATOM     14  C   UNL     1       0.533   0.104  10.420  0.00  0.00    +0.133 C 
ATOM     15  O   UNL     1      -0.140   1.033   9.567  0.00  0.00    -0.371 OA
ATOM     16  C   UNL     1      -1.058   0.430   8.653  0.00  0.00    +0.133 C 
ATOM     17  C   UNL     1      -0.287  -0.500   7.703  0.00  0.00    +0.138 C 
ATOM     18  C   UNL     1      -1.761   1.520   7.841  0.00  0.00    +0.039 C 
ATOM     19  C   UNL     1       1.438   0.863  11.392  0.00  0.00    +0.039 C 
ENDBRANCH   2  12
BRANCH   1  21
ATOM     20  C   UNL     1      -0.837  -2.520   5.024  0.00  0.00    +0.114 C 
ATOM     21  C   UNL     1       0.248  -2.429   5.885  0.00  0.00    +0.040 C 
BRANCH  20  23
ATOM     22  N   UNL     1      -1.932  -1.792   2.971  0.00  0.00    -0.281 N 
ATOM     23  C   UNL     1      -0.878  -1.703   3.806  0.00  0.00    +0.259 C 
ATOM     24  O   UNL     1       0.040  -0.946   3.551  0.00  0.00    -0.269 OA
ATOM     25  H   UNL     1      -2.701  -2.329   3.216  0.00  0.00    +0.155 HD
BRANCH  22  31
ATOM     26  C   UNL     1       0.620   0.263  -0.695  0.00  0.00    +0.044 C 
ATOM     27  C   UNL     1      -0.693  -0.100  -0.049  0.00  0.00    -0.049 A 
ATOM     28  C   UNL     1      -1.883   0.242  -0.664  0.00  0.00    +0.004 A 
ATOM     29  C   UNL     1      -3.089  -0.089  -0.075  0.00  0.00    +0.005 A 
ATOM     30  C   UNL     1      -3.109  -0.764   1.130  0.00  0.00    -0.029 A 
ATOM     31  C   UNL     1      -1.915  -1.109   1.750  0.00  0.00    +0.037 A 
ATOM     32  C   UNL     1      -0.705  -0.780   1.153  0.00  0.00    +0.027 A 
ATOM     33  C   UNL     1      -4.424  -1.124   1.772  0.00  0.00    +0.045 C 
ENDBRANCH  22  31
ENDBRANCH  20  23
BRANCH  20  34
ATOM     34  C   UNL     1      -1.917  -3.411   5.324  0.00  0.00    +0.104 C 
ATOM     35  N   UNL     1      -2.773  -4.119   5.563  0.00  0.00    -0.191 NA
ENDBRANCH  20  34
ENDBRANCH   1  21
TORSDOF 5
