REMARK  Name = ZINC63462895
REMARK  11 active torsions:
REMARK  status: ('A' for Active; 'I' for Inactive)
REMARK    1  A    between atoms: C_1  and  C_2
REMARK    2  A    between atoms: C_5  and  N_9
REMARK    3  A    between atoms: C_6  and  C_8
REMARK    4  A    between atoms: C_10  and  C_12
REMARK    5  A    between atoms: C_12  and  S_13
REMARK    6  A    between atoms: S_13  and  C_14
REMARK    7  A    between atoms: C_15  and  C_31
REMARK    8  A    between atoms: C_16  and  C_22
REMARK    9  A    between atoms: C_25  and  C_28
REMARK   10  A    between atoms: C_28  and  C_29
REMARK   11  A    between atoms: C_28  and  C_30
REMARK                            x       y       z     vdW  Elec       q    Type
REMARK                         _______ _______ _______ _____ _____    ______ ____
ROOT
ATOM      1  C   UNL     1      -0.350  -8.590  -2.737  0.00  0.00    +0.085 C 
ATOM      2  C   UNL     1      -0.458  -9.441  -3.975  0.00  0.00    +0.152 C 
ATOM      3  C   UNL     1      -1.221 -10.726  -3.638  0.00  0.00    +0.051 C 
ATOM      4  C   UNL     1      -0.520 -11.409  -2.457  0.00  0.00    +0.107 C 
ATOM      5  C   UNL     1      -0.407 -10.427  -1.321  0.00  0.00    +0.237 C 
ATOM      6  N   UNL     1      -0.324  -9.119  -1.541  0.00  0.00    -0.177 NA
ATOM      7  O   UNL     1      -0.386 -10.840  -0.178  0.00  0.00    -0.274 OA
ENDROOT
BRANCH   3   8
ATOM      8  C   UNL     1      -1.220 -11.646  -4.831  0.00  0.00    -0.042 A 
ATOM      9  C   UNL     1      -0.023 -12.104  -5.349  0.00  0.00    +0.004 A 
ATOM     10  C   UNL     1      -0.021 -12.948  -6.444  0.00  0.00    +0.004 A 
ATOM     11  C   UNL     1      -1.216 -13.334  -7.020  0.00  0.00    -0.045 A 
ATOM     12  C   UNL     1      -2.413 -12.877  -6.502  0.00  0.00    +0.004 A 
ATOM     13  C   UNL     1      -2.415 -12.036  -5.405  0.00  0.00    +0.004 A 
BRANCH  11  14
ATOM     14  C   UNL     1      -1.215 -14.254  -8.215  0.00  0.00    +0.013 C 
ATOM     15  C   UNL     1      -1.983 -15.533  -7.875  0.00  0.00    +0.012 C 
ATOM     16  C   UNL     1      -1.887 -13.554  -9.398  0.00  0.00    +0.012 C 
ENDBRANCH  11  14
ENDBRANCH   3   8
BRANCH   2  17
ATOM     17  C   UNL     1      -1.182  -8.699  -5.020  0.00  0.00    +0.073 C 
ATOM     18  N   UNL     1      -1.740  -8.126  -5.827  0.00  0.00    -0.196 NA
ENDBRANCH   2  17
BRANCH   1  19
ATOM     19  S   UNL     1      -0.255  -6.941  -2.895  0.00  0.00    -0.102 S 
BRANCH  19  20
ATOM     20  C   UNL     1      -0.134  -6.343  -1.187  0.00  0.00    +0.171 C 
BRANCH  20  22
ATOM     21  N   UNL     1       0.059  -4.170  -0.021  0.00  0.00    -0.285 N 
ATOM     22  C   UNL     1      -0.040  -4.839  -1.187  0.00  0.00    +0.227 C 
ATOM     23  O   UNL     1      -0.054  -4.230  -2.236  0.00  0.00    -0.275 OA
ATOM     24  H   UNL     1       0.135  -4.658   0.814  0.00  0.00    +0.155 HD
BRANCH  21  29
ATOM     25  C   UNL     1       0.025   1.503   0.005  0.00  0.00    +0.044 C 
ATOM     26  C   UNL     1       0.034  -0.004  -0.002  0.00  0.00    -0.050 A 
ATOM     27  C   UNL     1       0.632  -0.685  -1.046  0.00  0.00    +0.005 A 
ATOM     28  C   UNL     1       0.641  -2.066  -1.055  0.00  0.00    +0.024 A 
ATOM     29  C   UNL     1       0.051  -2.771  -0.014  0.00  0.00    +0.036 A 
ATOM     30  C   UNL     1      -0.548  -2.083   1.033  0.00  0.00    -0.029 A 
ATOM     31  C   UNL     1      -0.550  -0.702   1.039  0.00  0.00    +0.008 A 
ATOM     32  C   UNL     1      -1.190  -2.843   2.165  0.00  0.00    +0.045 C 
ENDBRANCH  21  29
ENDBRANCH  20  22
ENDBRANCH  19  20
ENDBRANCH   1  19
TORSDOF 7
