REMARK  Name = ZINC08789649
REMARK  5 active torsions:
REMARK  status: ('A' for Active; 'I' for Inactive)
REMARK    1  A    between atoms: C_1  and  C_2
REMARK    2  A    between atoms: C_2  and  C_3
REMARK    3  A    between atoms: C_6  and  C_9
REMARK    4  A    between atoms: N_15  and  C_30
REMARK    5  A    between atoms: C_18  and  C_29
REMARK                            x       y       z     vdW  Elec       q    Type
REMARK                         _______ _______ _______ _____ _____    ______ ____
ROOT
ATOM      1  C   UNL     1      -2.718   2.950   4.762  0.00  0.00    +0.069 C 
ATOM      2  C   UNL     1      -1.695   3.126   5.894  0.00  0.00    +0.123 C 
ATOM      3  N   UNL     1      -2.276   4.037   6.881  0.00  0.00    -0.265 N 
ATOM      4  C   UNL     1      -2.632   3.838   8.150  0.00  0.00    +0.317 C 
ATOM      5  O   UNL     1      -2.274   2.888   8.818  0.00  0.00    -0.252 OA
ATOM      6  N   UNL     1      -3.436   4.816   8.600  0.00  0.00    -0.191 N 
ATOM      7  C   UNL     1      -3.556   5.814   7.697  0.00  0.00    +0.257 C 
ATOM      8  O   UNL     1      -4.251   6.804   7.785  0.00  0.00    -0.272 OA
ATOM      9  C   UNL     1      -2.641   5.438   6.556  0.00  0.00    +0.153 C 
ATOM     10  C   UNL     1      -3.376   5.367   5.239  0.00  0.00    +0.054 A 
ATOM     11  C   UNL     1      -3.400   4.261   4.466  0.00  0.00    -0.008 A 
ATOM     12  C   UNL     1      -4.197   4.589   3.297  0.00  0.00    +0.004 A 
ATOM     13  C   UNL     1      -4.549   3.855   2.160  0.00  0.00    +0.010 A 
ATOM     14  C   UNL     1      -5.335   4.491   1.231  0.00  0.00    +0.001 A 
ATOM     15  C   UNL     1      -5.766   5.796   1.401  0.00  0.00    +0.002 A 
ATOM     16  C   UNL     1      -5.433   6.545   2.517  0.00  0.00    +0.026 A 
ATOM     17  C   UNL     1      -4.635   5.925   3.477  0.00  0.00    +0.047 A 
ATOM     18  N   UNL     1      -4.115   6.361   4.657  0.00  0.00    -0.356 N 
ATOM     19  H   UNL     1      -4.266   7.240   5.038  0.00  0.00    +0.166 HD
ATOM     20  C   UNL     1      -1.416   6.351   6.479  0.00  0.00    +0.048 C 
ENDROOT
BRANCH   6  21
ATOM     21  C   UNL     1      -4.068   4.803   9.848  0.00  0.00    +0.053 A 
ATOM     22  C   UNL     1      -5.322   4.247   9.986  0.00  0.00    +0.024 A 
ATOM     23  C   UNL     1      -5.960   4.229  11.222  0.00  0.00    +0.002 A 
ATOM     24  C   UNL     1      -5.366   4.758  12.328  0.00  0.00    +0.008 A 
ATOM     25  C   UNL     1      -4.088   5.334  12.229  0.00  0.00    -0.016 A 
ATOM     26  C   UNL     1      -3.426   5.353  10.977  0.00  0.00    +0.004 A 
ATOM     27  C   UNL     1      -2.147   5.923  10.882  0.00  0.00    +0.010 A 
ATOM     28  C   UNL     1      -1.557   6.444  11.992  0.00  0.00    +0.001 A 
ATOM     29  C   UNL     1      -2.205   6.421  13.226  0.00  0.00    +0.001 A 
ATOM     30  C   UNL     1      -3.450   5.887  13.353  0.00  0.00    +0.008 A 
ENDBRANCH   6  21
BRANCH   1  34
ATOM     31  C   UNL     1      -0.718   1.572   1.248  0.00  0.00    -0.048 A 
ATOM     32  C   UNL     1      -0.360   2.779   1.819  0.00  0.00    +0.004 A 
ATOM     33  C   UNL     1      -1.010   3.227   2.953  0.00  0.00    +0.004 A 
ATOM     34  C   UNL     1      -2.012   2.463   3.523  0.00  0.00    -0.038 A 
ATOM     35  C   UNL     1      -2.366   1.254   2.955  0.00  0.00    +0.004 A 
ATOM     36  C   UNL     1      -1.719   0.808   1.818  0.00  0.00    +0.004 A 
BRANCH  31  38
ATOM     37  C   UNL     1      -0.753   1.593  -1.232  0.00  0.00    +0.009 C 
ATOM     38  C   UNL     1      -0.013   1.086   0.008  0.00  0.00    +0.032 C 
ENDBRANCH  31  38
ENDBRANCH   1  34
TORSDOF 3
