REMARK  Name = ZINC40262613
REMARK  3 active torsions:
REMARK  status: ('A' for Active; 'I' for Inactive)
REMARK    1  A    between atoms: C_6  and  C_7
REMARK    2  A    between atoms: C_7  and  C_9
REMARK    3  A    between atoms: C_7  and  O_21
REMARK                            x       y       z     vdW  Elec       q    Type
REMARK                         _______ _______ _______ _____ _____    ______ ____
ROOT
ATOM      1  C   UNL     1      -1.612  -1.237  -1.388  0.00  0.00    +0.021 A 
ATOM      2  C   UNL     1      -1.247  -2.506  -1.796  0.00  0.00    +0.014 A 
ATOM      3  C   UNL     1      -1.539  -2.932  -3.076  0.00  0.00    -0.025 A 
ATOM      4  C   UNL     1      -2.200  -2.084  -3.957  0.00  0.00    +0.039 A 
ATOM      5  C   UNL     1      -2.565  -0.810  -3.547  0.00  0.00    +0.062 A 
ATOM      6  C   UNL     1      -2.275  -0.390  -2.260  0.00  0.00    +0.131 A 
ATOM      7  F   UNL     1      -2.635   0.848  -1.857  0.00  0.00    -0.205 F 
ATOM      8  N   UNL     1      -2.494  -2.517  -5.253  0.00  0.00    -0.285 N 
ATOM      9  C   UNL     1      -2.492  -3.829  -5.551  0.00  0.00    +0.218 C 
ATOM     10  O   UNL     1      -2.736  -4.187  -6.684  0.00  0.00    -0.275 OA
ATOM     11  C   UNL     1      -2.190  -4.858  -4.495  0.00  0.00    +0.101 C 
ATOM     12  C   UNL     1      -1.143  -4.316  -3.523  0.00  0.00    +0.046 C 
ATOM     13  H   UNL     1      -2.702  -1.867  -5.942  0.00  0.00    +0.155 HD
ENDROOT
BRANCH   1  14
ATOM     14  C   UNL     1      -1.293  -0.775   0.011  0.00  0.00    +0.177 C 
BRANCH  14  20
ATOM     15  C   UNL     1      -0.017   1.378   0.010  0.00  0.00    +0.007 A 
ATOM     16  C   UNL     1       1.171   2.086   0.002  0.00  0.00    +0.015 A 
ATOM     17  C   UNL     1       2.378   1.411  -0.013  0.00  0.00    +0.013 A 
ATOM     18  C   UNL     1       2.396   0.028  -0.021  0.00  0.00    +0.015 A 
ATOM     19  C   UNL     1       1.208  -0.679  -0.013  0.00  0.00    +0.007 A 
ATOM     20  C   UNL     1       0.002  -0.004   0.002  0.00  0.00    -0.015 A 
ATOM     21  I   UNL     1       4.178   2.482  -0.025  0.00  0.00    -0.044 I 
ENDBRANCH  14  20
BRANCH  14  22
ATOM     22  O   UNL     1      -1.165  -1.910   0.870  0.00  0.00    -0.382 OA
ATOM     23  H   UNL     1      -0.468  -2.526   0.606  0.00  0.00    +0.211 HD
ENDBRANCH  14  22
ENDBRANCH   1  14
TORSDOF 3
