REMARK  Name = ZINC09504720
REMARK  9 active torsions:
REMARK  status: ('A' for Active; 'I' for Inactive)
REMARK    1  A    between atoms: C_1  and  N_60
REMARK    2  A    between atoms: C_2  and  N_60
REMARK    3  A    between atoms: C_3  and  C_4
REMARK    4  A    between atoms: C_3  and  N_60
REMARK    5  A    between atoms: C_4  and  C_5
REMARK    6  A    between atoms: C_5  and  N_6
REMARK    7  A    between atoms: C_17  and  C_19
REMARK    8  A    between atoms: N_22  and  S_25
REMARK    9  A    between atoms: S_25  and  C_28
REMARK                            x       y       z     vdW  Elec       q    Type
REMARK                         _______ _______ _______ _____ _____    ______ ____
ROOT
ATOM      1  N   UNL     1      -1.161   6.082  -2.333  0.00  0.00    -0.250 N 
ATOM      2  C   UNL     1      -2.194   6.056  -1.409  0.00  0.00    +0.168 A 
ATOM      3  N   UNL     1      -2.271   5.393  -0.279  0.00  0.00    -0.221 NA
ATOM      4  C   UNL     1      -3.350   5.462   0.531  0.00  0.00    +0.115 A 
ATOM      5  C   UNL     1      -3.559   4.804   1.767  0.00  0.00    +0.150 A 
ATOM      6  C   UNL     1      -4.723   4.986   2.469  0.00  0.00    +0.040 A 
ATOM      7  C   UNL     1      -5.731   5.815   1.999  0.00  0.00    +0.004 A 
ATOM      8  C   UNL     1      -5.560   6.474   0.795  0.00  0.00    +0.017 A 
ATOM      9  C   UNL     1      -4.398   6.298   0.085  0.00  0.00    +0.044 A 
ATOM     10  S   UNL     1      -3.757   6.921  -1.450  0.00  0.00    -0.052 S 
ATOM     11  F   UNL     1      -2.602   3.987   2.260  0.00  0.00    -0.203 F 
ATOM     12  C   UNL     1      -0.096   5.270  -2.176  0.00  0.00    +0.224 C 
ATOM     13  O   UNL     1       0.851   5.361  -2.928  0.00  0.00    -0.275 OA
ENDROOT
BRANCH  12  14
ATOM     14  C   UNL     1      -0.083   4.250  -1.067  0.00  0.00    +0.078 C 
ATOM     15  C   UNL     1       1.343   3.732  -0.868  0.00  0.00    +0.030 C 
ATOM     16  C   UNL     1       1.359   2.721   0.283  0.00  0.00    +0.110 C 
ATOM     17  N   UNL     1       0.369   1.671   0.004  0.00  0.00    -0.176 NA
ATOM     18  C   UNL     1      -1.014   2.066  -0.297  0.00  0.00    +0.110 C 
ATOM     19  C   UNL     1      -1.004   3.084  -1.436  0.00  0.00    +0.030 C 
BRANCH  17  20
ATOM     20  S   UNL     1       0.806   0.074   0.021  0.00  0.00    +0.067 S 
ATOM     21  O   UNL     1      -0.134  -0.613  -0.794  0.00  0.00    -0.152 OA
ATOM     22  O   UNL     1       2.204   0.032  -0.229  0.00  0.00    -0.152 OA
BRANCH  20  23
ATOM     23  C   UNL     1       0.570  -0.513   1.665  0.00  0.00    +0.143 A 
ATOM     24  C   UNL     1      -0.535  -1.065   2.224  0.00  0.00    +0.036 A 
ATOM     25  C   UNL     1      -0.489  -1.461   3.548  0.00  0.00    +0.010 A 
ATOM     26  C   UNL     1       0.655  -1.276   4.251  0.00  0.00    +0.047 A 
ATOM     27  S   UNL     1       1.721  -0.528   3.030  0.00  0.00    -0.077 S 
ENDBRANCH  20  23
ENDBRANCH  17  20
ENDBRANCH  12  14
BRANCH   1  28
ATOM     28  C   UNL     1      -1.226   6.992  -3.479  0.00  0.00    +0.114 C 
BRANCH  28  29
ATOM     29  C   UNL     1      -1.913   6.289  -4.651  0.00  0.00    +0.001 C 
BRANCH  29  30
ATOM     30  C   UNL     1      -1.981   7.239  -5.847  0.00  0.00    -0.078 C 
BRANCH  30  33
ATOM     31  C   UNL     1      -2.938   7.512  -8.055  0.00  0.00    -0.097 C 
ATOM     32  C   UNL     1      -1.829   5.442  -7.463  0.00  0.00    -0.097 C 
ATOM     33  N   UNL     1      -2.666   6.553  -6.963  0.00  0.00    +0.376 N 
ATOM     34  H   UNL     1      -3.557   6.173  -6.624  0.00  0.00    -0.083 HD
ENDBRANCH  30  33
ENDBRANCH  29  30
ENDBRANCH  28  29
ENDBRANCH   1  28
TORSDOF 7
