REMARK  Name = ZINC03348127
REMARK  4 active torsions:
REMARK  status: ('A' for Active; 'I' for Inactive)
REMARK    1  A    between atoms: N_12  and  C_16
REMARK    2  A    between atoms: C_16  and  C_17
REMARK    3  A    between atoms: N_19  and  C_20
REMARK    4  A    between atoms: C_25  and  C_26
REMARK                            x       y       z     vdW  Elec       q    Type
REMARK                         _______ _______ _______ _____ _____    ______ ____
ROOT
ATOM      1  C   UNL     1       3.859  -0.659   1.653  0.00  0.00    +0.000 A 
ATOM      2  C   UNL     1       3.009  -1.749   1.645  0.00  0.00    +0.000 A 
ATOM      3  C   UNL     1       1.734  -1.625   1.131  0.00  0.00    +0.006 A 
ATOM      4  C   UNL     1       1.299  -0.412   0.623  0.00  0.00    -0.012 A 
ATOM      5  C   UNL     1       2.152   0.679   0.630  0.00  0.00    -0.042 A 
ATOM      6  C   UNL     1       3.430   0.552   1.146  0.00  0.00    +0.004 A 
ATOM      7  C   UNL     1       1.455   1.879   0.021  0.00  0.00    +0.038 C 
ATOM      8  C   UNL     1      -0.049   1.523   0.034  0.00  0.00    +0.045 C 
ATOM      9  C   UNL     1      -0.019  -0.010   0.019  0.00  0.00    +0.138 C 
ATOM     10  C   UNL     1      -0.175  -0.545  -1.381  0.00  0.00    +0.251 C 
ATOM     11  O   UNL     1       0.544  -0.334  -2.334  0.00  0.00    -0.272 OA
ATOM     12  N   UNL     1      -1.288  -1.310  -1.347  0.00  0.00    -0.215 N 
ATOM     13  C   UNL     1      -1.839  -1.324  -0.126  0.00  0.00    +0.310 C 
ATOM     14  O   UNL     1      -2.847  -1.943   0.154  0.00  0.00    -0.252 OA
ATOM     15  N   UNL     1      -1.149  -0.574   0.758  0.00  0.00    -0.281 N 
ATOM     16  H   UNL     1      -1.360  -0.436   1.694  0.00  0.00    +0.152 HD
ENDROOT
BRANCH  12  17
ATOM     17  C   UNL     1      -1.825  -2.035  -2.501  0.00  0.00    +0.214 C 
BRANCH  17  18
ATOM     18  C   UNL     1      -1.221  -3.415  -2.554  0.00  0.00    +0.235 C 
ATOM     19  O   UNL     1      -0.421  -3.759  -1.710  0.00  0.00    -0.274 OA
ATOM     20  N   UNL     1      -1.571  -4.266  -3.538  0.00  0.00    -0.284 N 
ATOM     21  H   UNL     1      -2.259  -4.015  -4.175  0.00  0.00    +0.155 HD
BRANCH  20  22
ATOM     22  C   UNL     1      -0.941  -5.511  -3.643  0.00  0.00    +0.045 A 
ATOM     23  C   UNL     1      -0.552  -6.193  -2.497  0.00  0.00    +0.025 A 
ATOM     24  C   UNL     1       0.065  -7.424  -2.603  0.00  0.00    +0.022 A 
ATOM     25  C   UNL     1       0.305  -7.974  -3.850  0.00  0.00    +0.042 A 
ATOM     26  C   UNL     1      -0.076  -7.295  -4.993  0.00  0.00    +0.034 A 
ATOM     27  C   UNL     1      -0.698  -6.066  -4.893  0.00  0.00    +0.077 A 
ATOM     28 CL   UNL     1       1.087  -9.519  -3.979  0.00  0.00    -0.084 Cl
BRANCH  27  29
ATOM     29  C   UNL     1      -1.114  -5.327  -6.139  0.00  0.00    +0.419 C 
ATOM     30  F   UNL     1      -0.766  -6.080  -7.265  0.00  0.00    -0.166 F 
ATOM     31  F   UNL     1      -2.498  -5.125  -6.122  0.00  0.00    -0.166 F 
ATOM     32  F   UNL     1      -0.463  -4.089  -6.186  0.00  0.00    -0.166 F 
ENDBRANCH  27  29
ENDBRANCH  20  22
ENDBRANCH  17  18
ENDBRANCH  12  17
TORSDOF 4
