REMARK  Name = ZINC12978594
REMARK  9 active torsions:
REMARK  status: ('A' for Active; 'I' for Inactive)
REMARK    1  A    between atoms: C_4  and  C_16
REMARK    2  A    between atoms: C_5  and  C_7
REMARK    3  A    between atoms: C_7  and  C_9
REMARK    4  A    between atoms: C_16  and  O_18
REMARK    5  A    between atoms: O_18  and  C_19
REMARK    6  A    between atoms: C_19  and  C_20
REMARK    7  A    between atoms: N_22  and  C_23
REMARK    8  A    between atoms: C_23  and  C_24
REMARK    9  A    between atoms: C_24  and  N_30
REMARK                            x       y       z     vdW  Elec       q    Type
REMARK                         _______ _______ _______ _____ _____    ______ ____
ROOT
ATOM      1  O   UNL     1      -2.730   1.551  -0.250  0.00  0.00    -0.452 OA
ENDROOT
BRANCH   1   2
ATOM      2  C   UNL     1      -1.590   2.262  -0.341  0.00  0.00    +0.340 C 
ATOM      3  O   UNL     1      -1.626   3.475  -0.292  0.00  0.00    -0.245 OA
BRANCH   2   7
ATOM      4  C   UNL     1       2.136   0.257  -0.811  0.00  0.00    +0.001 A 
ATOM      5  C   UNL     1       0.976  -0.469  -0.610  0.00  0.00    +0.001 A 
ATOM      6  C   UNL     1      -0.236   0.177  -0.455  0.00  0.00    +0.016 A 
ATOM      7  C   UNL     1      -0.295   1.567  -0.500  0.00  0.00    +0.070 A 
ATOM      8  C   UNL     1       0.886   2.307  -0.705  0.00  0.00    +0.036 A 
ATOM      9  C   UNL     1       2.098   1.638  -0.859  0.00  0.00    +0.012 A 
BRANCH   8  10
ATOM     10  C   UNL     1       0.839   3.784  -0.756  0.00  0.00    +0.194 C 
ATOM     11  O   UNL     1       0.915   4.357  -1.825  0.00  0.00    -0.287 OA
BRANCH  10  12
ATOM     12  C   UNL     1       0.700   4.561   0.491  0.00  0.00    +0.022 A 
ATOM     13  C   UNL     1       0.717   3.912   1.729  0.00  0.00    +0.013 A 
ATOM     14  C   UNL     1       0.593   4.645   2.890  0.00  0.00    +0.021 A 
ATOM     15  C   UNL     1       0.441   6.021   2.831  0.00  0.00    +0.041 A 
ATOM     16  C   UNL     1       0.417   6.670   1.607  0.00  0.00    +0.021 A 
ATOM     17  C   UNL     1       0.546   5.949   0.439  0.00  0.00    +0.013 A 
ATOM     18 CL   UNL     1       0.278   6.936   4.298  0.00  0.00    -0.084 Cl
ENDBRANCH  10  12
ENDBRANCH   8  10
ENDBRANCH   2   7
ENDBRANCH   1   2
BRANCH   1  19
ATOM     19  C   UNL     1      -3.964   2.300  -0.095  0.00  0.00    +0.328 C 
BRANCH  19  20
ATOM     20  C   UNL     1      -5.125   1.343  -0.011  0.00  0.00    +0.251 C 
ATOM     21  O   UNL     1      -4.932   0.147  -0.076  0.00  0.00    -0.272 OA
ATOM     22  N   UNL     1      -6.379   1.815   0.135  0.00  0.00    -0.311 N 
ATOM     23  H   UNL     1      -6.554   2.900   0.194  0.00  0.00    +0.149 HD
BRANCH  22  24
ATOM     24  C   UNL     1      -7.508   0.885   0.217  0.00  0.00    +0.126 C 
BRANCH  24  25
ATOM     25  C   UNL     1      -8.792   1.666   0.503  0.00  0.00    +0.038 C 
ATOM     26  C   UNL     1      -9.960   0.689   0.656  0.00  0.00    +0.024 C 
ATOM     27  C   UNL     1     -10.127  -0.111  -0.638  0.00  0.00    +0.002 C 
ATOM     28  C   UNL     1     -10.411   0.846  -1.797  0.00  0.00    +0.000 C 
ATOM     29  C   UNL     1      -9.243   1.823  -1.949  0.00  0.00    +0.002 C 
ATOM     30  C   UNL     1      -9.076   2.623  -0.655  0.00  0.00    +0.024 C 
BRANCH  25  31
ATOM     31  N   UNL     1      -8.632   2.434   1.745  0.00  0.00    -0.291 NA
ATOM     32  C   UNL     1      -8.175   1.570   2.844  0.00  0.00    +0.113 C 
ATOM     33  C   UNL     1      -7.963   2.419   4.100  0.00  0.00    +0.175 C 
ATOM     34  O   UNL     1      -9.180   3.102   4.418  0.00  0.00    -0.377 OA
ATOM     35  C   UNL     1      -9.653   3.952   3.370  0.00  0.00    +0.175 C 
ATOM     36  C   UNL     1      -9.881   3.119   2.107  0.00  0.00    +0.113 C 
ENDBRANCH  25  31
ENDBRANCH  24  25
ENDBRANCH  22  24
ENDBRANCH  19  20
ENDBRANCH   1  19
TORSDOF 9
