REMARK  Name = ZINC04217027
REMARK  13 active torsions:
REMARK  status: ('A' for Active; 'I' for Inactive)
REMARK    1  A    between atoms: C_1  and  C_2
REMARK    2  A    between atoms: C_2  and  C_3
REMARK    3  A    between atoms: C_3  and  N_4
REMARK    4  A    between atoms: N_4  and  C_5
REMARK    5  A    between atoms: C_5  and  N_7
REMARK    6  A    between atoms: N_7  and  C_8
REMARK    7  A    between atoms: N_7  and  C_23
REMARK    8  A    between atoms: C_8  and  C_9
REMARK    9  A    between atoms: C_14  and  C_22
REMARK   10  A    between atoms: C_15  and  C_21
REMARK   11  A    between atoms: C_23  and  C_24
REMARK   12  A    between atoms: C_29  and  C_30
REMARK   13  A    between atoms: C_29  and  N_63
REMARK                            x       y       z     vdW  Elec       q    Type
REMARK                         _______ _______ _______ _____ _____    ______ ____
ROOT
ATOM      1  N   UNL     1      -2.292   5.694   3.970  0.00  0.00    -0.310 N 
ENDROOT
BRANCH   1   2
ATOM      2  C   UNL     1      -1.502   5.597   2.882  0.00  0.00    +0.133 C 
ATOM      3  S   UNL     1      -1.070   7.006   2.011  0.00  0.00    -0.019 S 
BRANCH   2   4
ATOM      4  N   UNL     1      -1.054   4.392   2.479  0.00  0.00    -0.326 N 
ATOM      5  H   UNL     1      -1.299   3.594   2.973  0.00  0.00    +0.148 HD
BRANCH   4   6
ATOM      6  C   UNL     1      -0.195   4.287   1.297  0.00  0.00    +0.103 C 
BRANCH   6   8
ATOM      7  C   UNL     1       1.067   2.711  -0.175  0.00  0.00    +0.005 C 
ATOM      8  C   UNL     1       0.170   2.821   1.060  0.00  0.00    +0.015 C 
ENDBRANCH   6   8
ENDBRANCH   4   6
ENDBRANCH   2   4
ENDBRANCH   1   2
BRANCH   1   9
ATOM      9  C   UNL     1      -2.718   7.010   4.452  0.00  0.00    +0.147 C 
BRANCH   9  10
ATOM     10  C   UNL     1      -4.105   7.306   3.943  0.00  0.00    +0.035 A 
ATOM     11  C   UNL     1      -5.183   7.013   4.712  0.00  0.00    +0.020 A 
ATOM     12  C   UNL     1      -6.517   7.314   4.189  0.00  0.00    -0.001 A 
ATOM     13  C   UNL     1      -7.667   7.035   4.935  0.00  0.00    +0.010 A 
ATOM     14  C   UNL     1      -8.897   7.327   4.419  0.00  0.00    +0.004 A 
ATOM     15  C   UNL     1      -9.017   7.900   3.159  0.00  0.00    -0.046 A 
ATOM     16  C   UNL     1      -7.898   8.183   2.406  0.00  0.00    -0.024 A 
ATOM     17  C   UNL     1      -6.635   7.894   2.912  0.00  0.00    +0.052 A 
ATOM     18  N   UNL     1      -5.498   8.168   2.180  0.00  0.00    -0.322 N 
ATOM     19  H   UNL     1      -5.584   8.577   1.272  0.00  0.00    +0.169 HD
ATOM     20  C   UNL     1      -4.277   7.894   2.671  0.00  0.00    +0.254 A 
ATOM     21  O   UNL     1      -3.294   8.153   1.999  0.00  0.00    -0.268 OA
ATOM     22  C   UNL     1      -8.043   8.803   1.040  0.00  0.00    +0.046 C 
ATOM     23  C   UNL     1     -10.385   8.214   2.610  0.00  0.00    +0.044 C 
ENDBRANCH   9  10
ENDBRANCH   1   9
BRANCH   1  24
ATOM     24  C   UNL     1      -2.724   4.482   4.671  0.00  0.00    +0.092 C 
BRANCH  24  25
ATOM     25  C   UNL     1      -1.625   4.032   5.635  0.00  0.00    -0.051 C 
ATOM     26  C   UNL     1      -2.118   2.850   6.498  0.00  0.00    -0.016 C 
ATOM     27  C   UNL     1      -1.505   3.090   7.893  0.00  0.00    -0.020 C 
ATOM     28  C   UNL     1      -0.694   4.396   7.756  0.00  0.00    -0.078 C 
ATOM     29  N   UNL     1      -1.320   5.073   6.622  0.00  0.00    +0.382 N 
ATOM     30  H   UNL     1      -2.185   5.536   6.924  0.00  0.00    -0.081 HD
BRANCH  29  31
ATOM     31  C   UNL     1      -0.395   6.095   6.034  0.00  0.00    -0.082 C 
ATOM     32  C   UNL     1      -0.275   7.294   6.977  0.00  0.00    -0.017 C 
ENDBRANCH  29  31
ENDBRANCH  24  25
ENDBRANCH   1  24
TORSDOF 9
