REMARK  Name = ZINC58612941
REMARK  6 active torsions:
REMARK  status: ('A' for Active; 'I' for Inactive)
REMARK    1  A    between atoms: C_1  and  C_2
REMARK    2  A    between atoms: C_4  and  C_7
REMARK    3  A    between atoms: C_7  and  N_12
REMARK    4  A    between atoms: C_13  and  C_15
REMARK    5  A    between atoms: C_15  and  O_16
REMARK    6  A    between atoms: O_16  and  C_17
REMARK                            x       y       z     vdW  Elec       q    Type
REMARK                         _______ _______ _______ _____ _____    ______ ____
ROOT
ATOM      1  N   UNL     1      -2.557  -3.150   1.086  0.00  0.00    -0.300 N 
ATOM      2  C   UNL     1      -3.390  -2.093   1.150  0.00  0.00    +0.251 C 
ATOM      3  O   UNL     1      -3.338  -1.228   0.302  0.00  0.00    -0.272 OA
ATOM      4  H   UNL     1      -2.598  -3.842   1.764  0.00  0.00    +0.150 HD
ENDROOT
BRANCH   1   5
ATOM      5  C   UNL     1      -1.588  -3.254  -0.008  0.00  0.00    +0.097 C 
ATOM      6  C   UNL     1      -2.315  -3.374  -1.370  0.00  0.00    +0.034 C 
ATOM      7  C   UNL     1      -2.696  -4.874  -1.424  0.00  0.00    +0.003 C 
ATOM      8  C   UNL     1      -1.487  -5.595  -0.793  0.00  0.00    +0.003 C 
ATOM      9  C   UNL     1      -0.782  -4.565   0.107  0.00  0.00    +0.034 C 
BRANCH   5  13
ATOM     10  C   UNL     1      -0.018   1.503   0.010  0.00  0.00    +0.112 C 
ATOM     11  C   UNL     1       0.002  -0.004   0.002  0.00  0.00    +0.224 A 
ATOM     12  N   UNL     1      -1.044  -0.783   0.003  0.00  0.00    -0.194 NA
ATOM     13  C   UNL     1      -0.663  -2.065  -0.006  0.00  0.00    +0.195 A 
ATOM     14  N   UNL     1       0.638  -2.118  -0.012  0.00  0.00    -0.059 NA
ATOM     15  O   UNL     1       1.097  -0.774  -0.013  0.00  0.00    -0.338 OA
ENDBRANCH   5  13
ENDBRANCH   1   5
BRANCH   2  16
ATOM     16  C   UNL     1      -4.387  -1.986   2.275  0.00  0.00    +0.324 C 
BRANCH  16  17
ATOM     17  O   UNL     1      -5.149  -0.787   2.124  0.00  0.00    -0.482 OA
BRANCH  17  18
ATOM     18  C   UNL     1      -6.099  -0.537   3.063  0.00  0.00    +0.136 A 
ATOM     19  C   UNL     1      -6.283  -1.439   4.115  0.00  0.00    +0.047 A 
ATOM     20  C   UNL     1      -7.226  -1.217   5.070  0.00  0.00    +0.012 A 
ATOM     21  C   UNL     1      -8.029  -0.066   5.003  0.00  0.00    -0.017 A 
ATOM     22  C   UNL     1      -9.012   0.195   5.973  0.00  0.00    +0.008 A 
ATOM     23  C   UNL     1      -9.772   1.320   5.876  0.00  0.00    +0.001 A 
ATOM     24  C   UNL     1      -9.592   2.221   4.828  0.00  0.00    +0.001 A 
ATOM     25  C   UNL     1      -8.650   2.002   3.871  0.00  0.00    +0.010 A 
ATOM     26  C   UNL     1      -7.846   0.851   3.937  0.00  0.00    -0.000 A 
ATOM     27  C   UNL     1      -6.859   0.595   2.969  0.00  0.00    +0.067 A 
ATOM     28 BR   UNL     1      -6.589   1.806   1.542  0.00  0.00    -0.046 Br
ENDBRANCH  17  18
ENDBRANCH  16  17
ENDBRANCH   2  16
TORSDOF 5
