REMARK  Name = ZINC38707321
REMARK  9 active torsions:
REMARK  status: ('A' for Active; 'I' for Inactive)
REMARK    1  A    between atoms: C_1  and  C_2
REMARK    2  A    between atoms: C_5  and  N_9
REMARK    3  A    between atoms: C_7  and  C_8
REMARK    4  A    between atoms: C_11  and  C_16
REMARK    5  A    between atoms: N_18  and  C_19
REMARK    6  A    between atoms: C_27  and  C_34
REMARK    7  A    between atoms: C_27  and  C_35
REMARK    8  A    between atoms: N_30  and  C_31
REMARK    9  A    between atoms: C_31  and  C_32
REMARK                            x       y       z     vdW  Elec       q    Type
REMARK                         _______ _______ _______ _____ _____    ______ ____
ROOT
ATOM      1  C   UNL     1       1.320  -7.943  -1.885  0.00  0.00    +0.222 C 
ATOM      2  O   UNL     1       1.906  -7.112  -2.547  0.00  0.00    -0.275 OA
ATOM      3  N   UNL     1       2.017  -8.863  -1.189  0.00  0.00    -0.285 N 
ATOM      4  H   UNL     1       1.549  -9.571  -0.718  0.00  0.00    +0.155 HD
ENDROOT
BRANCH   3   5
ATOM      5  C   UNL     1       3.415  -8.798  -1.146  0.00  0.00    +0.037 A 
ATOM      6  C   UNL     1       4.053  -7.565  -1.165  0.00  0.00    +0.025 A 
ATOM      7  C   UNL     1       5.432  -7.497  -1.120  0.00  0.00    +0.029 A 
ATOM      8  C   UNL     1       6.180  -8.662  -1.057  0.00  0.00    +0.079 A 
ATOM      9  C   UNL     1       5.543  -9.902  -1.041  0.00  0.00    +0.144 A 
ATOM     10  C   UNL     1       4.161  -9.967  -1.078  0.00  0.00    +0.070 A 
ATOM     11  O   UNL     1       6.285 -11.039  -0.990  0.00  0.00    -0.489 OA
ATOM     12  C   UNL     1       6.945 -11.441  -2.187  0.00  0.00    +0.244 C 
ATOM     13  C   UNL     1       7.599 -10.239  -2.865  0.00  0.00    +0.076 C 
ATOM     14  C   UNL     1       8.304  -9.387  -1.841  0.00  0.00    +0.229 C 
ATOM     15  O   UNL     1       9.515  -9.402  -1.766  0.00  0.00    -0.275 OA
ATOM     16  N   UNL     1       7.581  -8.608  -1.006  0.00  0.00    -0.264 N 
ATOM     17  C   UNL     1       8.612 -10.729  -3.902  0.00  0.00    +0.024 C 
ATOM     18  C   UNL     1       6.524  -9.404  -3.565  0.00  0.00    +0.024 C 
BRANCH  16  19
ATOM     19  C   UNL     1       8.254  -7.716  -0.058  0.00  0.00    +0.140 C 
BRANCH  19  20
ATOM     20  C   UNL     1       8.489  -8.447   1.238  0.00  0.00    -0.015 C 
ATOM     21  C   UNL     1       9.698  -8.522   1.738  0.00  0.00    +0.005 C 
ENDBRANCH  19  20
ENDBRANCH  16  19
ENDBRANCH   3   5
BRANCH   1  24
ATOM     22  N   UNL     1      -0.946  -5.672  -1.799  0.00  0.00    -0.271 N 
ATOM     23  C   UNL     1      -0.766  -6.808  -2.711  0.00  0.00    +0.127 C 
ATOM     24  C   UNL     1      -0.186  -7.946  -1.842  0.00  0.00    +0.102 C 
ATOM     25  C   UNL     1      -0.701  -7.563  -0.435  0.00  0.00    +0.110 C 
ATOM     26  C   UNL     1      -0.913  -6.067  -0.514  0.00  0.00    +0.221 C 
ATOM     27  O   UNL     1      -1.038  -5.332   0.442  0.00  0.00    -0.275 OA
BRANCH  22  32
ATOM     28  C   UNL     1      -1.660  -0.300  -3.478  0.00  0.00    +0.044 C 
ATOM     29  C   UNL     1      -1.471  -1.727  -3.032  0.00  0.00    -0.047 A 
ATOM     30  C   UNL     1      -1.567  -2.050  -1.690  0.00  0.00    +0.005 A 
ATOM     31  C   UNL     1      -1.394  -3.356  -1.278  0.00  0.00    +0.024 A 
ATOM     32  C   UNL     1      -1.123  -4.347  -2.213  0.00  0.00    +0.037 A 
ATOM     33  C   UNL     1      -1.027  -4.021  -3.559  0.00  0.00    +0.027 A 
ATOM     34  C   UNL     1      -1.206  -2.712  -3.965  0.00  0.00    -0.046 A 
ATOM     35  C   UNL     1      -1.107  -2.358  -5.426  0.00  0.00    +0.044 C 
ENDBRANCH  22  32
ENDBRANCH   1  24
TORSDOF 5
