REMARK  Name = ZINC20154711
REMARK  12 active torsions:
REMARK  status: ('A' for Active; 'I' for Inactive)
REMARK    1  A    between atoms: C_1  and  C_2
REMARK    2  A    between atoms: C_2  and  O_3
REMARK    3  A    between atoms: O_3  and  C_4
REMARK    4  A    between atoms: C_6  and  C_21
REMARK    5  A    between atoms: C_9  and  O_10
REMARK    6  A    between atoms: O_10  and  C_11
REMARK    7  A    between atoms: C_11  and  C_12
REMARK    8  A    between atoms: C_12  and  O_13
REMARK    9  A    between atoms: O_13  and  C_14
REMARK   10  A    between atoms: C_18  and  C_20
REMARK   11  A    between atoms: C_32  and  S_33
REMARK   12  A    between atoms: S_33  and  C_34
REMARK                            x       y       z     vdW  Elec       q    Type
REMARK                         _______ _______ _______ _____ _____    ______ ____
ROOT
ATOM      1  C   UNL     1      -1.810  -2.117  -0.444  0.00  0.00    +0.162 A 
ATOM      2  C   UNL     1      -0.638  -2.808  -0.212  0.00  0.00    +0.057 A 
ATOM      3  C   UNL     1      -0.633  -4.209  -0.263  0.00  0.00    -0.021 A 
ATOM      4  C   UNL     1      -1.819  -4.899  -0.550  0.00  0.00    +0.012 A 
ATOM      5  C   UNL     1      -2.982  -4.201  -0.779  0.00  0.00    +0.050 A 
ATOM      6  C   UNL     1      -2.986  -2.812  -0.723  0.00  0.00    +0.162 A 
ENDROOT
BRANCH   3   7
ATOM      7  C   UNL     1       0.608  -4.949  -0.018  0.00  0.00    +0.024 C 
ATOM      8  C   UNL     1       0.573  -6.146   0.660  0.00  0.00    +0.079 C 
ATOM      9  C   UNL     1       1.775  -7.022   0.775  0.00  0.00    +0.137 C 
ATOM     10  N   UNL     1       2.995  -6.563   0.834  0.00  0.00    -0.284 NA
ATOM     11  N   UNL     1       1.458  -8.395   0.813  0.00  0.00    -0.211 N 
ATOM     12  C   UNL     1       0.196  -8.767   1.229  0.00  0.00    +0.183 C 
ATOM     13  N   UNL     1      -0.806  -7.962   1.507  0.00  0.00    -0.152 NA
ATOM     14  C   UNL     1      -0.662  -6.634   1.324  0.00  0.00    +0.273 C 
ATOM     15  O   UNL     1      -1.524  -5.853   1.691  0.00  0.00    -0.268 OA
ATOM     16  S   UNL     1       0.276 -10.431   1.261  0.00  0.00    +0.048 S 
ATOM     17  N   UNL     1       1.827 -10.644   0.661  0.00  0.00    -0.185 NA
ATOM     18  C   UNL     1       2.274  -9.430   0.489  0.00  0.00    +0.175 C 
ATOM     19  H   UNL     1       3.156  -5.607   0.803  0.00  0.00    +0.188 HD
BRANCH  18  20
ATOM     20  S   UNL     1       3.892  -9.143  -0.147  0.00  0.00    -0.093 S 
ATOM     21  C   UNL     1       4.559 -10.809  -0.415  0.00  0.00    +0.093 C 
ENDBRANCH  18  20
ENDBRANCH   3   7
BRANCH   1  22
ATOM     22  O   UNL     1      -1.819  -0.758  -0.394  0.00  0.00    -0.489 OA
BRANCH  22  24
ATOM     23  C   UNL     1      -0.784   1.405  -0.090  0.00  0.00    +0.048 C 
ATOM     24  C   UNL     1      -0.578  -0.111  -0.103  0.00  0.00    +0.226 C 
ENDBRANCH  22  24
ENDBRANCH   1  22
BRANCH   6  25
ATOM     25  O   UNL     1      -4.139  -2.130  -0.945  0.00  0.00    -0.485 OA
BRANCH  25  26
ATOM     26  C   UNL     1      -5.307  -2.903  -1.226  0.00  0.00    +0.270 C 
BRANCH  26  27
ATOM     27  C   UNL     1      -6.498  -1.968  -1.446  0.00  0.00    +0.270 C 
BRANCH  27  28
ATOM     28  O   UNL     1      -6.274  -1.181  -2.619  0.00  0.00    -0.489 OA
BRANCH  28  29
ATOM     29  C   UNL     1      -7.244  -0.292  -2.959  0.00  0.00    +0.121 A 
ATOM     30  C   UNL     1      -8.384  -0.174  -2.177  0.00  0.00    +0.045 A 
ATOM     31  C   UNL     1      -9.368   0.731  -2.525  0.00  0.00    +0.004 A 
ATOM     32  C   UNL     1      -9.217   1.519  -3.651  0.00  0.00    +0.003 A 
ATOM     33  C   UNL     1      -8.082   1.403  -4.431  0.00  0.00    -0.047 A 
ATOM     34  C   UNL     1      -7.093   0.504  -4.085  0.00  0.00    +0.049 A 
ATOM     35  C   UNL     1      -7.922   2.264  -5.658  0.00  0.00    +0.044 C 
ENDBRANCH  28  29
ENDBRANCH  27  28
ENDBRANCH  26  27
ENDBRANCH  25  26
ENDBRANCH   6  25
TORSDOF 9
