REMARK  Name = ZINC15103840
REMARK  12 active torsions:
REMARK  status: ('A' for Active; 'I' for Inactive)
REMARK    1  A    between atoms: C_1  and  C_2
REMARK    2  A    between atoms: C_2  and  O_3
REMARK    3  A    between atoms: O_3  and  C_4
REMARK    4  A    between atoms: C_4  and  C_6
REMARK    5  A    between atoms: C_7  and  C_34
REMARK    6  A    between atoms: C_13  and  C_17
REMARK    7  A    between atoms: C_17  and  C_19
REMARK    8  A    between atoms: C_17  and  N_65
REMARK    9  A    between atoms: C_20  and  N_65
REMARK   10  A    between atoms: C_21  and  C_22
REMARK   11  A    between atoms: C_21  and  N_65
REMARK   12  A    between atoms: C_27  and  N_28
REMARK                            x       y       z     vdW  Elec       q    Type
REMARK                         _______ _______ _______ _____ _____    ______ ____
ROOT
ATOM      1  C   UNL     1      -2.365   0.981  -0.165  0.00  0.00    -0.004 C 
ATOM      2  C   UNL     1      -1.306   2.022  -0.533  0.00  0.00    -0.005 C 
ENDROOT
BRANCH   1  10
ATOM      3  C   UNL     1      -2.506  -0.986   5.845  0.00  0.00    +0.102 A 
ATOM      4  C   UNL     1      -1.433  -1.093   5.008  0.00  0.00    -0.015 A 
ATOM      5  C   UNL     1      -1.524  -0.623   3.697  0.00  0.00    +0.076 A 
ATOM      6  C   UNL     1      -0.501  -0.633   2.626  0.00  0.00    +0.260 A 
ATOM      7  O   UNL     1       0.607  -1.098   2.825  0.00  0.00    -0.267 OA
ATOM      8  N   UNL     1      -0.828  -0.115   1.426  0.00  0.00    -0.312 N 
ATOM      9  H   UNL     1      -0.170  -0.115   0.714  0.00  0.00    +0.170 HD
ATOM     10  C   UNL     1      -2.057   0.409   1.195  0.00  0.00    +0.097 A 
ATOM     11  N   UNL     1      -2.983   0.429   2.115  0.00  0.00    -0.228 NA
ATOM     12  C   UNL     1      -2.765  -0.054   3.331  0.00  0.00    +0.116 A 
ATOM     13  S   UNL     1      -3.733  -0.201   4.812  0.00  0.00    -0.062 S 
ATOM     14  C   UNL     1      -0.152  -1.718   5.500  0.00  0.00    +0.046 C 
BRANCH   3  15
ATOM     15  C   UNL     1      -2.623  -1.409   7.241  0.00  0.00    +0.346 C 
ATOM     16  O   UNL     1      -1.678  -1.935   7.798  0.00  0.00    -0.244 OA
BRANCH  15  17
ATOM     17  O   UNL     1      -3.778  -1.217   7.911  0.00  0.00    -0.461 OA
BRANCH  17  19
ATOM     18  C   UNL     1      -5.202  -1.361   9.881  0.00  0.00    +0.048 C 
ATOM     19  C   UNL     1      -3.822  -1.662   9.292  0.00  0.00    +0.229 C 
ENDBRANCH  17  19
ENDBRANCH  15  17
ENDBRANCH   3  15
ENDBRANCH   1  10
BRANCH   1  21
ATOM     20  C   UNL     1      -3.738   2.693   0.857  0.00  0.00    -0.095 C 
ATOM     21  N   UNL     1      -3.693   1.628  -0.167  0.00  0.00    +0.387 N 
ATOM     22  H   UNL     1      -3.860   2.046  -1.090  0.00  0.00    -0.081 HD
BRANCH  21  23
ATOM     23  C   UNL     1      -4.745   0.624   0.102  0.00  0.00    -0.041 C 
BRANCH  23  24
ATOM     24  C   UNL     1      -6.092   1.260  -0.122  0.00  0.00    -0.043 A 
ATOM     25  C   UNL     1      -6.842   1.691   0.956  0.00  0.00    +0.003 A 
ATOM     26  C   UNL     1      -8.078   2.275   0.750  0.00  0.00    +0.000 A 
ATOM     27  C   UNL     1      -8.569   2.430  -0.533  0.00  0.00    +0.002 A 
ATOM     28  C   UNL     1      -7.825   2.002  -1.615  0.00  0.00    +0.023 A 
ATOM     29  C   UNL     1      -6.580   1.419  -1.413  0.00  0.00    +0.031 A 
BRANCH  29  30
ATOM     30  N   UNL     1      -5.823   0.990  -2.505  0.00  0.00    -0.330 N 
ATOM     31  C   UNL     1      -5.431   2.123  -3.352  0.00  0.00    +0.105 C 
ATOM     32  C   UNL     1      -4.486   1.637  -4.453  0.00  0.00    +0.019 C 
ATOM     33  C   UNL     1      -5.193   0.569  -5.292  0.00  0.00    +0.003 C 
ATOM     34  C   UNL     1      -5.633  -0.578  -4.378  0.00  0.00    +0.019 C 
ATOM     35  C   UNL     1      -6.545  -0.028  -3.279  0.00  0.00    +0.105 C 
ENDBRANCH  29  30
ENDBRANCH  23  24
ENDBRANCH  21  23
ENDBRANCH   1  21
TORSDOF 8
