REMARK  Name = ZINC22535720
REMARK  8 active torsions:
REMARK  status: ('A' for Active; 'I' for Inactive)
REMARK    1  A    between atoms: C_1  and  C_2
REMARK    2  A    between atoms: C_9  and  N_14
REMARK    3  A    between atoms: C_10  and  C_11
REMARK    4  A    between atoms: N_14  and  C_15
REMARK    5  A    between atoms: C_15  and  N_17
REMARK    6  A    between atoms: C_18  and  C_20
REMARK    7  A    between atoms: C_29  and  O_30
REMARK    8  A    between atoms: O_30  and  C_31
REMARK                            x       y       z     vdW  Elec       q    Type
REMARK                         _______ _______ _______ _____ _____    ______ ____
ROOT
ATOM      1  C   UNL     1       2.227  -6.106  -3.025  0.00  0.00    +0.141 C 
ATOM      2  S   UNL     1       2.186  -4.848  -4.185  0.00  0.00    -0.018 S 
ENDROOT
BRANCH   1   3
ATOM      3  N   UNL     1       2.556  -7.358  -3.400  0.00  0.00    -0.263 N 
ATOM      4  C   UNL     1       2.852  -7.620  -4.688  0.00  0.00    +0.253 C 
ATOM      5  O   UNL     1       2.823  -6.726  -5.512  0.00  0.00    -0.270 OA
ATOM      6  H   UNL     1       2.582  -8.167  -2.654  0.00  0.00    +0.157 HD
BRANCH   4   7
ATOM      7  C   UNL     1       3.212  -8.990  -5.099  0.00  0.00    +0.079 A 
ATOM      8  C   UNL     1       3.244 -10.005  -4.156  0.00  0.00    +0.025 A 
ATOM      9  C   UNL     1       3.586 -11.306  -4.552  0.00  0.00    -0.017 A 
ATOM     10  C   UNL     1       3.628 -12.361  -3.622  0.00  0.00    +0.008 A 
ATOM     11  C   UNL     1       3.964 -13.612  -4.037  0.00  0.00    +0.001 A 
ATOM     12  C   UNL     1       4.267 -13.867  -5.373  0.00  0.00    +0.001 A 
ATOM     13  C   UNL     1       4.237 -12.873  -6.302  0.00  0.00    +0.008 A 
ATOM     14  C   UNL     1       3.895 -11.566  -5.913  0.00  0.00    -0.014 A 
ATOM     15  C   UNL     1       3.856 -10.519  -6.849  0.00  0.00    +0.055 A 
ATOM     16  C   UNL     1       3.516  -9.260  -6.450  0.00  0.00    +0.133 A 
BRANCH  16  17
ATOM     17  O   UNL     1       3.475  -8.255  -7.361  0.00  0.00    -0.494 OA
ATOM     18  C   UNL     1       3.793  -8.592  -8.713  0.00  0.00    +0.277 C 
ENDBRANCH  16  17
ENDBRANCH   4   7
ENDBRANCH   1   3
BRANCH   1  19
ATOM     19  N   UNL     1       1.930  -5.845  -1.736  0.00  0.00    -0.291 N 
ATOM     20  H   UNL     1       1.957  -6.653  -0.991  0.00  0.00    +0.154 HD
BRANCH  19  28
ATOM     21  C   UNL     1      -0.019   1.526   0.010  0.00  0.00    +0.008 C 
ATOM     22  C   UNL     1       0.002  -0.004   0.002  0.00  0.00    -0.009 C 
ATOM     23  C   UNL     1       0.742  -0.514   1.242  0.00  0.00    +0.008 C 
ATOM     24  C   UNL     1       0.557  -2.027   1.373  0.00  0.00    +0.037 C 
ATOM     25  C   UNL     1       0.941  -2.684   0.053  0.00  0.00    -0.023 A 
ATOM     26  C   UNL     1       1.008  -1.966  -1.089  0.00  0.00    -0.004 A 
ATOM     27  S   UNL     1       1.484  -3.133  -2.332  0.00  0.00    -0.077 S 
ATOM     28  C   UNL     1       1.592  -4.557  -1.351  0.00  0.00    +0.084 A 
ATOM     29  C   UNL     1       1.258  -4.096  -0.085  0.00  0.00    +0.068 A 
ATOM     30  C   UNL     1       0.736  -0.502  -1.252  0.00  0.00    +0.046 C 
BRANCH  29  31
ATOM     31  C   UNL     1       1.226  -4.998   1.069  0.00  0.00    +0.244 C 
ATOM     32  O   UNL     1       0.198  -5.582   1.357  0.00  0.00    -0.270 OA
ATOM     33  N   UNL     1       2.336  -5.182   1.812  0.00  0.00    -0.325 N 
ATOM     34  H   UNL     1       2.312  -5.859   2.679  0.00  0.00    +0.145 HD
ATOM     35  H   UNL     1       3.265  -4.654   1.552  0.00  0.00    +0.145 HD
ENDBRANCH  29  31
ENDBRANCH  19  28
ENDBRANCH   1  19
TORSDOF 6
