REMARK  Name = ZINC12524930
REMARK  11 active torsions:
REMARK  status: ('A' for Active; 'I' for Inactive)
REMARK    1  A    between atoms: C_1  and  C_2
REMARK    2  A    between atoms: C_2  and  O_3
REMARK    3  A    between atoms: O_3  and  C_4
REMARK    4  A    between atoms: C_4  and  C_6
REMARK    5  A    between atoms: C_7  and  C_30
REMARK    6  A    between atoms: C_10  and  N_11
REMARK    7  A    between atoms: C_12  and  C_14
REMARK    8  A    between atoms: C_14  and  N_15
REMARK    9  A    between atoms: N_18  and  C_21
REMARK   10  A    between atoms: C_26  and  N_27
REMARK   11  A    between atoms: C_33  and  C_35
REMARK                            x       y       z     vdW  Elec       q    Type
REMARK                         _______ _______ _______ _____ _____    ______ ____
ROOT
ATOM      1  N   UNL     1      -0.597  -2.458  -3.928  0.00  0.00    -0.278 N 
ATOM      2  C   UNL     1      -1.109  -2.787  -5.131  0.00  0.00    +0.232 C 
ATOM      3  O   UNL     1      -0.385  -3.228  -5.998  0.00  0.00    -0.274 OA
ATOM      4  H   UNL     1      -1.176  -2.105  -3.235  0.00  0.00    +0.155 HD
ENDROOT
BRANCH   1   9
ATOM      5  C   UNL     1       1.448  -2.344  -2.515  0.00  0.00    +0.098 A 
ATOM      6  C   UNL     1       2.874  -2.622  -2.521  0.00  0.00    +0.040 A 
ATOM      7  C   UNL     1       3.364  -3.125  -3.687  0.00  0.00    +0.059 A 
ATOM      8  S   UNL     1       1.926  -3.213  -4.731  0.00  0.00    -0.080 S 
ATOM      9  C   UNL     1       0.756  -2.626  -3.682  0.00  0.00    +0.087 A 
BRANCH   6  10
ATOM     10  C   UNL     1       3.733  -2.374  -1.345  0.00  0.00    +0.137 A 
ATOM     11  C   UNL     1       4.611  -3.257  -0.799  0.00  0.00    +0.050 A 
ATOM     12  C   UNL     1       5.211  -2.606   0.299  0.00  0.00    +0.045 A 
ATOM     13  C   UNL     1       4.676  -1.373   0.367  0.00  0.00    +0.103 A 
ATOM     14  O   UNL     1       3.786  -1.234  -0.631  0.00  0.00    -0.460 OA
ATOM     15  C   UNL     1       5.020  -0.321   1.389  0.00  0.00    +0.086 C 
ENDBRANCH   6  10
BRANCH   5  16
ATOM     16  C   UNL     1       0.776  -1.800  -1.335  0.00  0.00    +0.342 C 
ATOM     17  O   UNL     1       0.312  -2.552  -0.499  0.00  0.00    -0.245 OA
BRANCH  16  18
ATOM     18  O   UNL     1       0.671  -0.465  -1.174  0.00  0.00    -0.461 OA
BRANCH  18  20
ATOM     19  C   UNL     1      -0.019   1.526   0.010  0.00  0.00    +0.048 C 
ATOM     20  C   UNL     1       0.002  -0.004   0.002  0.00  0.00    +0.229 C 
ENDBRANCH  18  20
ENDBRANCH  16  18
ENDBRANCH   5  16
ENDBRANCH   1   9
BRANCH   2  21
ATOM     21  C   UNL     1      -2.581  -2.604  -5.399  0.00  0.00    +0.181 C 
BRANCH  21  22
ATOM     22  N   UNL     1      -2.885  -3.031  -6.771  0.00  0.00    -0.291 NA
ATOM     23  C   UNL     1      -2.233  -2.154  -7.752  0.00  0.00    +0.104 C 
ATOM     24  C   UNL     1      -2.424  -2.735  -9.158  0.00  0.00    +0.120 C 
ATOM     25  N   UNL     1      -3.860  -2.957  -9.380  0.00  0.00    -0.326 N 
ATOM     26  C   UNL     1      -4.613  -3.713  -8.367  0.00  0.00    +0.120 C 
ATOM     27  C   UNL     1      -4.336  -3.094  -6.993  0.00  0.00    +0.104 C 
BRANCH  25  28
ATOM     28  C   UNL     1      -4.494  -2.463 -10.523  0.00  0.00    +0.060 A 
ATOM     29  C   UNL     1      -4.566  -3.243 -11.671  0.00  0.00    +0.025 A 
ATOM     30  C   UNL     1      -5.193  -2.752 -12.799  0.00  0.00    +0.002 A 
ATOM     31  C   UNL     1      -5.749  -1.485 -12.787  0.00  0.00    +0.002 A 
ATOM     32  C   UNL     1      -5.678  -0.707 -11.647  0.00  0.00    +0.034 A 
ATOM     33  C   UNL     1      -5.057  -1.194 -10.513  0.00  0.00    +0.147 A 
BRANCH  33  34
ATOM     34  N   UNL     1      -4.988  -0.362  -9.291  0.00  0.00    +0.058 N 
ATOM     35  O   UNL     1      -5.479   0.743  -9.283  0.00  0.00    -0.126 OA
ATOM     36  O   UNL     1      -4.440  -0.787  -8.301  0.00  0.00    -0.126 OA
ENDBRANCH  33  34
ENDBRANCH  25  28
ENDBRANCH  21  22
ENDBRANCH   2  21
TORSDOF 9
