REMARK  Name = ZINC01888047
REMARK  12 active torsions:
REMARK  status: ('A' for Active; 'I' for Inactive)
REMARK    1  A    between atoms: C_4  and  C_7
REMARK    2  A    between atoms: C_7  and  N_65
REMARK    3  A    between atoms: C_8  and  C_9
REMARK    4  A    between atoms: C_8  and  N_65
REMARK    5  A    between atoms: C_15  and  C_16
REMARK    6  A    between atoms: C_15  and  N_65
REMARK    7  A    between atoms: C_16  and  C_18
REMARK    8  A    between atoms: C_16  and  O_35
REMARK    9  A    between atoms: C_18  and  N_19
REMARK   10  A    between atoms: N_19  and  C_20
REMARK   11  A    between atoms: N_19  and  S_26
REMARK   12  A    between atoms: S_26  and  C_29
REMARK                            x       y       z     vdW  Elec       q    Type
REMARK                         _______ _______ _______ _____ _____    ______ ____
ROOT
ATOM      1  C   UNL     1       2.225  -1.365  -2.577  0.00  0.00    +0.117 C 
ENDROOT
BRANCH   1   2
ATOM      2  O   UNL     1       3.037  -0.668  -3.524  0.00  0.00    -0.392 OA
ATOM      3  H   UNL     1       3.634  -1.239  -4.027  0.00  0.00    +0.210 HD
ENDBRANCH   1   2
BRANCH   1   4
ATOM      4  C   UNL     1       1.359  -2.394  -3.307  0.00  0.00    -0.045 C 
BRANCH   4   5
ATOM      5  N   UNL     1       0.529  -1.688  -4.306  0.00  0.00    +0.387 N 
ATOM      6  H   UNL     1       0.258  -0.773  -3.927  0.00  0.00    -0.081 HD
BRANCH   5   7
ATOM      7  C   UNL     1       1.300  -1.483  -5.550  0.00  0.00    -0.042 C 
BRANCH   7  11
ATOM      8  C   UNL     1       2.646  -5.225  -7.111  0.00  0.00    +0.000 A 
ATOM      9  C   UNL     1       1.476  -4.660  -7.583  0.00  0.00    +0.000 A 
ATOM     10  C   UNL     1       1.040  -3.449  -7.077  0.00  0.00    +0.002 A 
ATOM     11  C   UNL     1       1.775  -2.803  -6.101  0.00  0.00    -0.064 A 
ATOM     12  C   UNL     1       2.948  -3.365  -5.633  0.00  0.00    +0.002 A 
ATOM     13  C   UNL     1       3.381  -4.579  -6.134  0.00  0.00    +0.000 A 
ENDBRANCH   7  11
ENDBRANCH   5   7
BRANCH   5  14
ATOM     14  C   UNL     1      -0.693  -2.470  -4.591  0.00  0.00    -0.042 C 
BRANCH  14  15
ATOM     15  C   UNL     1      -1.709  -1.561  -5.233  0.00  0.00    -0.064 A 
ATOM     16  C   UNL     1      -2.507  -0.751  -4.446  0.00  0.00    +0.002 A 
ATOM     17  C   UNL     1      -3.435   0.086  -5.036  0.00  0.00    +0.000 A 
ATOM     18  C   UNL     1      -3.574   0.106  -6.411  0.00  0.00    +0.000 A 
ATOM     19  C   UNL     1      -2.780  -0.708  -7.197  0.00  0.00    +0.000 A 
ATOM     20  C   UNL     1      -1.847  -1.541  -6.608  0.00  0.00    +0.002 A 
ENDBRANCH  14  15
ENDBRANCH   5  14
ENDBRANCH   4   5
ENDBRANCH   1   4
BRANCH   1  21
ATOM     21  C   UNL     1       3.122  -2.080  -1.565  0.00  0.00    +0.161 C 
BRANCH  21  22
ATOM     22  N   UNL     1       3.902  -1.090  -0.818  0.00  0.00    -0.201 N 
BRANCH  22  23
ATOM     23  C   UNL     1       5.109  -0.616  -1.336  0.00  0.00    +0.051 A 
ATOM     24  C   UNL     1       5.250   0.729  -1.653  0.00  0.00    +0.025 A 
ATOM     25  C   UNL     1       6.447   1.195  -2.160  0.00  0.00    +0.002 A 
ATOM     26  C   UNL     1       7.501   0.323  -2.363  0.00  0.00    +0.000 A 
ATOM     27  C   UNL     1       7.362  -1.018  -2.054  0.00  0.00    +0.002 A 
ATOM     28  C   UNL     1       6.169  -1.490  -1.541  0.00  0.00    +0.025 A 
ENDBRANCH  22  23
BRANCH  22  29
ATOM     29  S   UNL     1       3.351  -0.533   0.641  0.00  0.00    +0.075 S 
ATOM     30  O   UNL     1       4.481  -0.019   1.333  0.00  0.00    -0.150 OA
ATOM     31  O   UNL     1       2.527  -1.556   1.182  0.00  0.00    -0.150 OA
BRANCH  29  32
ATOM     32  C   UNL     1       2.297   0.840   0.310  0.00  0.00    +0.109 A 
ATOM     33  C   UNL     1       0.944   0.640   0.108  0.00  0.00    +0.029 A 
ATOM     34  C   UNL     1       0.118   1.717  -0.152  0.00  0.00    +0.002 A 
ATOM     35  C   UNL     1       0.644   2.994  -0.209  0.00  0.00    +0.000 A 
ATOM     36  C   UNL     1       1.996   3.194  -0.007  0.00  0.00    +0.002 A 
ATOM     37  C   UNL     1       2.823   2.117   0.253  0.00  0.00    +0.029 A 
ENDBRANCH  29  32
ENDBRANCH  22  29
ENDBRANCH  21  22
ENDBRANCH   1  21
TORSDOF 12
