REMARK  Name = ZINC03372189
REMARK  12 active torsions:
REMARK  status: ('A' for Active; 'I' for Inactive)
REMARK    1  A    between atoms: C_1  and  C_2
REMARK    2  A    between atoms: C_2  and  O_3
REMARK    3  A    between atoms: O_3  and  C_4
REMARK    4  A    between atoms: C_4  and  C_6
REMARK    5  A    between atoms: C_7  and  C_34
REMARK    6  A    between atoms: C_8  and  C_33
REMARK    7  A    between atoms: C_10  and  N_11
REMARK    8  A    between atoms: C_12  and  C_14
REMARK    9  A    between atoms: C_14  and  S_15
REMARK   10  A    between atoms: S_15  and  C_16
REMARK   11  A    between atoms: N_26  and  C_27
REMARK   12  A    between atoms: C_27  and  C_28
REMARK                            x       y       z     vdW  Elec       q    Type
REMARK                         _______ _______ _______ _____ _____    ______ ____
ROOT
ATOM      1  S   UNL     1      -2.655  -2.898   0.014  0.00  0.00    -0.078 S 
ENDROOT
BRANCH   1   2
ATOM      2  C   UNL     1      -1.118  -2.037   0.003  0.00  0.00    +0.173 A 
ATOM      3  N   UNL     1      -1.136  -0.727   0.009  0.00  0.00    -0.223 NA
ATOM      4  C   UNL     1       0.002  -0.004   0.002  0.00  0.00    +0.079 A 
ATOM      5  C   UNL     1      -0.017   1.394   0.010  0.00  0.00    +0.028 A 
ATOM      6  C   UNL     1       1.161   2.086   0.002  0.00  0.00    +0.002 A 
ATOM      7  C   UNL     1       2.381   1.422  -0.013  0.00  0.00    +0.001 A 
ATOM      8  C   UNL     1       2.432   0.055  -0.021  0.00  0.00    +0.015 A 
ATOM      9  C   UNL     1       1.245  -0.677  -0.013  0.00  0.00    +0.065 A 
ATOM     10  C   UNL     1       1.240  -2.146  -0.021  0.00  0.00    +0.263 A 
ATOM     11  O   UNL     1       2.278  -2.781  -0.034  0.00  0.00    -0.267 OA
ATOM     12  N   UNL     1       0.037  -2.766  -0.012  0.00  0.00    -0.280 N 
BRANCH  12  13
ATOM     13  C   UNL     1      -0.027  -4.229  -0.019  0.00  0.00    +0.201 C 
BRANCH  13  14
ATOM     14  C   UNL     1      -0.063  -4.724  -1.443  0.00  0.00    +0.125 A 
ATOM     15  C   UNL     1       1.009  -5.024  -2.198  0.00  0.00    +0.046 A 
ATOM     16  C   UNL     1       0.519  -5.447  -3.455  0.00  0.00    +0.041 A 
ATOM     17  C   UNL     1      -0.823  -5.372  -3.395  0.00  0.00    +0.195 A 
ATOM     18  O   UNL     1      -1.170  -4.933  -2.174  0.00  0.00    -0.466 OA
ENDBRANCH  13  14
ENDBRANCH  12  13
ENDBRANCH   1   2
BRANCH   1  19
ATOM     19  C   UNL     1      -3.800  -1.496   0.033  0.00  0.00    +0.173 C 
BRANCH  19  21
ATOM     20  N   UNL     1      -6.248  -1.137   0.059  0.00  0.00    -0.279 N 
ATOM     21  C   UNL     1      -5.218  -2.007   0.044  0.00  0.00    +0.228 C 
ATOM     22  O   UNL     1      -5.434  -3.200   0.041  0.00  0.00    -0.275 OA
ATOM     23  H   UNL     1      -6.075  -0.182   0.062  0.00  0.00    +0.155 HD
BRANCH  20  28
ATOM     24  C   UNL     1      -8.734  -0.873   0.086  0.00  0.00    +0.091 A 
ATOM     25  C   UNL     1      -9.965  -1.627   0.094  0.00  0.00    -0.025 A 
ATOM     26  C   UNL     1      -9.863  -2.968   0.086  0.00  0.00    -0.008 A 
ATOM     27  S   UNL     1      -8.105  -3.247   0.060  0.00  0.00    -0.078 S 
ATOM     28  C   UNL     1      -7.552  -1.606   0.070  0.00  0.00    +0.086 A 
ATOM     29  C   UNL     1     -10.972  -3.990   0.092  0.00  0.00    +0.052 C 
ATOM     30  C   UNL     1     -11.306  -0.941   0.112  0.00  0.00    +0.045 C 
BRANCH  24  31
ATOM     31  C   UNL     1      -8.730   0.592   0.093  0.00  0.00    +0.342 C 
ATOM     32  O   UNL     1      -8.739   1.206  -0.957  0.00  0.00    -0.245 OA
BRANCH  31  33
ATOM     33  O   UNL     1      -8.716   1.260   1.265  0.00  0.00    -0.461 OA
BRANCH  33  35
ATOM     34  C   UNL     1      -8.697   3.287   2.614  0.00  0.00    +0.048 C 
ATOM     35  C   UNL     1      -8.713   2.710   1.197  0.00  0.00    +0.229 C 
ENDBRANCH  33  35
ENDBRANCH  31  33
ENDBRANCH  24  31
ENDBRANCH  20  28
ENDBRANCH  19  21
ENDBRANCH   1  19
TORSDOF 9
