REMARK  Name = ZINC08586254
REMARK  13 active torsions:
REMARK  status: ('A' for Active; 'I' for Inactive)
REMARK    1  A    between atoms: C_1  and  C_2
REMARK    2  A    between atoms: C_2  and  C_3
REMARK    3  A    between atoms: C_3  and  C_5
REMARK    4  A    between atoms: C_3  and  N_68
REMARK    5  A    between atoms: N_9  and  C_10
REMARK    6  A    between atoms: C_10  and  C_11
REMARK    7  A    between atoms: C_17  and  C_18
REMARK    8  A    between atoms: C_17  and  N_68
REMARK    9  A    between atoms: C_22  and  O_29
REMARK   10  A    between atoms: C_27  and  O_28
REMARK   11  A    between atoms: O_29  and  C_30
REMARK   12  A    between atoms: C_31  and  C_32
REMARK   13  A    between atoms: C_31  and  N_68
REMARK                            x       y       z     vdW  Elec       q    Type
REMARK                         _______ _______ _______ _____ _____    ______ ____
ROOT
ATOM      1  N   UNL     1      -0.281   1.581   0.618  0.00  0.00    +0.391 N 
ATOM      2  H   UNL     1       0.054   2.034   1.476  0.00  0.00    -0.080 HD
ENDROOT
BRANCH   1   3
ATOM      3  C   UNL     1      -0.484   0.141   0.882  0.00  0.00    +0.003 C 
BRANCH   3   4
ATOM      4  C   UNL     1       0.666  -0.364   1.715  0.00  0.00    +0.138 A 
ATOM      5  N   UNL     1       1.940  -0.129   1.515  0.00  0.00    -0.115 NA
ATOM      6  N   UNL     1       2.605  -0.731   2.439  0.00  0.00    -0.023 NA
ATOM      7  N   UNL     1       1.790  -1.351   3.218  0.00  0.00    -0.044 NA
ATOM      8  N   UNL     1       0.585  -1.149   2.805  0.00  0.00    -0.226 N 
BRANCH   8   9
ATOM      9  C   UNL     1      -0.642  -1.676   3.408  0.00  0.00    +0.182 C 
BRANCH   9  10
ATOM     10  C   UNL     1      -0.973  -3.010   2.791  0.00  0.00    -0.026 A 
ATOM     11  C   UNL     1      -1.779  -3.072   1.670  0.00  0.00    +0.005 A 
ATOM     12  C   UNL     1      -2.079  -4.296   1.100  0.00  0.00    +0.000 A 
ATOM     13  C   UNL     1      -1.580  -5.458   1.658  0.00  0.00    +0.000 A 
ATOM     14  C   UNL     1      -0.778  -5.397   2.782  0.00  0.00    +0.000 A 
ATOM     15  C   UNL     1      -0.474  -4.173   3.349  0.00  0.00    +0.005 A 
ENDBRANCH   9  10
ENDBRANCH   8   9
ENDBRANCH   3   4
BRANCH   3  17
ATOM     16  C   UNL     1      -1.822  -0.270  -1.188  0.00  0.00    +0.002 C 
ATOM     17  C   UNL     1      -0.545  -0.641  -0.432  0.00  0.00    -0.011 C 
ENDBRANCH   3  17
ENDBRANCH   1   3
BRANCH   1  18
ATOM     18  C   UNL     1      -1.558   2.206   0.213  0.00  0.00    -0.037 C 
BRANCH  18  19
ATOM     19  C   UNL     1      -1.585   3.620   0.732  0.00  0.00    -0.002 A 
ATOM     20  C   UNL     1      -1.506   4.668  -0.136  0.00  0.00    +0.017 A 
ATOM     21  C   UNL     1      -1.535   5.975   0.390  0.00  0.00    +0.004 A 
ATOM     22  C   UNL     1      -1.458   7.099  -0.447  0.00  0.00    +0.055 A 
ATOM     23  C   UNL     1      -1.489   8.351   0.099  0.00  0.00    +0.121 A 
ATOM     24  C   UNL     1      -1.597   8.524   1.482  0.00  0.00    +0.048 A 
ATOM     25  C   UNL     1      -1.673   7.454   2.318  0.00  0.00    +0.032 A 
ATOM     26  C   UNL     1      -1.644   6.151   1.791  0.00  0.00    +0.075 A 
ATOM     27  N   UNL     1      -1.717   5.083   2.593  0.00  0.00    -0.213 NA
ATOM     28  C   UNL     1      -1.696   3.861   2.107  0.00  0.00    +0.214 A 
BRANCH  28  29
ATOM     29  O   UNL     1      -1.779   2.808   2.958  0.00  0.00    -0.492 OA
ATOM     30  H   UNL     1      -0.922   2.493   3.278  0.00  0.00    +0.294 HD
ENDBRANCH  28  29
BRANCH  23  31
ATOM     31  O   UNL     1      -1.415   9.440  -0.711  0.00  0.00    -0.495 OA
ATOM     32  C   UNL     1      -1.452  10.721  -0.080  0.00  0.00    +0.277 C 
ENDBRANCH  23  31
ENDBRANCH  18  19
ENDBRANCH   1  18
BRANCH   1  33
ATOM     33  C   UNL     1       0.729   1.762  -0.446  0.00  0.00    -0.045 C 
BRANCH  33  34
ATOM     34  C   UNL     1       1.241   3.203  -0.397  0.00  0.00    +0.102 C 
ATOM     35  C   UNL     1       2.368   3.409  -1.433  0.00  0.00    +0.032 C 
ATOM     36  C   UNL     1       3.359   4.360  -0.726  0.00  0.00    +0.030 C 
ATOM     37  C   UNL     1       2.713   4.617   0.654  0.00  0.00    +0.160 C 
ATOM     38  O   UNL     1       1.859   3.474   0.880  0.00  0.00    -0.378 OA
ENDBRANCH  33  34
ENDBRANCH   1  33
TORSDOF 11
