REMARK  Name = ZINC00669515
REMARK  11 active torsions:
REMARK  status: ('A' for Active; 'I' for Inactive)
REMARK    1  A    between atoms: C_1  and  C_2
REMARK    2  A    between atoms: C_4  and  C_31
REMARK    3  A    between atoms: N_5  and  C_7
REMARK    4  A    between atoms: C_7  and  C_8
REMARK    5  A    between atoms: C_11  and  C_13
REMARK    6  A    between atoms: N_15  and  C_16
REMARK    7  A    between atoms: C_17  and  C_25
REMARK    8  A    between atoms: C_25  and  O_27
REMARK    9  A    between atoms: O_27  and  C_28
REMARK   10  A    between atoms: C_28  and  C_29
REMARK   11  A    between atoms: C_28  and  C_30
REMARK                            x       y       z     vdW  Elec       q    Type
REMARK                         _______ _______ _______ _____ _____    ______ ____
ROOT
ATOM      1  C   UNL     1       1.633   4.435   0.012  0.00  0.00    +0.284 C 
ATOM      2  O   UNL     1       0.417   4.400   0.024  0.00  0.00    -0.266 OA
ATOM      3  N   UNL     1       2.341   3.288  -0.002  0.00  0.00    -0.273 N 
ATOM      4  H   UNL     1       3.311   3.316  -0.012  0.00  0.00    +0.156 HD
ENDROOT
BRANCH   3   5
ATOM      5  C   UNL     1       1.684   2.070  -0.003  0.00  0.00    +0.087 A 
ATOM      6  C   UNL     1       2.232   0.793  -0.015  0.00  0.00    +0.091 A 
ATOM      7  C   UNL     1       1.312  -0.332  -0.012  0.00  0.00    -0.021 A 
ATOM      8  C   UNL     1       0.002  -0.004   0.002  0.00  0.00    -0.004 A 
ATOM      9  S   UNL     1      -0.022   1.766   0.012  0.00  0.00    -0.077 S 
ATOM     10  C   UNL     1      -1.164  -0.944   0.007  0.00  0.00    +0.043 C 
ATOM     11  C   UNL     1      -0.662  -2.341  -0.384  0.00  0.00    +0.005 C 
ATOM     12  C   UNL     1       0.589  -2.663   0.439  0.00  0.00    +0.005 C 
ATOM     13  C   UNL     1       1.756  -1.790  -0.024  0.00  0.00    +0.037 C 
BRANCH   6  14
ATOM     14  C   UNL     1       3.682   0.589  -0.030  0.00  0.00    +0.342 C 
ATOM     15  O   UNL     1       4.273   0.510  -1.090  0.00  0.00    -0.245 OA
BRANCH  14  16
ATOM     16  O   UNL     1       4.361   0.489   1.130  0.00  0.00    -0.458 OA
BRANCH  16  17
ATOM     17  C   UNL     1       5.796   0.287   1.039  0.00  0.00    +0.171 C 
ATOM     18  C   UNL     1       6.478   0.914   2.256  0.00  0.00    +0.052 C 
ATOM     19  C   UNL     1       6.099  -1.212   1.001  0.00  0.00    +0.052 C 
ENDBRANCH  16  17
ENDBRANCH  14  16
ENDBRANCH   6  14
ENDBRANCH   3   5
BRANCH   1  23
ATOM     20  C   UNL     1       3.939   7.217   0.006  0.00  0.00    +0.127 A 
ATOM     21  C   UNL     1       2.774   7.903   0.021  0.00  0.00    +0.047 A 
ATOM     22  C   UNL     1       1.738   6.957   0.025  0.00  0.00    +0.055 A 
ATOM     23  C   UNL     1       2.329   5.726   0.012  0.00  0.00    +0.190 A 
ATOM     24  O   UNL     1       3.666   5.905   0.006  0.00  0.00    -0.453 OA
BRANCH  20  25
ATOM     25  C   UNL     1       5.316   7.827  -0.004  0.00  0.00    +0.218 C 
BRANCH  25  30
ATOM     26  C   UNL     1       7.467   6.958   4.448  0.00  0.00    +0.068 C 
ATOM     27  C   UNL     1       6.723   7.616   3.314  0.00  0.00    +0.074 A 
ATOM     28  C   UNL     1       6.160   8.896   3.336  0.00  0.00    +0.061 A 
ATOM     29  C   UNL     1       5.588   9.120   2.129  0.00  0.00    +0.051 A 
ATOM     30  N   UNL     1       5.776   8.017   1.374  0.00  0.00    -0.260 N 
ATOM     31  N   UNL     1       6.494   7.088   2.139  0.00  0.00    -0.175 NA
ATOM     32  C   UNL     1       4.869  10.375   1.706  0.00  0.00    +0.066 C 
ATOM     33 BR   UNL     1       6.196  10.103   4.791  0.00  0.00    -0.047 Br
ENDBRANCH  25  30
ENDBRANCH  20  25
ENDBRANCH   1  23
TORSDOF 7
