REMARK  Name = ZINC32577811
REMARK  5 active torsions:
REMARK  status: ('A' for Active; 'I' for Inactive)
REMARK    1  A    between atoms: C_4  and  N_7
REMARK    2  A    between atoms: N_7  and  C_8
REMARK    3  A    between atoms: C_8  and  N_10
REMARK    4  A    between atoms: N_10  and  N_11
REMARK    5  A    between atoms: C_12  and  C_13
REMARK                            x       y       z     vdW  Elec       q    Type
REMARK                         _______ _______ _______ _____ _____    ______ ____
ROOT
ATOM      1  N   UNL     1       4.822  -2.640   0.126  0.00  0.00    -0.218 N 
ATOM      2  H   UNL     1       4.836  -3.609   0.164  0.00  0.00    +0.176 HD
ENDROOT
BRANCH   1   3
ATOM      3  C   UNL     1       3.646  -1.986   0.047  0.00  0.00    +0.154 C 
ATOM      4  S   UNL     1       2.178  -2.865   0.013  0.00  0.00    -0.017 S 
BRANCH   3   5
ATOM      5  N   UNL     1       3.627  -0.639  -0.005  0.00  0.00    -0.296 N 
ATOM      6  H   UNL     1       4.458  -0.144  -0.069  0.00  0.00    +0.154 HD
BRANCH   5  10
ATOM      7  C   UNL     1      -0.005   1.398   0.109  0.00  0.00    +0.000 A 
ATOM      8  C   UNL     1       0.198   0.303   0.930  0.00  0.00    +0.002 A 
ATOM      9  C   UNL     1       1.401  -0.374   0.894  0.00  0.00    +0.023 A 
ATOM     10  C   UNL     1       2.407   0.045   0.033  0.00  0.00    +0.033 A 
ATOM     11  C   UNL     1       2.199   1.144  -0.790  0.00  0.00    +0.023 A 
ATOM     12  C   UNL     1       0.994   1.817  -0.749  0.00  0.00    +0.002 A 
ENDBRANCH   5  10
ENDBRANCH   3   5
ENDBRANCH   1   3
BRANCH   1  13
ATOM     13  N   UNL     1       6.024  -1.920   0.154  0.00  0.00    -0.188 NA
ATOM     14  C   UNL     1       7.160  -2.551   0.121  0.00  0.00    +0.148 C 
BRANCH  14  15
ATOM     15  C   UNL     1       7.190  -4.014   0.224  0.00  0.00    +0.072 A 
ATOM     16  C   UNL     1       8.260  -4.846   0.319  0.00  0.00    +0.125 A 
ATOM     17  N   UNL     1       7.994  -6.174   0.403  0.00  0.00    -0.307 N 
ATOM     18  H   UNL     1       8.719  -6.814   0.473  0.00  0.00    +0.170 HD
ATOM     19  C   UNL     1       6.713  -6.595   0.387  0.00  0.00    +0.290 A 
ATOM     20  O   UNL     1       6.295  -7.737   0.453  0.00  0.00    -0.260 OA
ATOM     21  S   UNL     1       5.832  -5.169   0.264  0.00  0.00    -0.024 S 
ATOM     22 CL   UNL     1       9.887  -4.240   0.333  0.00  0.00    -0.063 Cl
ENDBRANCH  14  15
ENDBRANCH   1  13
TORSDOF 5
