REMARK  Name = ZINC00184508
REMARK  2 active torsions:
REMARK  status: ('A' for Active; 'I' for Inactive)
REMARK    1  A    between atoms: N_10  and  C_13
REMARK    2  A    between atoms: N_11  and  O_12
REMARK                            x       y       z     vdW  Elec       q    Type
REMARK                         _______ _______ _______ _____ _____    ______ ____
ROOT
ATOM      1  C   UNL     1       1.194   1.816  -0.292  0.00  0.00    +0.002 A 
ATOM      2  C   UNL     1       0.023   1.148  -0.602  0.00  0.00    +0.002 A 
ATOM      3  C   UNL     1      -1.184   1.824  -0.604  0.00  0.00    +0.031 A 
ATOM      4  C   UNL     1      -1.219   3.170  -0.284  0.00  0.00    +0.108 A 
ATOM      5  C   UNL     1      -0.038   3.845   0.028  0.00  0.00    +0.062 A 
ATOM      6  C   UNL     1       1.167   3.162   0.023  0.00  0.00    +0.025 A 
ATOM      7  N   UNL     1      -0.088   5.209   0.344  0.00  0.00    -0.266 N 
ATOM      8  C   UNL     1      -1.262   5.865   0.347  0.00  0.00    +0.331 C 
ATOM      9  O   UNL     1      -1.281   7.049   0.624  0.00  0.00    -0.250 OA
ATOM     10  N   UNL     1      -2.416   5.241   0.050  0.00  0.00    -0.140 N 
ATOM     11  N   UNL     1      -2.428   3.876  -0.274  0.00  0.00    -0.157 N 
ATOM     12  H   UNL     1       0.730   5.683   0.562  0.00  0.00    +0.157 HD
ENDROOT
BRANCH  10  13
ATOM     13  C   UNL     1      -3.617   5.960   0.065  0.00  0.00    +0.063 A 
ATOM     14  C   UNL     1      -4.485   5.886  -1.016  0.00  0.00    +0.025 A 
ATOM     15  C   UNL     1      -5.670   6.596  -0.999  0.00  0.00    +0.003 A 
ATOM     16  C   UNL     1      -5.992   7.380   0.094  0.00  0.00    +0.015 A 
ATOM     17  C   UNL     1      -5.129   7.455   1.173  0.00  0.00    +0.020 A 
ATOM     18  C   UNL     1      -3.945   6.744   1.163  0.00  0.00    +0.040 A 
ATOM     19 BR   UNL     1      -5.575   8.528   2.665  0.00  0.00    -0.050 Br
ENDBRANCH  10  13
BRANCH  11  20
ATOM     20  O   UNL     1      -3.644   3.223  -0.586  0.00  0.00    -0.268 OA
ATOM     21  H   UNL     1      -3.544   2.284  -0.795  0.00  0.00    +0.246 HD
ENDBRANCH  11  20
TORSDOF 2
