REMARK  Name = ZINC41584597
REMARK  7 active torsions:
REMARK  status: ('A' for Active; 'I' for Inactive)
REMARK    1  A    between atoms: C_1  and  C_2
REMARK    2  A    between atoms: C_4  and  O_37
REMARK    3  A    between atoms: C_5  and  C_23
REMARK    4  A    between atoms: C_11  and  C_12
REMARK    5  A    between atoms: N_14  and  C_21
REMARK    6  A    between atoms: C_23  and  N_24
REMARK    7  A    between atoms: C_29  and  C_31
REMARK                            x       y       z     vdW  Elec       q    Type
REMARK                         _______ _______ _______ _____ _____    ______ ____
ROOT
ATOM      1  C   UNL     1       2.025  -0.021  -0.730  0.00  0.00    +0.045 C 
ATOM      2  C   UNL     1       1.554  -1.436  -0.515  0.00  0.00    -0.033 A 
ATOM      3  C   UNL     1       1.132  -2.186  -1.576  0.00  0.00    +0.050 A 
ATOM      4  C   UNL     1       0.696  -3.493  -1.381  0.00  0.00    +0.122 A 
ATOM      5  C   UNL     1       0.682  -4.049  -0.112  0.00  0.00    +0.020 A 
ATOM      6  C   UNL     1       1.107  -3.300   0.976  0.00  0.00    +0.145 A 
ATOM      7  C   UNL     1       1.551  -1.984   0.767  0.00  0.00    +0.071 A 
ATOM      8  C   UNL     1       1.935  -1.468   2.093  0.00  0.00    +0.232 C 
ATOM      9  O   UNL     1       2.369  -0.359   2.359  0.00  0.00    -0.283 OA
ATOM     10  C   UNL     1       1.689  -2.538   2.994  0.00  0.00    +0.176 C 
ATOM     11  C   UNL     1       1.902  -2.509   4.340  0.00  0.00    +0.060 C 
ATOM     12  O   UNL     1       1.196  -3.586   2.293  0.00  0.00    -0.451 OA
ENDROOT
BRANCH  11  13
ATOM     13  C   UNL     1       1.706  -3.719   5.136  0.00  0.00    +0.004 A 
ATOM     14  C   UNL     1       1.497  -4.996   4.662  0.00  0.00    +0.094 A 
ATOM     15  N   UNL     1       1.361  -5.850   5.706  0.00  0.00    -0.349 N 
ATOM     16  C   UNL     1       1.475  -5.173   6.904  0.00  0.00    +0.049 A 
ATOM     17  C   UNL     1       1.700  -3.819   6.608  0.00  0.00    +0.007 A 
ATOM     18  C   UNL     1       1.861  -2.897   7.638  0.00  0.00    +0.010 A 
ATOM     19  C   UNL     1       1.800  -3.319   8.949  0.00  0.00    +0.001 A 
ATOM     20  C   UNL     1       1.581  -4.657   9.243  0.00  0.00    +0.002 A 
ATOM     21  C   UNL     1       1.413  -5.579   8.232  0.00  0.00    +0.026 A 
ATOM     22  C   UNL     1       1.125  -7.291   5.582  0.00  0.00    +0.149 C 
ENDBRANCH  11  13
BRANCH   4  23
ATOM     23  O   UNL     1       0.279  -4.229  -2.443  0.00  0.00    -0.506 OA
ATOM     24  H   UNL     1       0.983  -4.736  -2.871  0.00  0.00    +0.292 HD
ENDBRANCH   4  23
BRANCH   5  25
ATOM     25  C   UNL     1       0.205  -5.465   0.086  0.00  0.00    -0.035 C 
BRANCH  25  26
ATOM     26  N   UNL     1      -1.260  -5.480   0.183  0.00  0.00    +0.387 N 
ATOM     27  C   UNL     1      -1.677  -4.735   1.377  0.00  0.00    -0.078 C 
ATOM     28  C   UNL     1      -3.205  -4.678   1.440  0.00  0.00    -0.019 C 
ATOM     29  C   UNL     1      -3.761  -6.104   1.505  0.00  0.00    -0.003 C 
ATOM     30  C   UNL     1      -3.259  -6.893   0.292  0.00  0.00    -0.011 C 
ATOM     31  C   UNL     1      -1.729  -6.868   0.273  0.00  0.00    -0.036 C 
ATOM     32  H   UNL     1      -1.655  -5.045  -0.637  0.00  0.00    -0.080 HD
BRANCH  31  33
ATOM     33  C   UNL     1      -1.230  -7.644  -0.919  0.00  0.00    -0.043 A 
ATOM     34  C   UNL     1      -0.637  -8.886  -0.750  0.00  0.00    +0.005 A 
ATOM     35  C   UNL     1      -0.193  -9.564  -1.875  0.00  0.00    +0.020 A 
ATOM     36  C   UNL     1      -0.355  -8.983  -3.119  0.00  0.00    +0.111 A 
ATOM     37  N   UNL     1      -0.923  -7.800  -3.242  0.00  0.00    -0.263 NA
ATOM     38  C   UNL     1      -1.363  -7.129  -2.195  0.00  0.00    +0.112 A 
ENDBRANCH  31  33
ENDBRANCH  25  26
ENDBRANCH   5  25
TORSDOF 5
