REMARK  Name = ZINC44872307
REMARK  12 active torsions:
REMARK  status: ('A' for Active; 'I' for Inactive)
REMARK    1  A    between atoms: C_1  and  N_2
REMARK    2  A    between atoms: N_2  and  C_3
REMARK    3  A    between atoms: N_2  and  S_4
REMARK    4  A    between atoms: S_4  and  N_7
REMARK    5  A    between atoms: N_7  and  C_8
REMARK    6  A    between atoms: N_7  and  C_31
REMARK    7  A    between atoms: C_8  and  C_9
REMARK    8  A    between atoms: C_12  and  C_15
REMARK    9  A    between atoms: N_17  and  C_18
REMARK   10  A    between atoms: C_18  and  C_19
REMARK   11  A    between atoms: C_22  and  C_25
REMARK   12  A    between atoms: C_25  and  N_26
REMARK                            x       y       z     vdW  Elec       q    Type
REMARK                         _______ _______ _______ _____ _____    ______ ____
ROOT
ATOM      1  C   UNL     1       2.044  -3.492  -2.411  0.00  0.00    -0.028 A 
ATOM      2  C   UNL     1       0.921  -4.297  -2.481  0.00  0.00    +0.006 A 
ATOM      3  C   UNL     1       0.813  -5.250  -3.472  0.00  0.00    +0.013 A 
ATOM      4  C   UNL     1       1.839  -5.401  -4.406  0.00  0.00    +0.037 A 
ATOM      5  C   UNL     1       2.969  -4.585  -4.330  0.00  0.00    +0.013 A 
ATOM      6  C   UNL     1       3.063  -3.632  -3.337  0.00  0.00    +0.006 A 
ENDROOT
BRANCH   4   7
ATOM      7  C   UNL     1       1.730  -6.420  -5.471  0.00  0.00    +0.244 C 
ATOM      8  O   UNL     1       0.744  -7.129  -5.535  0.00  0.00    -0.270 OA
ATOM      9  N   UNL     1       2.722  -6.564  -6.371  0.00  0.00    -0.307 N 
ATOM     10  H   UNL     1       3.509  -5.998  -6.320  0.00  0.00    +0.149 HD
BRANCH   9  11
ATOM     11  C   UNL     1       2.614  -7.574  -7.427  0.00  0.00    +0.139 C 
BRANCH  11  12
ATOM     12  C   UNL     1       3.846  -7.529  -8.293  0.00  0.00    -0.030 A 
ATOM     13  C   UNL     1       3.882  -6.703  -9.401  0.00  0.00    +0.005 A 
ATOM     14  C   UNL     1       5.013  -6.662 -10.196  0.00  0.00    +0.002 A 
ATOM     15  C   UNL     1       6.106  -7.447  -9.883  0.00  0.00    -0.064 A 
ATOM     16  C   UNL     1       6.070  -8.273  -8.775  0.00  0.00    +0.002 A 
ATOM     17  C   UNL     1       4.942  -8.311  -7.978  0.00  0.00    +0.005 A 
BRANCH  15  18
ATOM     18  C   UNL     1       7.338  -7.403 -10.750  0.00  0.00    -0.043 C 
BRANCH  18  19
ATOM     19  N   UNL     1       8.251  -6.365 -10.253  0.00  0.00    +0.382 N 
ATOM     20  C   UNL     1       8.813  -6.765  -8.938  0.00  0.00    -0.078 C 
ATOM     21  C   UNL     1      10.106  -5.918  -8.833  0.00  0.00    -0.020 C 
ATOM     22  C   UNL     1      10.636  -5.914 -10.285  0.00  0.00    -0.020 C 
ATOM     23  C   UNL     1       9.409  -6.226 -11.162  0.00  0.00    -0.078 C 
ATOM     24  H   UNL     1       7.765  -5.484 -10.171  0.00  0.00    -0.081 HD
ENDBRANCH  18  19
ENDBRANCH  15  18
ENDBRANCH  11  12
ENDBRANCH   9  11
ENDBRANCH   4   7
BRANCH   1  25
ATOM     25  C   UNL     1       2.156  -2.453  -1.325  0.00  0.00    +0.167 C 
BRANCH  25  26
ATOM     26  N   UNL     1       1.574  -1.192  -1.793  0.00  0.00    -0.186 N 
BRANCH  26  27
ATOM     27  C   UNL     1       2.349  -0.300  -2.541  0.00  0.00    +0.088 A 
ATOM     28  C   UNL     1       2.457  -0.456  -3.916  0.00  0.00    +0.028 A 
ATOM     29  C   UNL     1       3.223   0.427  -4.653  0.00  0.00    +0.002 A 
ATOM     30  C   UNL     1       3.882   1.466  -4.022  0.00  0.00    +0.003 A 
ATOM     31  C   UNL     1       3.777   1.626  -2.653  0.00  0.00    +0.040 A 
ATOM     32  C   UNL     1       3.008   0.749  -1.910  0.00  0.00    +0.146 A 
ATOM     33  F   UNL     1       2.901   0.909  -0.573  0.00  0.00    -0.203 F 
ENDBRANCH  26  27
BRANCH  26  34
ATOM     34  S   UNL     1      -0.000  -0.824  -1.437  0.00  0.00    +0.114 S 
ATOM     35  O   UNL     1      -0.662  -2.059  -1.199  0.00  0.00    -0.138 OA
ATOM     36  O   UNL     1      -0.437   0.096  -2.428  0.00  0.00    -0.138 OA
BRANCH  34  38
ATOM     37  C   UNL     1      -0.018   1.461   0.010  0.00  0.00    +0.132 C 
ATOM     38  N   UNL     1       0.002  -0.004   0.002  0.00  0.00    -0.170 NA
ATOM     39  C   UNL     1       0.024  -0.743   1.267  0.00  0.00    +0.132 C 
ENDBRANCH  34  38
ENDBRANCH  26  34
ENDBRANCH  25  26
ENDBRANCH   1  25
TORSDOF 10
