REMARK  Name = ZINC09503117
REMARK  13 active torsions:
REMARK  status: ('A' for Active; 'I' for Inactive)
REMARK    1  A    between atoms: C_1  and  C_2
REMARK    2  A    between atoms: C_2  and  O_3
REMARK    3  A    between atoms: O_3  and  C_4
REMARK    4  A    between atoms: C_9  and  C_10
REMARK    5  A    between atoms: C_11  and  C_12
REMARK    6  A    between atoms: C_13  and  S_18
REMARK    7  A    between atoms: C_14  and  C_17
REMARK    8  A    between atoms: S_18  and  N_21
REMARK    9  A    between atoms: C_24  and  C_27
REMARK   10  A    between atoms: N_29  and  C_30
REMARK   11  A    between atoms: C_30  and  C_31
REMARK   12  A    between atoms: C_30  and  C_32
REMARK   13  A    between atoms: C_30  and  C_33
REMARK                            x       y       z     vdW  Elec       q    Type
REMARK                         _______ _______ _______ _____ _____    ______ ____
ROOT
ATOM      1  C   UNL     1      -6.384  -1.201   0.057  0.00  0.00    +0.187 A 
ATOM      2  C   UNL     1      -7.698  -1.611   0.072  0.00  0.00    +0.174 A 
ATOM      3  C   UNL     1      -8.503  -0.465   0.084  0.00  0.00    +0.107 A 
ATOM      4  N   UNL     1      -7.727   0.584   0.076  0.00  0.00    -0.081 NA
ATOM      5  O   UNL     1      -6.381   0.147   0.064  0.00  0.00    -0.353 OA
ATOM      6  C   UNL     1     -10.010  -0.447   0.103  0.00  0.00    +0.071 C 
ENDROOT
BRANCH   2   7
ATOM      7  S   UNL     1      -8.266  -3.279   0.076  0.00  0.00    +0.066 S 
ATOM      8  O   UNL     1      -9.583  -3.261  -0.458  0.00  0.00    -0.153 OA
ATOM      9  O   UNL     1      -7.225  -4.064  -0.489  0.00  0.00    -0.153 OA
BRANCH   7  10
ATOM     10  N   UNL     1      -8.404  -3.745   1.659  0.00  0.00    -0.176 NA
ATOM     11  C   UNL     1      -7.267  -4.358   2.361  0.00  0.00    +0.110 C 
ATOM     12  C   UNL     1      -7.722  -5.690   2.966  0.00  0.00    +0.030 C 
ATOM     13  C   UNL     1      -8.950  -5.452   3.848  0.00  0.00    +0.077 C 
ATOM     14  C   UNL     1     -10.092  -4.895   2.995  0.00  0.00    +0.030 C 
ATOM     15  C   UNL     1      -9.663  -3.549   2.391  0.00  0.00    +0.110 C 
BRANCH  13  16
ATOM     16  C   UNL     1      -9.380  -6.755   4.473  0.00  0.00    +0.217 C 
ATOM     17  O   UNL     1      -8.764  -7.772   4.236  0.00  0.00    -0.275 OA
ATOM     18  N   UNL     1     -10.448  -6.788   5.294  0.00  0.00    -0.310 N 
ATOM     19  H   UNL     1     -10.940  -5.974   5.483  0.00  0.00    +0.149 HD
BRANCH  18  20
ATOM     20  C   UNL     1     -10.865  -8.054   5.901  0.00  0.00    +0.026 C 
ATOM     21  C   UNL     1      -9.725  -8.611   6.755  0.00  0.00    +0.031 C 
ATOM     22  C   UNL     1     -12.093  -7.817   6.782  0.00  0.00    +0.031 C 
ATOM     23  C   UNL     1     -11.214  -9.057   4.800  0.00  0.00    +0.031 C 
ENDBRANCH  18  20
ENDBRANCH  13  16
ENDBRANCH   7  10
ENDBRANCH   2   7
BRANCH   1  25
ATOM     24  C   UNL     1      -3.970  -1.531   0.032  0.00  0.00    +0.015 C 
ATOM     25  C   UNL     1      -5.205  -2.071   0.041  0.00  0.00    +0.052 C 
BRANCH  24  31
ATOM     26  C   UNL     1      -1.498  -1.847   0.006  0.00  0.00    +0.128 A 
ATOM     27  C   UNL     1      -0.390  -2.679  -0.003  0.00  0.00    +0.046 A 
ATOM     28  C   UNL     1      -0.554  -4.051  -0.009  0.00  0.00    +0.004 A 
ATOM     29  C   UNL     1      -1.823  -4.606  -0.005  0.00  0.00    +0.001 A 
ATOM     30  C   UNL     1      -2.937  -3.794   0.003  0.00  0.00    +0.011 A 
ATOM     31  C   UNL     1      -2.786  -2.404   0.016  0.00  0.00    +0.017 A 
BRANCH  26  32
ATOM     32  O   UNL     1      -1.339  -0.499   0.012  0.00  0.00    -0.492 OA
BRANCH  32  34
ATOM     33  C   UNL     1      -0.019   1.526   0.010  0.00  0.00    +0.048 C 
ATOM     34  C   UNL     1       0.002  -0.004   0.002  0.00  0.00    +0.226 C 
ENDBRANCH  32  34
ENDBRANCH  26  32
ENDBRANCH  24  31
ENDBRANCH   1  25
TORSDOF 8
