REMARK  Name = ZINC36899810
REMARK  3 active torsions:
REMARK  status: ('A' for Active; 'I' for Inactive)
REMARK    1  A    between atoms: C_1  and  C_2
REMARK    2  A    between atoms: C_2  and  C_4
REMARK    3  A    between atoms: C_2  and  N_10
REMARK                            x       y       z     vdW  Elec       q    Type
REMARK                         _______ _______ _______ _____ _____    ______ ____
ROOT
ATOM      1  N   UNL     1       0.610  -0.558  -1.209  0.00  0.00    -0.308 N 
ATOM      2  C   UNL     1       1.943  -0.463  -1.577  0.00  0.00    +0.068 A 
ATOM      3  C   UNL     1       3.062   0.113  -0.994  0.00  0.00    +0.031 A 
ATOM      4  C   UNL     1       4.284   0.036  -1.629  0.00  0.00    +0.040 A 
ATOM      5  C   UNL     1       4.402  -0.615  -2.851  0.00  0.00    +0.125 A 
ATOM      6  C   UNL     1       3.300  -1.192  -3.444  0.00  0.00    +0.066 A 
ATOM      7  C   UNL     1       2.055  -1.122  -2.812  0.00  0.00    +0.068 A 
ATOM      8  N   UNL     1       0.817  -1.580  -3.135  0.00  0.00    -0.328 N 
ATOM      9  C   UNL     1      -0.032  -1.255  -2.193  0.00  0.00    +0.172 A 
ATOM     10  N   UNL     1      -1.375  -1.567  -2.195  0.00  0.00    -0.330 N 
ATOM     11  F   UNL     1       5.605  -0.683  -3.461  0.00  0.00    -0.205 F 
ATOM     12  H   UNL     1      -1.955  -1.221  -1.498  0.00  0.00    +0.145 HD
ATOM     13  H   UNL     1      -1.741  -2.132  -2.893  0.00  0.00    +0.145 HD
ATOM     14  H   UNL     1       0.597  -2.075  -3.940  0.00  0.00    +0.169 HD
ENDROOT
BRANCH   1  16
ATOM     15  C   UNL     1       0.343   1.469   0.133  0.00  0.00    +0.033 C 
ATOM     16  C   UNL     1       0.004  -0.018   0.010  0.00  0.00    +0.116 C 
BRANCH  16  17
ATOM     17  C   UNL     1       0.551  -0.768   1.227  0.00  0.00    +0.141 C 
ATOM     18  C   UNL     1      -0.161  -0.279   2.507  0.00  0.00    +0.036 C 
ATOM     19  C   UNL     1       1.001  -0.248   3.538  0.00  0.00    +0.031 C 
ATOM     20  C   UNL     1       2.188   0.164   2.631  0.00  0.00    +0.160 C 
ATOM     21  O   UNL     1       1.950  -0.497   1.376  0.00  0.00    -0.375 OA
ENDBRANCH  16  17
ENDBRANCH   1  16
TORSDOF 2
