REMARK  Name = ZINC15675673
REMARK  9 active torsions:
REMARK  status: ('A' for Active; 'I' for Inactive)
REMARK    1  A    between atoms: C_1  and  C_2
REMARK    2  A    between atoms: C_7  and  C_38
REMARK    3  A    between atoms: N_9  and  C_10
REMARK    4  A    between atoms: C_10  and  C_11
REMARK    5  A    between atoms: C_11  and  C_12
REMARK    6  A    between atoms: C_12  and  N_13
REMARK    7  A    between atoms: C_22  and  C_23
REMARK    8  A    between atoms: C_22  and  C_24
REMARK    9  A    between atoms: N_26  and  C_27
REMARK                            x       y       z     vdW  Elec       q    Type
REMARK                         _______ _______ _______ _____ _____    ______ ____
ROOT
ATOM      1  N   UNL     1       4.980  -0.827   3.545  0.00  0.00    -0.281 N 
ATOM      2  C   UNL     1       4.922  -0.167   4.725  0.00  0.00    +0.264 C 
ATOM      3  O   UNL     1       4.162   0.768   4.901  0.00  0.00    -0.268 OA
ATOM      4  C   UNL     1       5.824  -0.639   5.783  0.00  0.00    +0.109 A 
ATOM      5  C   UNL     1       5.885  -0.317   7.106  0.00  0.00    +0.079 A 
ATOM      6  C   UNL     1       6.923  -1.070   7.676  0.00  0.00    +0.153 A 
ATOM      7  C   UNL     1       7.486  -1.847   6.662  0.00  0.00    +0.088 A 
ATOM      8  N   UNL     1       6.819  -1.574   5.506  0.00  0.00    -0.331 N 
ATOM      9  C   UNL     1       7.029  -2.094   4.152  0.00  0.00    +0.157 C 
ATOM     10  C   UNL     1       5.694  -2.090   3.401  0.00  0.00    +0.128 C 
ATOM     11  C   UNL     1       5.962  -2.340   1.915  0.00  0.00    +0.043 C 
ATOM     12  C   UNL     1       8.521  -2.596   7.271  0.00  0.00    +0.067 A 
ATOM     13  C   UNL     1       8.547  -2.257   8.572  0.00  0.00    +0.198 A 
ATOM     14  O   UNL     1       7.594  -1.342   8.815  0.00  0.00    -0.461 OA
ENDROOT
BRANCH  10  15
ATOM     15  C   UNL     1       4.827  -3.203   3.931  0.00  0.00    +0.238 C 
ATOM     16  O   UNL     1       4.852  -4.295   3.404  0.00  0.00    -0.273 OA
ATOM     17  N   UNL     1       4.024  -2.985   4.991  0.00  0.00    -0.311 N 
ATOM     18  H   UNL     1       4.004  -2.111   5.412  0.00  0.00    +0.149 HD
BRANCH  17  19
ATOM     19  C   UNL     1       3.181  -4.066   5.506  0.00  0.00    +0.073 C 
ATOM     20  C   UNL     1       1.874  -4.117   4.712  0.00  0.00    +0.022 C 
ATOM     21  C   UNL     1       1.177  -5.456   4.962  0.00  0.00    +0.002 C 
ATOM     22  C   UNL     1       2.205  -6.587   4.898  0.00  0.00    +0.000 C 
ATOM     23  C   UNL     1       2.365  -7.210   6.286  0.00  0.00    +0.000 C 
ATOM     24  C   UNL     1       3.202  -6.282   7.168  0.00  0.00    +0.000 C 
ATOM     25  C   UNL     1       2.345  -5.099   7.622  0.00  0.00    +0.002 C 
ATOM     26  C   UNL     1       2.871  -3.812   6.983  0.00  0.00    +0.022 C 
ENDBRANCH  17  19
ENDBRANCH  10  15
BRANCH   1  27
ATOM     27  C   UNL     1       4.300  -0.258   2.378  0.00  0.00    +0.107 C 
BRANCH  27  28
ATOM     28  C   UNL     1       2.863  -0.778   2.322  0.00  0.00    +0.000 C 
BRANCH  28  29
ATOM     29  C   UNL     1       2.153  -0.184   1.104  0.00  0.00    -0.077 C 
BRANCH  29  36
ATOM     30  C   UNL     1       1.401  -2.638  -0.035  0.00  0.00    -0.013 C 
ATOM     31  C   UNL     1       0.646  -2.047   1.157  0.00  0.00    -0.071 C 
ATOM     32  C   UNL     1      -0.823  -2.470   1.090  0.00  0.00    -0.016 C 
ATOM     33  C   UNL     1      -1.575  -1.877   2.286  0.00  0.00    -0.003 C 
ATOM     34  C   UNL     1      -1.408  -0.355   2.277  0.00  0.00    -0.016 C 
ATOM     35  C   UNL     1       0.083  -0.010   2.300  0.00  0.00    -0.071 C 
ATOM     36  N   UNL     1       0.739  -0.583   1.118  0.00  0.00    +0.383 N 
ATOM     37  C   UNL     1       0.255   1.510   2.290  0.00  0.00    -0.013 C 
ATOM     38  H   UNL     1       0.286  -0.241   0.284  0.00  0.00    -0.081 HD
ENDBRANCH  29  36
ENDBRANCH  28  29
ENDBRANCH  27  28
ENDBRANCH   1  27
TORSDOF 6
