REMARK  Name = ZINC08857146
REMARK  9 active torsions:
REMARK  status: ('A' for Active; 'I' for Inactive)
REMARK    1  A    between atoms: C_1  and  C_2
REMARK    2  A    between atoms: C_2  and  C_3
REMARK    3  A    between atoms: C_2  and  C_4
REMARK    4  A    between atoms: C_2  and  N_5
REMARK    5  A    between atoms: C_6  and  C_8
REMARK    6  A    between atoms: N_18  and  C_19
REMARK    7  A    between atoms: C_20  and  N_32
REMARK    8  A    between atoms: C_22  and  C_28
REMARK    9  A    between atoms: C_24  and  N_25
REMARK                            x       y       z     vdW  Elec       q    Type
REMARK                         _______ _______ _______ _____ _____    ______ ____
ROOT
ATOM      1  C   UNL     1       5.554   1.242  -1.479  0.00  0.00    +0.164 C 
ATOM      2  C   UNL     1       5.678  -0.243  -1.136  0.00  0.00    +0.067 C 
ATOM      3  C   UNL     1       4.399  -0.735  -0.509  0.00  0.00    -0.040 A 
ATOM      4  C   UNL     1       4.174  -2.102  -0.451  0.00  0.00    +0.004 A 
ATOM      5  C   UNL     1       3.018  -2.595   0.119  0.00  0.00    +0.000 A 
ATOM      6  C   UNL     1       2.083  -1.722   0.643  0.00  0.00    +0.000 A 
ATOM      7  C   UNL     1       2.305  -0.361   0.584  0.00  0.00    +0.005 A 
ATOM      8  C   UNL     1       3.463   0.137   0.005  0.00  0.00    -0.027 A 
ATOM      9  C   UNL     1       3.656   1.629  -0.045  0.00  0.00    +0.141 C 
ATOM     10  N   UNL     1       5.064   1.957  -0.290  0.00  0.00    -0.310 N 
ENDROOT
BRANCH  10  11
ATOM     11  C   UNL     1       5.241   3.336  -0.427  0.00  0.00    +0.092 A 
ATOM     12  C   UNL     1       5.052   3.942  -1.663  0.00  0.00    +0.150 A 
ATOM     13  C   UNL     1       5.222   5.307  -1.794  0.00  0.00    +0.047 A 
ATOM     14  C   UNL     1       5.591   6.067  -0.699  0.00  0.00    +0.059 A 
ATOM     15  C   UNL     1       5.785   5.466   0.531  0.00  0.00    +0.047 A 
ATOM     16  C   UNL     1       5.611   4.103   0.670  0.00  0.00    +0.150 A 
BRANCH  14  17
ATOM     17  C   UNL     1       5.781   7.555  -0.847  0.00  0.00    +0.418 C 
ATOM     18  F   UNL     1       7.111   7.823  -1.188  0.00  0.00    -0.166 F 
ATOM     19  F   UNL     1       4.936   8.035  -1.853  0.00  0.00    -0.166 F 
ATOM     20  F   UNL     1       5.473   8.187   0.362  0.00  0.00    -0.166 F 
ENDBRANCH  14  17
BRANCH  16  21
ATOM     21  N   UNL     1       5.819   3.460   1.987  0.00  0.00    +0.058 N 
ATOM     22  O   UNL     1       6.043   4.144   2.970  0.00  0.00    -0.126 OA
ATOM     23  O   UNL     1       5.767   2.247   2.088  0.00  0.00    -0.126 OA
ENDBRANCH  16  21
BRANCH  12  24
ATOM     24  N   UNL     1       4.663   3.128  -2.836  0.00  0.00    +0.058 N 
ATOM     25  O   UNL     1       5.341   3.155  -3.847  0.00  0.00    -0.126 OA
ATOM     26  O   UNL     1       3.665   2.431  -2.790  0.00  0.00    -0.126 OA
ENDBRANCH  12  24
ENDBRANCH  10  11
BRANCH   1  28
ATOM     27  N   UNL     1       7.347   1.623  -3.140  0.00  0.00    -0.309 N 
ATOM     28  C   UNL     1       6.901   1.788  -1.879  0.00  0.00    +0.234 C 
ATOM     29  O   UNL     1       7.583   2.374  -1.066  0.00  0.00    -0.274 OA
ATOM     30  H   UNL     1       6.775   1.212  -3.807  0.00  0.00    +0.149 HD
BRANCH  27  32
ATOM     31  C   UNL     1       9.723   1.332  -2.637  0.00  0.00    +0.031 C 
ATOM     32  C   UNL     1       8.696   2.065  -3.503  0.00  0.00    +0.026 C 
ATOM     33  C   UNL     1       8.956   1.751  -4.978  0.00  0.00    +0.031 C 
ATOM     34  C   UNL     1       8.818   3.572  -3.273  0.00  0.00    +0.031 C 
ENDBRANCH  27  32
ENDBRANCH   1  28
TORSDOF 6
