REMARK  Name = ZINC14188322
REMARK  7 active torsions:
REMARK  status: ('A' for Active; 'I' for Inactive)
REMARK    1  A    between atoms: C_1  and  C_2
REMARK    2  A    between atoms: C_2  and  C_30
REMARK    3  A    between atoms: C_3  and  C_4
REMARK    4  A    between atoms: C_6  and  C_11
REMARK    5  A    between atoms: C_8  and  C_9
REMARK    6  A    between atoms: C_8  and  C_10
REMARK    7  A    between atoms: C_16  and  N_19
REMARK                            x       y       z     vdW  Elec       q    Type
REMARK                         _______ _______ _______ _____ _____    ______ ____
ROOT
ATOM      1  C   UNL     1       2.536  -0.322  -0.280  0.00  0.00    +0.220 C 
ATOM      2  O   UNL     1       2.318  -0.794   0.816  0.00  0.00    -0.275 OA
ATOM      3  N   UNL     1       2.776  -1.134  -1.328  0.00  0.00    -0.301 N 
ATOM      4  C   UNL     1       3.036  -0.578  -2.663  0.00  0.00    +0.110 C 
ATOM      5  C   UNL     1       2.074  -1.215  -3.664  0.00  0.00    +0.044 C 
ATOM      6  C   UNL     1       2.192  -2.738  -3.584  0.00  0.00    +0.095 C 
ATOM      7  C   UNL     1       1.811  -3.208  -2.178  0.00  0.00    +0.044 C 
ATOM      8  C   UNL     1       2.776  -2.594  -1.159  0.00  0.00    +0.110 C 
ENDROOT
BRANCH   6   9
ATOM      9  N   UNL     1       1.292  -3.350  -4.564  0.00  0.00    -0.289 N 
ATOM     10  C   UNL     1       1.674  -4.178  -5.617  0.00  0.00    +0.070 A 
ATOM     11  C   UNL     1       2.900  -4.656  -6.055  0.00  0.00    +0.028 A 
ATOM     12  C   UNL     1       2.961  -5.481  -7.160  0.00  0.00    +0.002 A 
ATOM     13  C   UNL     1       1.804  -5.833  -7.833  0.00  0.00    +0.002 A 
ATOM     14  C   UNL     1       0.577  -5.369  -7.400  0.00  0.00    +0.028 A 
ATOM     15  C   UNL     1       0.506  -4.535  -6.294  0.00  0.00    +0.067 A 
ATOM     16  N   UNL     1      -0.548  -3.907  -5.636  0.00  0.00    -0.306 N 
ATOM     17  H   UNL     1      -1.485  -3.966  -5.881  0.00  0.00    +0.170 HD
ATOM     18  C   UNL     1      -0.046  -3.204  -4.604  0.00  0.00    +0.328 A 
ATOM     19  O   UNL     1      -0.702  -2.537  -3.825  0.00  0.00    -0.247 OA
ENDBRANCH   6   9
BRANCH   1  21
ATOM     20  C   UNL     1       1.203   1.905  -0.337  0.00  0.00    +0.030 C 
ATOM     21  C   UNL     1       2.540   1.173  -0.470  0.00  0.00    +0.089 C 
ATOM     22  C   UNL     1       2.261   2.042   0.759  0.00  0.00    -0.016 C 
ATOM     23  C   UNL     1       3.002   3.376   0.863  0.00  0.00    +0.012 C 
ATOM     24  C   UNL     1       2.001   1.326   2.086  0.00  0.00    +0.012 C 
BRANCH  20  27
ATOM     25  C   UNL     1      -2.430   0.803   0.222  0.00  0.00    +0.038 C 
ATOM     26  C   UNL     1      -1.192   1.647   0.059  0.00  0.00    -0.079 C 
ATOM     27  C   UNL     1      -0.017   1.076  -0.028  0.00  0.00    -0.023 C 
ATOM     28  C   UNL     1      -1.307   3.149  -0.005  0.00  0.00    +0.038 C 
ENDBRANCH  20  27
ENDBRANCH   1  21
TORSDOF 3
