REMARK  Name = ZINC20242361
REMARK  11 active torsions:
REMARK  status: ('A' for Active; 'I' for Inactive)
REMARK    1  A    between atoms: C_1  and  C_2
REMARK    2  A    between atoms: C_2  and  O_3
REMARK    3  A    between atoms: O_3  and  C_4
REMARK    4  A    between atoms: C_4  and  C_5
REMARK    5  A    between atoms: C_4  and  O_34
REMARK    6  A    between atoms: C_5  and  N_6
REMARK    7  A    between atoms: C_7  and  C_9
REMARK    8  A    between atoms: N_15  and  C_26
REMARK    9  A    between atoms: C_26  and  C_27
REMARK   10  A    between atoms: O_34  and  C_35
REMARK   11  A    between atoms: C_35  and  C_36
REMARK                            x       y       z     vdW  Elec       q    Type
REMARK                         _______ _______ _______ _____ _____    ______ ____
ROOT
ATOM      1  C   UNL     1      -1.979  -1.640  -1.745  0.00  0.00    +0.039 A 
ATOM      2  C   UNL     1      -0.842  -2.019  -1.029  0.00  0.00    +0.014 A 
ATOM      3  C   UNL     1      -0.046  -1.053  -0.451  0.00  0.00    +0.020 A 
ATOM      4  C   UNL     1      -0.365   0.288  -0.577  0.00  0.00    +0.065 A 
ATOM      5  C   UNL     1      -1.492   0.681  -1.282  0.00  0.00    +0.054 A 
ATOM      6  C   UNL     1      -2.300  -0.291  -1.869  0.00  0.00    +0.037 A 
ATOM      7  N   UNL     1      -1.849   2.010  -1.427  0.00  0.00    -0.262 N 
ATOM      8  C   UNL     1      -1.128   3.055  -1.732  0.00  0.00    +0.252 C 
ATOM      9  O   UNL     1      -1.735   4.105  -1.814  0.00  0.00    -0.270 OA
ATOM     10  C   UNL     1       0.311   3.137  -1.988  0.00  0.00    +0.053 A 
ATOM     11  C   UNL     1       0.773   3.909  -3.063  0.00  0.00    +0.014 A 
ATOM     12  C   UNL     1       2.123   3.993  -3.326  0.00  0.00    +0.001 A 
ATOM     13  C   UNL     1       3.031   3.317  -2.530  0.00  0.00    +0.001 A 
ATOM     14  C   UNL     1       2.586   2.556  -1.465  0.00  0.00    +0.018 A 
ATOM     15  C   UNL     1       1.237   2.465  -1.192  0.00  0.00    +0.056 A 
ATOM     16  S   UNL     1       0.682   1.494   0.169  0.00  0.00    +0.088 S 
ATOM     17  O   UNL     1      -0.218   2.351   0.858  0.00  0.00    -0.247 OA
ENDROOT
BRANCH   1  19
ATOM     18  N   UNL     1      -2.527  -3.973  -2.247  0.00  0.00    -0.307 N 
ATOM     19  C   UNL     1      -2.840  -2.667  -2.369  0.00  0.00    +0.244 C 
ATOM     20  O   UNL     1      -3.829  -2.335  -2.992  0.00  0.00    -0.270 OA
ATOM     21  H   UNL     1      -1.632  -4.274  -1.683  0.00  0.00    +0.149 HD
BRANCH  18  22
ATOM     22  C   UNL     1      -3.380  -4.991  -2.866  0.00  0.00    +0.165 C 
BRANCH  22  23
ATOM     23  C   UNL     1      -2.805  -6.380  -2.579  0.00  0.00    +0.267 C 
BRANCH  23  24
ATOM     24  O   UNL     1      -1.486  -6.471  -3.120  0.00  0.00    -0.350 OA
BRANCH  24  26
ATOM     25  C   UNL     1       0.355  -7.796  -3.954  0.00  0.00    +0.034 C 
ATOM     26  C   UNL     1      -1.115  -7.789  -3.528  0.00  0.00    +0.159 C 
ENDBRANCH  24  26
ENDBRANCH  23  24
BRANCH  23  27
ATOM     27  O   UNL     1      -2.757  -6.593  -1.167  0.00  0.00    -0.350 OA
BRANCH  27  28
ATOM     28  C   UNL     1      -2.534  -7.953  -0.791  0.00  0.00    +0.159 C 
ATOM     29  C   UNL     1      -2.666  -8.092   0.727  0.00  0.00    +0.034 C 
ENDBRANCH  27  28
ENDBRANCH  23  27
ENDBRANCH  22  23
ENDBRANCH  18  22
ENDBRANCH   1  19
BRANCH   7  30
ATOM     30  C   UNL     1      -3.271   2.289  -1.209  0.00  0.00    +0.152 C 
BRANCH  30  31
ATOM     31  C   UNL     1      -3.503   2.604   0.246  0.00  0.00    +0.005 A 
ATOM     32  C   UNL     1      -3.724   3.909   0.644  0.00  0.00    +0.008 A 
ATOM     33  C   UNL     1      -3.938   4.199   1.978  0.00  0.00    +0.000 A 
ATOM     34  C   UNL     1      -3.932   3.183   2.917  0.00  0.00    +0.003 A 
ATOM     35  C   UNL     1      -3.711   1.878   2.521  0.00  0.00    +0.038 A 
ATOM     36  C   UNL     1      -3.501   1.586   1.184  0.00  0.00    +0.128 A 
ATOM     37  F   UNL     1      -3.291   0.309   0.795  0.00  0.00    -0.205 F 
ENDBRANCH  30  31
ENDBRANCH   7  30
TORSDOF 9
