REMARK  Name = ZINC05628408
REMARK  7 active torsions:
REMARK  status: ('A' for Active; 'I' for Inactive)
REMARK    1  A    between atoms: C_1  and  C_2
REMARK    2  A    between atoms: C_2  and  C_4
REMARK    3  A    between atoms: C_2  and  S_20
REMARK    4  A    between atoms: N_6  and  C_7
REMARK    5  A    between atoms: C_10  and  N_17
REMARK    6  A    between atoms: C_12  and  C_13
REMARK    7  A    between atoms: S_20  and  C_21
REMARK                            x       y       z     vdW  Elec       q    Type
REMARK                         _______ _______ _______ _____ _____    ______ ____
ROOT
ATOM      1  C   UNL     1      -5.151   2.501  -0.090  0.00  0.00    +0.230 C 
ATOM      2  O   UNL     1      -5.615   1.443   0.277  0.00  0.00    -0.274 OA
ATOM      3  N   UNL     1      -5.960   3.454  -0.595  0.00  0.00    -0.284 N 
ATOM      4  H   UNL     1      -5.602   4.328  -0.813  0.00  0.00    +0.155 HD
ENDROOT
BRANCH   3   5
ATOM      5  C   UNL     1      -7.317   3.181  -0.803  0.00  0.00    +0.045 A 
ATOM      6  C   UNL     1      -7.742   1.873  -0.996  0.00  0.00    +0.026 A 
ATOM      7  C   UNL     1      -9.081   1.607  -1.201  0.00  0.00    +0.034 A 
ATOM      8  C   UNL     1      -9.999   2.642  -1.213  0.00  0.00    +0.127 A 
ATOM      9  C   UNL     1      -9.579   3.945  -1.021  0.00  0.00    +0.047 A 
ATOM     10  C   UNL     1      -8.241   4.217  -0.811  0.00  0.00    +0.078 A 
BRANCH  10  11
ATOM     11  C   UNL     1      -7.785   5.637  -0.596  0.00  0.00    +0.419 C 
ATOM     12  F   UNL     1      -8.889   6.494  -0.647  0.00  0.00    -0.166 F 
ATOM     13  F   UNL     1      -7.169   5.744   0.656  0.00  0.00    -0.166 F 
ATOM     14  F   UNL     1      -6.874   5.990  -1.596  0.00  0.00    -0.166 F 
ENDBRANCH  10  11
BRANCH   8  15
ATOM     15  N   UNL     1     -11.434   2.353  -1.432  0.00  0.00    +0.056 N 
ATOM     16  O   UNL     1     -11.806   1.205  -1.601  0.00  0.00    -0.126 OA
ATOM     17  O   UNL     1     -12.244   3.263  -1.444  0.00  0.00    -0.126 OA
ENDBRANCH   8  15
ENDBRANCH   3   5
BRANCH   1  19
ATOM     18  C   UNL     1      -3.370   3.490   1.324  0.00  0.00    +0.029 C 
ATOM     19  C   UNL     1      -3.669   2.751   0.018  0.00  0.00    +0.137 C 
BRANCH  19  20
ATOM     20  S   UNL     1      -2.787   1.171   0.004  0.00  0.00    -0.075 S 
BRANCH  20  21
ATOM     21  C   UNL     1      -1.123   1.748  -0.013  0.00  0.00    +0.168 A 
ATOM     22  N   UNL     1      -0.015   0.950  -0.028  0.00  0.00    -0.333 N 
ATOM     23  H   UNL     1      -0.004  -0.050  -0.027  0.00  0.00    +0.168 HD
ATOM     24  C   UNL     1       1.092   1.783  -0.044  0.00  0.00    +0.067 A 
ATOM     25  C   UNL     1       2.461   1.563  -0.067  0.00  0.00    +0.028 A 
ATOM     26  C   UNL     1       3.329   2.636  -0.079  0.00  0.00    +0.002 A 
ATOM     27  C   UNL     1       2.841   3.934  -0.069  0.00  0.00    +0.002 A 
ATOM     28  C   UNL     1       1.485   4.171  -0.046  0.00  0.00    +0.030 A 
ATOM     29  C   UNL     1       0.593   3.096  -0.033  0.00  0.00    +0.090 A 
ATOM     30  N   UNL     1      -0.763   3.009  -0.011  0.00  0.00    -0.222 NA
ENDBRANCH  20  21
ENDBRANCH  19  20
ENDBRANCH   1  19
TORSDOF 6
