REMARK  Name = ZINC21851774
REMARK  9 active torsions:
REMARK  status: ('A' for Active; 'I' for Inactive)
REMARK    1  A    between atoms: C_1  and  C_2
REMARK    2  A    between atoms: C_2  and  O_3
REMARK    3  A    between atoms: O_3  and  C_4
REMARK    4  A    between atoms: C_9  and  C_10
REMARK    5  A    between atoms: C_10  and  N_11
REMARK    6  A    between atoms: C_16  and  C_32
REMARK    7  A    between atoms: C_20  and  C_21
REMARK    8  A    between atoms: C_20  and  C_22
REMARK    9  A    between atoms: N_24  and  C_25
REMARK                            x       y       z     vdW  Elec       q    Type
REMARK                         _______ _______ _______ _____ _____    ______ ____
ROOT
ATOM      1  N   UNL     1       0.531  -4.887   0.092  0.00  0.00    -0.276 N 
ATOM      2  C   UNL     1       1.293  -3.770   0.180  0.00  0.00    +0.266 C 
ATOM      3  O   UNL     1       2.458  -3.814   0.525  0.00  0.00    -0.268 OA
ATOM      4  C   UNL     1       0.633  -2.500  -0.165  0.00  0.00    +0.124 A 
ATOM      5  C   UNL     1       1.137  -1.249  -0.367  0.00  0.00    +0.065 A 
ATOM      6  C   UNL     1       0.016  -0.452  -0.692  0.00  0.00    +0.128 A 
ATOM      7  N   UNL     1      -1.049  -1.234  -0.674  0.00  0.00    -0.167 NA
ATOM      8  N   UNL     1      -0.729  -2.429  -0.362  0.00  0.00    -0.256 N 
ATOM      9  C   UNL     1      -1.583  -3.612  -0.193  0.00  0.00    +0.179 C 
ATOM     10  C   UNL     1      -0.783  -4.866  -0.540  0.00  0.00    +0.130 C 
ATOM     11  C   UNL     1      -1.571  -6.096  -0.084  0.00  0.00    +0.044 C 
ENDROOT
BRANCH   6  12
ATOM     12  C   UNL     1       0.033   0.994  -1.002  0.00  0.00    +0.155 A 
ATOM     13  C   UNL     1      -1.047   1.753  -1.324  0.00  0.00    +0.051 A 
ATOM     14  C   UNL     1      -0.574   3.064  -1.535  0.00  0.00    +0.042 A 
ATOM     15  C   UNL     1       0.759   3.038  -1.341  0.00  0.00    +0.196 A 
ATOM     16  O   UNL     1       1.123   1.786  -1.020  0.00  0.00    -0.461 OA
ENDBRANCH   6  12
BRANCH  10  17
ATOM     17  C   UNL     1      -0.605  -4.929  -2.035  0.00  0.00    +0.239 C 
ATOM     18  O   UNL     1      -1.408  -5.531  -2.717  0.00  0.00    -0.273 OA
ATOM     19  N   UNL     1       0.446  -4.317  -2.615  0.00  0.00    -0.311 N 
ATOM     20  H   UNL     1       1.174  -3.771  -1.997  0.00  0.00    +0.149 HD
BRANCH  19  21
ATOM     21  C   UNL     1       0.619  -4.378  -4.069  0.00  0.00    +0.073 C 
ATOM     22  C   UNL     1       1.327  -5.699  -4.432  0.00  0.00    +0.022 C 
ATOM     23  C   UNL     1       1.053  -6.005  -5.880  0.00  0.00    +0.002 C 
ATOM     24  C   UNL     1       2.166  -5.487  -6.811  0.00  0.00    +0.000 C 
ATOM     25  C   UNL     1       2.665  -4.083  -6.421  0.00  0.00    +0.000 C 
ATOM     26  C   UNL     1       1.542  -3.159  -6.036  0.00  0.00    +0.002 C 
ATOM     27  C   UNL     1       1.370  -3.210  -4.504  0.00  0.00    +0.022 C 
ENDBRANCH  19  21
ENDBRANCH  10  17
BRANCH   1  28
ATOM     28  C   UNL     1       1.039  -6.145   0.646  0.00  0.00    +0.148 C 
BRANCH  28  34
ATOM     29  C   UNL     1       2.973  -6.657  -0.866  0.00  0.00    +0.125 A 
ATOM     30  C   UNL     1       3.565  -7.406  -1.873  0.00  0.00    +0.046 A 
ATOM     31  C   UNL     1       2.864  -8.437  -2.467  0.00  0.00    +0.004 A 
ATOM     32  C   UNL     1       1.576  -8.727  -2.056  0.00  0.00    +0.001 A 
ATOM     33  C   UNL     1       0.986  -7.985  -1.050  0.00  0.00    +0.009 A 
ATOM     34  C   UNL     1       1.683  -6.953  -0.452  0.00  0.00    +0.012 A 
BRANCH  29  35
ATOM     35  O   UNL     1       3.658  -5.638  -0.283  0.00  0.00    -0.492 OA
BRANCH  35  37
ATOM     36  C   UNL     1       5.587  -4.210   0.002  0.00  0.00    +0.048 C 
ATOM     37  C   UNL     1       4.955  -5.345  -0.807  0.00  0.00    +0.225 C 
ENDBRANCH  35  37
ENDBRANCH  29  35
ENDBRANCH  28  34
ENDBRANCH   1  28
TORSDOF 7
