REMARK  Name = ZINC05787371
REMARK  4 active torsions:
REMARK  status: ('A' for Active; 'I' for Inactive)
REMARK    1  A    between atoms: C_1  and  C_2
REMARK    2  A    between atoms: C_3  and  C_18
REMARK    3  A    between atoms: C_4  and  C_10
REMARK    4  A    between atoms: C_18  and  C_20
REMARK                            x       y       z     vdW  Elec       q    Type
REMARK                         _______ _______ _______ _____ _____    ______ ____
ROOT
ATOM      1  C   UNL     1       0.568   1.314   0.271  0.00  0.00    +0.061 C 
ATOM      2  C   UNL     1       0.349  -0.169   0.116  0.00  0.00    +0.018 C 
ATOM      3  C   UNL     1      -0.905  -0.641  -0.063  0.00  0.00    +0.041 C 
ATOM      4  C   UNL     1      -1.080  -2.139  -0.215  0.00  0.00    +0.140 C 
ATOM      5  N   UNL     1       0.140  -2.961  -0.155  0.00  0.00    -0.288 N 
ATOM      6  C   UNL     1       1.323  -2.343   0.029  0.00  0.00    +0.304 C 
ATOM      7  O   UNL     1       2.336  -3.014   0.079  0.00  0.00    -0.252 OA
ATOM      8  N   UNL     1       1.421  -1.013   0.152  0.00  0.00    -0.273 N 
ATOM      9  H   UNL     1       0.093  -3.926  -0.246  0.00  0.00    +0.151 HD
ATOM     10  H   UNL     1       2.302  -0.629   0.279  0.00  0.00    +0.156 HD
ENDROOT
BRANCH   4  11
ATOM     11  C   UNL     1      -1.748  -2.396  -1.541  0.00  0.00    -0.021 A 
ATOM     12  C   UNL     1      -1.026  -2.276  -2.714  0.00  0.00    +0.007 A 
ATOM     13  C   UNL     1      -1.639  -2.511  -3.930  0.00  0.00    +0.022 A 
ATOM     14  C   UNL     1      -2.974  -2.868  -3.975  0.00  0.00    +0.059 A 
ATOM     15  C   UNL     1      -3.697  -2.989  -2.800  0.00  0.00    +0.060 A 
ATOM     16  C   UNL     1      -3.082  -2.758  -1.583  0.00  0.00    +0.027 A 
ATOM     17 CL   UNL     1      -5.374  -3.435  -2.855  0.00  0.00    -0.082 Cl
ATOM     18 CL   UNL     1      -3.744  -3.163  -5.503  0.00  0.00    -0.082 Cl
ENDBRANCH   4  11
BRANCH   3  19
ATOM     19  C   UNL     1      -2.017   0.233  -0.106  0.00  0.00    +0.193 C 
ATOM     20  O   UNL     1      -2.128   1.034  -1.017  0.00  0.00    -0.287 OA
BRANCH  19  21
ATOM     21  C   UNL     1      -3.046   0.175   0.956  0.00  0.00    +0.022 A 
ATOM     22  C   UNL     1      -2.876  -0.676   2.049  0.00  0.00    +0.013 A 
ATOM     23  C   UNL     1      -3.838  -0.727   3.036  0.00  0.00    +0.021 A 
ATOM     24  C   UNL     1      -4.971   0.066   2.944  0.00  0.00    +0.041 A 
ATOM     25  C   UNL     1      -5.144   0.912   1.861  0.00  0.00    +0.021 A 
ATOM     26  C   UNL     1      -4.186   0.975   0.871  0.00  0.00    +0.013 A 
ATOM     27 CL   UNL     1      -6.178  -0.003   4.189  0.00  0.00    -0.084 Cl
ENDBRANCH  19  21
ENDBRANCH   3  19
TORSDOF 3
