REMARK  Name = ZINC35745207
REMARK  15 active torsions:
REMARK  status: ('A' for Active; 'I' for Inactive)
REMARK    1  A    between atoms: C_1  and  C_2
REMARK    2  A    between atoms: C_5  and  C_7
REMARK    3  A    between atoms: C_7  and  N_8
REMARK    4  A    between atoms: N_8  and  C_9
REMARK    5  A    between atoms: N_8  and  C_33
REMARK    6  A    between atoms: C_9  and  C_10
REMARK    7  A    between atoms: C_13  and  C_15
REMARK    8  A    between atoms: C_15  and  C_16
REMARK    9  A    between atoms: C_15  and  C_24
REMARK   10  A    between atoms: C_15  and  O_32
REMARK   11  A    between atoms: C_19  and  O_22
REMARK   12  A    between atoms: O_22  and  C_23
REMARK   13  A    between atoms: C_27  and  O_30
REMARK   14  A    between atoms: O_30  and  C_31
REMARK   15  A    between atoms: C_33  and  C_34
REMARK                            x       y       z     vdW  Elec       q    Type
REMARK                         _______ _______ _______ _____ _____    ______ ____
ROOT
ATOM      1  C   UNL     1       2.558  -3.533  -2.545  0.00  0.00    +0.089 A 
ATOM      2  C   UNL     1       3.868  -3.276  -2.716  0.00  0.00    +0.043 A 
ATOM      3  C   UNL     1       4.292  -4.040  -3.828  0.00  0.00    +0.048 A 
ATOM      4  C   UNL     1       3.217  -4.718  -4.269  0.00  0.00    +0.146 A 
ATOM      5  O   UNL     1       2.171  -4.411  -3.484  0.00  0.00    -0.463 OA
ENDROOT
BRANCH   1   6
ATOM      6  C   UNL     1       1.677  -2.941  -1.476  0.00  0.00    -0.002 C 
BRANCH   6   7
ATOM      7  N   UNL     1       1.069  -1.700  -1.974  0.00  0.00    +0.391 N 
ATOM      8  H   UNL     1       1.795  -1.062  -2.264  0.00  0.00    -0.080 HD
BRANCH   7   9
ATOM      9  C   UNL     1       0.271  -1.082  -0.906  0.00  0.00    -0.002 C 
BRANCH   9  14
ATOM     10  C   UNL     1       0.117   3.856  -1.923  0.00  0.00    +0.086 C 
ATOM     11  C   UNL     1      -0.295   2.411  -1.808  0.00  0.00    +0.102 A 
ATOM     12  C   UNL     1      -1.481   1.899  -2.183  0.00  0.00    +0.044 A 
ATOM     13  C   UNL     1      -1.437   0.514  -1.898  0.00  0.00    +0.043 A 
ATOM     14  C   UNL     1      -0.228   0.264  -1.366  0.00  0.00    +0.089 A 
ATOM     15  O   UNL     1       0.463   1.415  -1.320  0.00  0.00    -0.467 OA
ENDBRANCH   9  14
ENDBRANCH   7   9
BRANCH   7  16
ATOM     16  C   UNL     1       0.200  -2.006  -3.119  0.00  0.00    -0.046 C 
BRANCH  16  17
ATOM     17  C   UNL     1      -0.990  -2.843  -2.647  0.00  0.00    +0.102 C 
ATOM     18  C   UNL     1      -1.963  -3.106  -3.823  0.00  0.00    +0.032 C 
ATOM     19  C   UNL     1      -2.659  -4.409  -3.345  0.00  0.00    +0.030 C 
ATOM     20  C   UNL     1      -1.521  -5.131  -2.592  0.00  0.00    +0.160 C 
ATOM     21  O   UNL     1      -0.549  -4.143  -2.224  0.00  0.00    -0.378 OA
ENDBRANCH  16  17
ENDBRANCH   7  16
ENDBRANCH   6   7
ENDBRANCH   1   6
BRANCH   4  22
ATOM     22  C   UNL     1       3.192  -5.664  -5.441  0.00  0.00    +0.174 C 
BRANCH  22  23
ATOM     23  C   UNL     1       2.149  -6.726  -5.207  0.00  0.00    -0.004 A 
ATOM     24  C   UNL     1       0.807  -6.415  -5.331  0.00  0.00    +0.011 A 
ATOM     25  C   UNL     1      -0.151  -7.387  -5.117  0.00  0.00    +0.046 A 
ATOM     26  C   UNL     1       0.234  -8.675  -4.776  0.00  0.00    +0.120 A 
ATOM     27  C   UNL     1       1.580  -8.985  -4.652  0.00  0.00    +0.046 A 
ATOM     28  C   UNL     1       2.535  -8.011  -4.873  0.00  0.00    +0.011 A 
BRANCH  26  29
ATOM     29  O   UNL     1      -0.707  -9.633  -4.564  0.00  0.00    -0.495 OA
ATOM     30  C   UNL     1      -0.239 -10.938  -4.217  0.00  0.00    +0.277 C 
ENDBRANCH  26  29
ENDBRANCH  22  23
BRANCH  22  31
ATOM     31  C   UNL     1       2.858  -4.901  -6.697  0.00  0.00    -0.004 A 
ATOM     32  C   UNL     1       1.873  -3.931  -6.673  0.00  0.00    +0.011 A 
ATOM     33  C   UNL     1       1.565  -3.230  -7.823  0.00  0.00    +0.046 A 
ATOM     34  C   UNL     1       2.246  -3.499  -9.002  0.00  0.00    +0.120 A 
ATOM     35  C   UNL     1       3.235  -4.472  -9.022  0.00  0.00    +0.046 A 
ATOM     36  C   UNL     1       3.542  -5.167  -7.869  0.00  0.00    +0.011 A 
BRANCH  34  37
ATOM     37  O   UNL     1       1.944  -2.811 -10.134  0.00  0.00    -0.495 OA
ATOM     38  C   UNL     1       2.686  -3.141 -11.310  0.00  0.00    +0.277 C 
ENDBRANCH  34  37
ENDBRANCH  22  31
BRANCH  22  39
ATOM     39  O   UNL     1       4.474  -6.279  -5.584  0.00  0.00    -0.372 OA
ATOM     40  H   UNL     1       5.195  -5.654  -5.738  0.00  0.00    +0.212 HD
ENDBRANCH  22  39
ENDBRANCH   4  22
TORSDOF 12
