REMARK  Name = ZINC14473913
REMARK  7 active torsions:
REMARK  status: ('A' for Active; 'I' for Inactive)
REMARK    1  A    between atoms: C_1  and  C_2
REMARK    2  A    between atoms: C_2  and  C_3
REMARK    3  A    between atoms: C_3  and  O_4
REMARK    4  A    between atoms: O_4  and  C_5
REMARK    5  A    between atoms: C_5  and  C_7
REMARK    6  A    between atoms: C_20  and  C_23
REMARK    7  A    between atoms: C_28  and  O_29
REMARK                            x       y       z     vdW  Elec       q    Type
REMARK                         _______ _______ _______ _____ _____    ______ ____
ROOT
ATOM      1  C   UNL     1       0.002  -0.004   0.002  0.00  0.00    +0.059 A 
ATOM      2  C   UNL     1      -0.017   1.394   0.010  0.00  0.00    +0.017 A 
ATOM      3  C   UNL     1       1.153   2.095   0.002  0.00  0.00    +0.024 A 
ATOM      4  C   UNL     1       2.379   1.432  -0.013  0.00  0.00    +0.031 A 
ATOM      5  C   UNL     1       2.403   0.029  -0.007  0.00  0.00    -0.019 A 
ATOM      6  C   UNL     1       1.227  -0.679  -0.006  0.00  0.00    +0.021 A 
ATOM      7  C   UNL     1       3.726  -0.630   0.019  0.00  0.00    +0.049 C 
ATOM      8  C   UNL     1       3.962  -2.009  -0.508  0.00  0.00    -0.023 C 
ATOM      9  C   UNL     1       5.191  -2.083  -1.002  0.00  0.00    -0.030 C 
ATOM     10  C   UNL     1       5.897  -0.733  -0.855  0.00  0.00    +0.033 C 
ATOM     11  C   UNL     1       4.707   0.235  -0.828  0.00  0.00    +0.029 C 
ATOM     12  C   UNL     1       4.882   1.527  -0.050  0.00  0.00    +0.108 C 
ATOM     13  N   UNL     1       3.555   2.180  -0.056  0.00  0.00    -0.336 N 
ATOM     14  H   UNL     1       3.501   3.148  -0.089  0.00  0.00    +0.147 HD
ENDROOT
BRANCH  12  15
ATOM     15  C   UNL     1       5.309   1.229   1.364  0.00  0.00    +0.014 A 
ATOM     16  C   UNL     1       4.360   1.071   2.354  0.00  0.00    +0.009 A 
ATOM     17  C   UNL     1       4.752   0.797   3.652  0.00  0.00    +0.001 A 
ATOM     18  C   UNL     1       6.094   0.681   3.961  0.00  0.00    +0.004 A 
ATOM     19  C   UNL     1       7.048   0.839   2.974  0.00  0.00    +0.046 A 
ATOM     20  C   UNL     1       6.657   1.108   1.670  0.00  0.00    +0.122 A 
BRANCH  20  21
ATOM     21  O   UNL     1       7.593   1.258   0.696  0.00  0.00    -0.506 OA
ATOM     22  H   UNL     1       7.902   2.168   0.585  0.00  0.00    +0.292 HD
ENDBRANCH  20  21
ENDBRANCH  12  15
BRANCH   1  23
ATOM     23  C   UNL     1      -1.262  -0.762   0.002  0.00  0.00    +0.339 C 
ATOM     24  O   UNL     1      -1.242  -1.977  -0.005  0.00  0.00    -0.245 OA
BRANCH  23  25
ATOM     25  O   UNL     1      -2.440  -0.108   0.009  0.00  0.00    -0.461 OA
BRANCH  25  26
ATOM     26  C   UNL     1      -3.644  -0.919   0.009  0.00  0.00    +0.232 C 
BRANCH  26  28
ATOM     27  C   UNL     1      -6.142  -0.862   0.018  0.00  0.00    +0.007 C 
ATOM     28  C   UNL     1      -4.873  -0.007   0.018  0.00  0.00    +0.038 C 
ENDBRANCH  26  28
ENDBRANCH  25  26
ENDBRANCH  23  25
ENDBRANCH   1  23
TORSDOF 6
