REMARK  Name = ZINC10367076
REMARK  5 active torsions:
REMARK  status: ('A' for Active; 'I' for Inactive)
REMARK    1  A    between atoms: C_1  and  C_2
REMARK    2  A    between atoms: C_3  and  N_9
REMARK    3  A    between atoms: C_19  and  S_20
REMARK    4  A    between atoms: S_20  and  C_21
REMARK    5  A    between atoms: C_21  and  C_22
REMARK                            x       y       z     vdW  Elec       q    Type
REMARK                         _______ _______ _______ _____ _____    ______ ____
ROOT
ATOM      1  N   UNL     1       0.037  -2.767  -0.012  0.00  0.00    -0.255 N 
ATOM      2  C   UNL     1       1.239  -2.146  -0.021  0.00  0.00    +0.267 A 
ATOM      3  O   UNL     1       2.277  -2.781  -0.034  0.00  0.00    -0.267 OA
ATOM      4  C   UNL     1       1.245  -0.677  -0.013  0.00  0.00    +0.065 A 
ATOM      5  C   UNL     1       2.432   0.055  -0.021  0.00  0.00    +0.015 A 
ATOM      6  C   UNL     1       2.381   1.421  -0.013  0.00  0.00    +0.001 A 
ATOM      7  C   UNL     1       1.161   2.086   0.002  0.00  0.00    +0.002 A 
ATOM      8  C   UNL     1      -0.017   1.394   0.010  0.00  0.00    +0.028 A 
ATOM      9  C   UNL     1       0.002  -0.004   0.002  0.00  0.00    +0.079 A 
ATOM     10  N   UNL     1      -1.141  -0.729   0.009  0.00  0.00    -0.223 NA
ATOM     11  C   UNL     1      -1.121  -2.039   0.002  0.00  0.00    +0.177 A 
ENDROOT
BRANCH   1  14
ATOM     12  C   UNL     1      -0.056  -4.098  -2.526  0.00  0.00    +0.047 C 
ATOM     13  C   UNL     1      -0.069  -4.855  -1.224  0.00  0.00    -0.008 A 
ATOM     14  C   UNL     1      -0.022  -4.167  -0.019  0.00  0.00    +0.056 A 
ATOM     15  C   UNL     1      -0.040  -4.868   1.180  0.00  0.00    +0.027 A 
ATOM     16  C   UNL     1      -0.099  -6.248   1.171  0.00  0.00    +0.003 A 
ATOM     17  C   UNL     1      -0.140  -6.932  -0.030  0.00  0.00    +0.020 A 
ATOM     18  C   UNL     1      -0.122  -6.237  -1.226  0.00  0.00    +0.046 A 
ATOM     19 CL   UNL     1      -0.174  -7.099  -2.732  0.00  0.00    -0.083 Cl
ENDBRANCH   1  14
BRANCH  11  20
ATOM     20  S   UNL     1      -2.657  -2.903   0.013  0.00  0.00    -0.078 S 
BRANCH  20  21
ATOM     21  C   UNL     1      -3.804  -1.504   0.030  0.00  0.00    +0.173 C 
BRANCH  21  22
ATOM     22  C   UNL     1      -5.221  -2.016   0.042  0.00  0.00    +0.231 C 
ATOM     23  O   UNL     1      -5.434  -3.210   0.038  0.00  0.00    -0.274 OA
ATOM     24  N   UNL     1      -6.252  -1.148   0.055  0.00  0.00    -0.260 N 
ATOM     25  C   UNL     1      -6.021   0.305   0.060  0.00  0.00    +0.209 C 
ATOM     26  C   UNL     1      -6.981   0.952   1.024  0.00  0.00    +0.235 C 
ATOM     27  O   UNL     1      -6.665   1.981   1.584  0.00  0.00    -0.274 OA
ATOM     28  N   UNL     1      -8.185   0.402   1.273  0.00  0.00    -0.283 N 
ATOM     29  C   UNL     1      -8.554  -0.810   0.680  0.00  0.00    +0.055 A 
ATOM     30  C   UNL     1      -7.581  -1.600   0.060  0.00  0.00    +0.058 A 
ATOM     31  C   UNL     1      -7.928  -2.802  -0.530  0.00  0.00    +0.025 A 
ATOM     32  C   UNL     1      -9.248  -3.219  -0.513  0.00  0.00    +0.002 A 
ATOM     33  C   UNL     1     -10.216  -2.438   0.091  0.00  0.00    +0.002 A 
ATOM     34  C   UNL     1      -9.872  -1.234   0.696  0.00  0.00    +0.025 A 
ATOM     35  H   UNL     1      -8.803   0.852   1.870  0.00  0.00    +0.155 HD
ENDBRANCH  21  22
ENDBRANCH  20  21
ENDBRANCH  11  20
TORSDOF 4
