REMARK  Name = ZINC59014096
REMARK  11 active torsions:
REMARK  status: ('A' for Active; 'I' for Inactive)
REMARK    1  A    between atoms: C_1  and  C_2
REMARK    2  A    between atoms: C_2  and  O_3
REMARK    3  A    between atoms: O_3  and  C_4
REMARK    4  A    between atoms: C_4  and  C_6
REMARK    5  A    between atoms: C_10  and  N_11
REMARK    6  A    between atoms: C_12  and  C_14
REMARK    7  A    between atoms: C_16  and  O_25
REMARK    8  A    between atoms: C_17  and  O_23
REMARK    9  A    between atoms: C_19  and  N_20
REMARK   10  A    between atoms: O_23  and  C_24
REMARK   11  A    between atoms: O_25  and  C_26
REMARK                            x       y       z     vdW  Elec       q    Type
REMARK                         _______ _______ _______ _____ _____    ______ ____
ROOT
ATOM      1  N   UNL     1      -3.398  -3.301   2.625  0.00  0.00    -0.275 N 
ATOM      2  C   UNL     1      -4.125  -3.211   3.756  0.00  0.00    +0.251 C 
ATOM      3  O   UNL     1      -5.320  -3.437   3.731  0.00  0.00    -0.270 OA
ATOM      4  H   UNL     1      -2.446  -3.120   2.645  0.00  0.00    +0.156 HD
ENDROOT
BRANCH   1   9
ATOM      5  C   UNL     1      -3.429  -3.793   0.183  0.00  0.00    +0.091 A 
ATOM      6  C   UNL     1      -4.299  -4.179  -0.915  0.00  0.00    -0.021 A 
ATOM      7  C   UNL     1      -5.591  -4.348  -0.563  0.00  0.00    -0.004 A 
ATOM      8  S   UNL     1      -5.633  -4.002   1.171  0.00  0.00    -0.077 S 
ATOM      9  C   UNL     1      -4.012  -3.652   1.434  0.00  0.00    +0.087 A 
ATOM     10  C   UNL     1      -6.724  -4.741  -1.460  0.00  0.00    +0.043 C 
ATOM     11  C   UNL     1      -6.272  -4.557  -2.916  0.00  0.00    +0.005 C 
ATOM     12  C   UNL     1      -4.895  -5.204  -3.093  0.00  0.00    +0.005 C 
ATOM     13  C   UNL     1      -3.836  -4.387  -2.350  0.00  0.00    +0.037 C 
BRANCH   5  14
ATOM     14  C   UNL     1      -1.996  -3.567  -0.021  0.00  0.00    +0.342 C 
ATOM     15  O   UNL     1      -1.213  -4.490   0.097  0.00  0.00    -0.245 OA
BRANCH  14  16
ATOM     16  O   UNL     1      -1.546  -2.337  -0.340  0.00  0.00    -0.461 OA
BRANCH  16  18
ATOM     17  C   UNL     1       0.182  -0.736  -0.878  0.00  0.00    +0.048 C 
ATOM     18  C   UNL     1      -0.137  -2.189  -0.525  0.00  0.00    +0.229 C 
ENDBRANCH  16  18
ENDBRANCH  14  16
ENDBRANCH   5  14
ENDBRANCH   1   9
BRANCH   2  19
ATOM     19  C   UNL     1      -3.471  -2.837   5.025  0.00  0.00    +0.071 A 
ATOM     20  C   UNL     1      -2.367  -3.561   5.484  0.00  0.00    +0.064 A 
ATOM     21  C   UNL     1      -1.759  -3.207   6.672  0.00  0.00    +0.162 A 
ATOM     22  C   UNL     1      -2.246  -2.129   7.411  0.00  0.00    +0.164 A 
ATOM     23  C   UNL     1      -3.343  -1.411   6.955  0.00  0.00    +0.082 A 
ATOM     24  C   UNL     1      -3.951  -1.755   5.768  0.00  0.00    +0.142 A 
BRANCH  24  25
ATOM     25  N   UNL     1      -5.116  -0.982   5.281  0.00  0.00    +0.057 N 
ATOM     26  O   UNL     1      -5.608  -0.127   5.980  0.00  0.00    -0.126 OA
ATOM     27  O   UNL     1      -5.576  -1.207   4.186  0.00  0.00    -0.126 OA
ENDBRANCH  24  25
BRANCH  22  28
ATOM     28  O   UNL     1      -1.647  -1.782   8.579  0.00  0.00    -0.491 OA
ATOM     29  C   UNL     1      -2.197  -0.668   9.285  0.00  0.00    +0.277 C 
ENDBRANCH  22  28
BRANCH  21  30
ATOM     30  O   UNL     1      -0.685  -3.909   7.122  0.00  0.00    -0.491 OA
ATOM     31  C   UNL     1      -0.240  -5.001   6.315  0.00  0.00    +0.277 C 
ENDBRANCH  21  30
ENDBRANCH   2  19
TORSDOF 8
