REMARK  Name = ZINC49640504
REMARK  7 active torsions:
REMARK  status: ('A' for Active; 'I' for Inactive)
REMARK    1  A    between atoms: C_3  and  C_9
REMARK    2  A    between atoms: C_9  and  C_10
REMARK    3  A    between atoms: N_15  and  C_16
REMARK    4  A    between atoms: C_16  and  C_18
REMARK    5  A    between atoms: C_18  and  N_19
REMARK    6  A    between atoms: N_19  and  C_20
REMARK    7  A    between atoms: C_20  and  C_21
REMARK                            x       y       z     vdW  Elec       q    Type
REMARK                         _______ _______ _______ _____ _____    ______ ____
ROOT
ATOM      1  C   UNL     1       4.243   2.225   1.371  0.00  0.00    +0.013 A 
ATOM      2  C   UNL     1       5.158   1.424   1.929  0.00  0.00    +0.095 A 
ATOM      3  N   UNL     1       5.506   1.677   3.219  0.00  0.00    -0.342 N 
ATOM      4  C   UNL     1       4.913   2.717   3.866  0.00  0.00    +0.163 A 
ATOM      5  S   UNL     1       3.881   3.355   2.702  0.00  0.00    -0.057 S 
ATOM      6  N   UNL     1       5.108   3.132   5.119  0.00  0.00    -0.158 NA
ATOM      7  H   UNL     1       6.164   1.126   3.670  0.00  0.00    +0.167 HD
ENDROOT
BRANCH   6   8
ATOM      8  C   UNL     1       5.976   2.502   5.900  0.00  0.00    +0.221 C 
ATOM      9  O   UNL     1       6.595   1.546   5.473  0.00  0.00    -0.276 OA
BRANCH   8  10
ATOM     10  C   UNL     1       6.196   2.972   7.315  0.00  0.00    +0.018 C 
BRANCH  10  11
ATOM     11  N   UNL     1       7.198   2.116   7.965  0.00  0.00    +0.389 N 
ATOM     12  H   UNL     1       6.870   1.162   7.974  0.00  0.00    -0.085 HD
ATOM     13  H   UNL     1       8.067   2.167   7.454  0.00  0.00    -0.085 HD
BRANCH  11  14
ATOM     14  C   UNL     1       7.412   2.573   9.344  0.00  0.00    -0.006 C 
BRANCH  14  15
ATOM     15  C   UNL     1       8.440   1.695  10.011  0.00  0.00    +0.088 A 
ATOM     16  C   UNL     1       9.768   1.906  10.019  0.00  0.00    +0.042 A 
ATOM     17  C   UNL     1      10.346   0.845  10.753  0.00  0.00    +0.041 A 
ATOM     18  C   UNL     1       9.337   0.050  11.150  0.00  0.00    +0.195 A 
ATOM     19  O   UNL     1       8.184   0.573  10.702  0.00  0.00    -0.470 OA
ENDBRANCH  14  15
ENDBRANCH  11  14
ENDBRANCH  10  11
ENDBRANCH   8  10
ENDBRANCH   6   8
BRANCH   1  20
ATOM     20  C   UNL     1       3.671   2.186  -0.023  0.00  0.00    +0.080 C 
BRANCH  20  23
ATOM     21  C   UNL     1      -0.017   1.378   0.010  0.00  0.00    +0.002 A 
ATOM     22  C   UNL     1       1.171   2.086   0.002  0.00  0.00    +0.005 A 
ATOM     23  C   UNL     1       2.378   1.413  -0.013  0.00  0.00    -0.023 A 
ATOM     24  C   UNL     1       2.398   0.030  -0.021  0.00  0.00    +0.063 A 
ATOM     25  C   UNL     1       1.209  -0.679  -0.013  0.00  0.00    +0.060 A 
ATOM     26  C   UNL     1       0.002  -0.004   0.002  0.00  0.00    +0.021 A 
ATOM     27 CL   UNL     1       1.234  -2.415  -0.023  0.00  0.00    -0.082 Cl
ATOM     28 CL   UNL     1       3.914  -0.816  -0.041  0.00  0.00    -0.082 Cl
ENDBRANCH  20  23
ENDBRANCH   1  20
TORSDOF 7
