REMARK  Name = ZINC67361720
REMARK  9 active torsions:
REMARK  status: ('A' for Active; 'I' for Inactive)
REMARK    1  A    between atoms: C_1  and  C_2
REMARK    2  A    between atoms: C_2  and  O_3
REMARK    3  A    between atoms: O_3  and  C_4
REMARK    4  A    between atoms: C_7  and  C_13
REMARK    5  A    between atoms: C_9  and  N_10
REMARK    6  A    between atoms: N_15  and  C_16
REMARK    7  A    between atoms: C_16  and  C_17
REMARK    8  A    between atoms: N_22  and  C_24
REMARK    9  A    between atoms: C_24  and  C_25
REMARK                            x       y       z     vdW  Elec       q    Type
REMARK                         _______ _______ _______ _____ _____    ______ ____
ROOT
ATOM      1  C   UNL     1       1.142  -6.031   1.762  0.00  0.00    +0.244 C 
ATOM      2  O   UNL     1       1.715  -6.493   2.729  0.00  0.00    -0.270 OA
ATOM      3  N   UNL     1       0.614  -6.854   0.834  0.00  0.00    -0.311 N 
ATOM      4  H   UNL     1       0.156  -6.485   0.062  0.00  0.00    +0.149 HD
ENDROOT
BRANCH   1   8
ATOM      5  C   UNL     1       0.802  -1.822   1.306  0.00  0.00    +0.151 A 
ATOM      6  C   UNL     1       0.257  -2.670   0.347  0.00  0.00    +0.049 A 
ATOM      7  C   UNL     1       0.365  -4.035   0.491  0.00  0.00    +0.017 A 
ATOM      8  C   UNL     1       1.024  -4.568   1.603  0.00  0.00    +0.039 A 
ATOM      9  C   UNL     1       1.570  -3.713   2.563  0.00  0.00    +0.049 A 
ATOM     10  C   UNL     1       1.462  -2.349   2.409  0.00  0.00    +0.168 A 
BRANCH  10  11
ATOM     11  N   UNL     1       2.045  -1.442   3.423  0.00  0.00    +0.060 N 
ATOM     12  O   UNL     1       2.620  -1.899   4.384  0.00  0.00    -0.126 OA
ATOM     13  O   UNL     1       1.947  -0.244   3.291  0.00  0.00    -0.126 OA
ENDBRANCH  10  11
BRANCH   5  14
ATOM     14  O   UNL     1       0.693  -0.477   1.160  0.00  0.00    -0.490 OA
BRANCH  14  16
ATOM     15  C   UNL     1      -0.019   1.526   0.010  0.00  0.00    +0.048 C 
ATOM     16  C   UNL     1       0.002  -0.004   0.002  0.00  0.00    +0.226 C 
ENDBRANCH  14  16
ENDBRANCH   5  14
ENDBRANCH   1   8
BRANCH   3  17
ATOM     17  C   UNL     1       0.731  -8.306   0.992  0.00  0.00    +0.106 C 
BRANCH  17  18
ATOM     18  C   UNL     1       0.052  -9.003  -0.189  0.00  0.00    -0.011 C 
ATOM     19  C   UNL     1      -1.451  -8.714  -0.159  0.00  0.00    +0.001 C 
ATOM     20  C   UNL     1      -2.131  -9.479  -1.298  0.00  0.00    -0.018 C 
ATOM     21  C   UNL     1      -1.825 -10.972  -1.157  0.00  0.00    -0.078 C 
ATOM     22  N   UNL     1      -0.374 -11.185  -1.220  0.00  0.00    +0.383 N 
ATOM     23  C   UNL     1       0.279 -10.513  -0.090  0.00  0.00    -0.073 C 
ATOM     24  H   UNL     1      -0.017 -10.808  -2.085  0.00  0.00    -0.081 HD
BRANCH  22  25
ATOM     25  C   UNL     1      -0.089 -12.625  -1.162  0.00  0.00    -0.043 C 
BRANCH  25  26
ATOM     26  C   UNL     1      -0.645 -13.297  -2.391  0.00  0.00    -0.064 A 
ATOM     27  C   UNL     1      -1.939 -13.782  -2.388  0.00  0.00    +0.002 A 
ATOM     28  C   UNL     1      -2.449 -14.398  -3.515  0.00  0.00    +0.000 A 
ATOM     29  C   UNL     1      -1.665 -14.528  -4.646  0.00  0.00    +0.000 A 
ATOM     30  C   UNL     1      -0.372 -14.042  -4.650  0.00  0.00    +0.000 A 
ATOM     31  C   UNL     1       0.137 -13.422  -3.524  0.00  0.00    +0.002 A 
ENDBRANCH  25  26
ENDBRANCH  22  25
ENDBRANCH  17  18
ENDBRANCH   3  17
TORSDOF 8
