REMARK  Name = ZINC13321752
REMARK  7 active torsions:
REMARK  status: ('A' for Active; 'I' for Inactive)
REMARK    1  A    between atoms: C_1  and  C_2
REMARK    2  A    between atoms: C_6  and  C_7
REMARK    3  A    between atoms: N_9  and  N_10
REMARK    4  A    between atoms: C_11  and  C_12
REMARK    5  A    between atoms: C_11  and  C_13
REMARK    6  A    between atoms: C_15  and  O_20
REMARK    7  A    between atoms: C_18  and  O_19
REMARK                            x       y       z     vdW  Elec       q    Type
REMARK                         _______ _______ _______ _____ _____    ______ ____
ROOT
ATOM      1  N   UNL     1       0.058  -0.733   4.900  0.00  0.00    -0.184 NA
ATOM      2  C   UNL     1       0.079  -1.593   5.872  0.00  0.00    +0.067 C 
ATOM      3  C   UNL     1       0.096  -3.069   5.571  0.00  0.00    +0.068 C 
ENDROOT
BRANCH   2   4
ATOM      4  C   UNL     1       0.085  -1.126   7.269  0.00  0.00    +0.042 A 
ATOM      5  C   UNL     1       0.114  -2.048   8.318  0.00  0.00    +0.058 A 
ATOM      6  C   UNL     1       0.120  -1.602   9.627  0.00  0.00    +0.118 A 
ATOM      7  C   UNL     1       0.098  -0.241   9.901  0.00  0.00    +0.049 A 
ATOM      8  C   UNL     1       0.070   0.678   8.869  0.00  0.00    +0.049 A 
ATOM      9  C   UNL     1       0.069   0.246   7.553  0.00  0.00    +0.126 A 
BRANCH   9  10
ATOM     10  O   UNL     1       0.047   1.151   6.540  0.00  0.00    -0.506 OA
ATOM     11  H   UNL     1      -0.843   1.401   6.255  0.00  0.00    +0.292 HD
ENDBRANCH   9  10
BRANCH   6  12
ATOM     12  O   UNL     1       0.148  -2.499  10.649  0.00  0.00    -0.507 OA
ATOM     13  H   UNL     1       1.039  -2.743  10.935  0.00  0.00    +0.292 HD
ENDBRANCH   6  12
ENDBRANCH   2   4
BRANCH   1  16
ATOM     14  C   UNL     1       0.030  -0.283   2.562  0.00  0.00    +0.270 C 
ATOM     15  O   UNL     1       0.015   0.909   2.805  0.00  0.00    -0.268 OA
ATOM     16  N   UNL     1       0.051  -1.177   3.571  0.00  0.00    -0.202 N 
ATOM     17  H   UNL     1       0.063  -2.127   3.377  0.00  0.00    +0.178 HD
BRANCH  14  23
ATOM     18  C   UNL     1      -0.018   1.503   0.010  0.00  0.00    +0.045 C 
ATOM     19  C   UNL     1       0.002  -0.004   0.002  0.00  0.00    -0.031 A 
ATOM     20  C   UNL     1       0.007  -0.729  -1.166  0.00  0.00    +0.011 A 
ATOM     21  C   UNL     1       0.026  -2.083  -1.101  0.00  0.00    +0.046 A 
ATOM     22  S   UNL     1       0.038  -2.417   0.545  0.00  0.00    -0.092 S 
ATOM     23  C   UNL     1       0.023  -0.748   1.172  0.00  0.00    +0.078 A 
ENDBRANCH  14  23
ENDBRANCH   1  16
TORSDOF 5
