REMARK  Name = ZINC64979752
REMARK  7 active torsions:
REMARK  status: ('A' for Active; 'I' for Inactive)
REMARK    1  A    between atoms: C_1  and  C_2
REMARK    2  A    between atoms: C_2  and  C_3
REMARK    3  A    between atoms: C_3  and  N_4
REMARK    4  A    between atoms: C_8  and  N_20
REMARK    5  A    between atoms: C_21  and  C_23
REMARK    6  A    between atoms: N_28  and  C_30
REMARK    7  A    between atoms: C_33  and  C_36
REMARK                            x       y       z     vdW  Elec       q    Type
REMARK                         _______ _______ _______ _____ _____    ______ ____
ROOT
ATOM      1  N   UNL     1       0.686  -1.906   1.161  0.00  0.00    -0.266 N 
ATOM      2  C   UNL     1      -0.384  -2.514   1.805  0.00  0.00    +0.050 A 
ATOM      3  C   UNL     1      -0.669  -2.142   3.117  0.00  0.00    +0.026 A 
ATOM      4  C   UNL     1      -1.724  -2.718   3.796  0.00  0.00    +0.025 A 
ATOM      5  C   UNL     1      -2.514  -3.676   3.176  0.00  0.00    +0.035 A 
ATOM      6  C   UNL     1      -2.237  -4.054   1.869  0.00  0.00    +0.040 A 
ATOM      7  C   UNL     1      -1.176  -3.476   1.187  0.00  0.00    +0.036 A 
ATOM      8  S   UNL     1      -0.841  -3.975  -0.469  0.00  0.00    -0.087 S 
ATOM      9  C   UNL     1       0.794  -4.628  -0.384  0.00  0.00    +0.025 A 
ATOM     10  C   UNL     1       1.030  -5.949  -0.738  0.00  0.00    +0.016 A 
ATOM     11  C   UNL     1       2.310  -6.464  -0.675  0.00  0.00    +0.001 A 
ATOM     12  C   UNL     1       3.362  -5.663  -0.259  0.00  0.00    +0.001 A 
ATOM     13  C   UNL     1       3.143  -4.351   0.096  0.00  0.00    +0.014 A 
ATOM     14  C   UNL     1       1.851  -3.812   0.041  0.00  0.00    +0.051 A 
ATOM     15  C   UNL     1       1.636  -2.419   0.425  0.00  0.00    +0.252 C 
ATOM     16  O   UNL     1       2.458  -1.627   0.005  0.00  0.00    -0.270 OA
ENDROOT
BRANCH   5  17
ATOM     17  N   UNL     1      -3.584  -4.260   3.865  0.00  0.00    -0.285 N 
ATOM     18  C   UNL     1      -3.921  -5.543   3.626  0.00  0.00    +0.222 C 
ATOM     19  O   UNL     1      -3.240  -6.221   2.885  0.00  0.00    -0.275 OA
ATOM     20  H   UNL     1      -4.083  -3.741   4.515  0.00  0.00    +0.155 HD
BRANCH  18  21
ATOM     21  C   UNL     1      -5.144  -6.135   4.277  0.00  0.00    +0.102 C 
ATOM     22  C   UNL     1      -6.429  -5.431   3.785  0.00  0.00    +0.110 C 
ATOM     23  C   UNL     1      -6.897  -6.281   2.624  0.00  0.00    +0.221 C 
ATOM     24  O   UNL     1      -7.704  -5.933   1.788  0.00  0.00    -0.275 OA
ATOM     25  N   UNL     1      -6.288  -7.479   2.654  0.00  0.00    -0.271 N 
ATOM     26  C   UNL     1      -5.376  -7.586   3.800  0.00  0.00    +0.127 C 
BRANCH  25  27
ATOM     27  C   UNL     1      -6.497  -8.494   1.714  0.00  0.00    +0.036 A 
ATOM     28  C   UNL     1      -7.283  -8.255   0.595  0.00  0.00    +0.024 A 
ATOM     29  C   UNL     1      -7.487  -9.259  -0.332  0.00  0.00    +0.005 A 
ATOM     30  C   UNL     1      -6.909 -10.502  -0.145  0.00  0.00    -0.050 A 
ATOM     31  C   UNL     1      -6.125 -10.743   0.968  0.00  0.00    +0.005 A 
ATOM     32  C   UNL     1      -5.913  -9.741   1.895  0.00  0.00    +0.024 A 
ATOM     33  C   UNL     1      -7.133 -11.595  -1.158  0.00  0.00    +0.044 C 
ENDBRANCH  25  27
ENDBRANCH  18  21
ENDBRANCH   5  17
BRANCH   1  34
ATOM     34  C   UNL     1       0.758  -0.452   1.330  0.00  0.00    +0.114 C 
BRANCH  34  36
ATOM     35  C   UNL     1       0.043   1.749   0.390  0.00  0.00    +0.005 C 
ATOM     36  C   UNL     1      -0.033   0.231   0.213  0.00  0.00    +0.016 C 
ENDBRANCH  34  36
ENDBRANCH   1  34
TORSDOF 5
