REMARK  Name = ZINC39675344
REMARK  10 active torsions:
REMARK  status: ('A' for Active; 'I' for Inactive)
REMARK    1  A    between atoms: C_1  and  C_2
REMARK    2  A    between atoms: C_5  and  C_10
REMARK    3  A    between atoms: C_14  and  C_23
REMARK    4  A    between atoms: N_25  and  C_26
REMARK    5  A    between atoms: C_26  and  C_28
REMARK    6  A    between atoms: C_26  and  C_29
REMARK    7  A    between atoms: C_29  and  C_30
REMARK    8  A    between atoms: C_30  and  C_31
REMARK    9  A    between atoms: C_34  and  O_37
REMARK   10  A    between atoms: O_37  and  C_38
REMARK                            x       y       z     vdW  Elec       q    Type
REMARK                         _______ _______ _______ _____ _____    ______ ____
ROOT
ATOM      1  C   UNL     1       0.135  -4.047  -0.088  0.00  0.00    +0.250 C 
ATOM      2  O   UNL     1       0.170  -4.624   0.982  0.00  0.00    -0.270 OA
ATOM      3  N   UNL     1      -0.017  -4.748  -1.228  0.00  0.00    -0.296 N 
ATOM      4  C   UNL     1       0.025  -4.240  -2.619  0.00  0.00    +0.121 C 
ATOM      5  C   UNL     1       0.779  -5.332  -3.411  0.00  0.00    +0.100 C 
ATOM      6  C   UNL     1       0.584  -6.617  -2.590  0.00  0.00    -0.004 C 
ATOM      7  C   UNL     1      -0.258  -6.204  -1.374  0.00  0.00    +0.115 C 
ATOM      8  C   UNL     1      -0.157  -7.665  -3.416  0.00  0.00    -0.010 C 
ATOM      9  C   UNL     1      -0.287  -8.953  -2.599  0.00  0.00    -0.082 C 
ATOM     10  N   UNL     1       1.048  -9.442  -2.237  0.00  0.00    +0.379 N 
ATOM     11  C   UNL     1       1.719  -8.469  -1.366  0.00  0.00    -0.082 C 
ATOM     12  C   UNL     1       1.934  -7.160  -2.131  0.00  0.00    -0.010 C 
ATOM     13  H   UNL     1       0.962 -10.323  -1.751  0.00  0.00    -0.086 HD
ATOM     14  H   UNL     1       1.595  -9.575  -3.074  0.00  0.00    -0.086 HD
ENDROOT
BRANCH   1  19
ATOM     15  C   UNL     1       0.616   1.687  -0.283  0.00  0.00    +0.047 C 
ATOM     16  C   UNL     1       0.492   0.185  -0.230  0.00  0.00    -0.012 A 
ATOM     17  C   UNL     1      -0.312  -0.472  -1.145  0.00  0.00    +0.007 A 
ATOM     18  C   UNL     1      -0.432  -1.844  -1.104  0.00  0.00    +0.016 A 
ATOM     19  C   UNL     1       0.261  -2.576  -0.137  0.00  0.00    +0.075 A 
ATOM     20  C   UNL     1       1.072  -1.909   0.786  0.00  0.00    +0.171 A 
ATOM     21  C   UNL     1       1.187  -0.530   0.729  0.00  0.00    +0.162 A 
ATOM     22  F   UNL     1       1.975   0.118   1.615  0.00  0.00    -0.202 F 
ATOM     23  F   UNL     1       1.746  -2.608   1.726  0.00  0.00    -0.202 F 
ENDBRANCH   1  19
BRANCH   5  24
ATOM     24  C   UNL     1       0.183  -5.489  -4.786  0.00  0.00    +0.218 C 
ATOM     25  O   UNL     1      -1.000  -5.284  -4.962  0.00  0.00    -0.275 OA
ATOM     26  N   UNL     1       0.963  -5.857  -5.821  0.00  0.00    -0.312 N 
ATOM     27  H   UNL     1       1.909  -6.021  -5.681  0.00  0.00    +0.149 HD
BRANCH  26  28
ATOM     28  C   UNL     1       0.384  -6.011  -7.158  0.00  0.00    +0.070 C 
ATOM     29  C   UNL     1      -0.212  -7.413  -7.298  0.00  0.00    +0.028 C 
BRANCH  28  30
ATOM     30  C   UNL     1       1.474  -5.812  -8.213  0.00  0.00    +0.026 C 
BRANCH  30  31
ATOM     31  C   UNL     1       1.983  -4.370  -8.155  0.00  0.00    +0.037 C 
BRANCH  31  32
ATOM     32  C   UNL     1       3.057  -4.174  -9.194  0.00  0.00    -0.047 A 
ATOM     33  C   UNL     1       4.380  -4.416  -8.872  0.00  0.00    +0.007 A 
ATOM     34  C   UNL     1       5.367  -4.237  -9.823  0.00  0.00    +0.046 A 
ATOM     35  C   UNL     1       5.029  -3.815 -11.100  0.00  0.00    +0.120 A 
ATOM     36  C   UNL     1       3.701  -3.574 -11.420  0.00  0.00    +0.046 A 
ATOM     37  C   UNL     1       2.717  -3.759 -10.468  0.00  0.00    +0.007 A 
BRANCH  35  38
ATOM     38  O   UNL     1       5.997  -3.637 -12.037  0.00  0.00    -0.495 OA
ATOM     39  C   UNL     1       5.577  -3.201 -13.331  0.00  0.00    +0.277 C 
ENDBRANCH  35  38
ENDBRANCH  31  32
ENDBRANCH  30  31
ENDBRANCH  28  30
ENDBRANCH  26  28
ENDBRANCH   5  24
TORSDOF 7
