REMARK  Name = ZINC39456314
REMARK  6 active torsions:
REMARK  status: ('A' for Active; 'I' for Inactive)
REMARK    1  A    between atoms: C_1  and  C_2
REMARK    2  A    between atoms: C_2  and  C_3
REMARK    3  A    between atoms: C_2  and  S_4
REMARK    4  A    between atoms: S_4  and  C_7
REMARK    5  A    between atoms: C_18  and  C_24
REMARK    6  A    between atoms: C_29  and  O_30
REMARK                            x       y       z     vdW  Elec       q    Type
REMARK                         _______ _______ _______ _____ _____    ______ ____
ROOT
ATOM      1  C   UNL     1      -2.397   0.068  -1.507  0.00  0.00    +0.222 C 
ATOM      2  C   UNL     1      -3.862  -0.359  -1.648  0.00  0.00    +0.127 C 
ATOM      3  C   UNL     1      -4.683   0.315  -0.581  0.00  0.00    +0.188 C 
ATOM      4  O   UNL     1      -5.678  -0.234  -0.151  0.00  0.00    -0.290 OA
ATOM      5  C   UNL     1      -4.308   1.580  -0.073  0.00  0.00    +0.154 A 
ATOM      6  C   UNL     1      -3.145   2.179  -0.517  0.00  0.00    +0.086 A 
ATOM      7  C   UNL     1      -2.756   3.499   0.007  0.00  0.00    +0.100 A 
ATOM      8  C   UNL     1      -3.602   4.110   0.970  0.00  0.00    +0.070 A 
ATOM      9  C   UNL     1      -3.268   5.352   1.490  0.00  0.00    +0.026 A 
ATOM     10  C   UNL     1      -2.091   5.959   1.032  0.00  0.00    +0.009 A 
ATOM     11  C   UNL     1      -1.686   7.226   1.519  0.00  0.00    -0.005 A 
ATOM     12  C   UNL     1      -0.516   7.792   1.041  0.00  0.00    +0.009 A 
ATOM     13  C   UNL     1       0.256   7.129   0.094  0.00  0.00    +0.003 A 
ATOM     14  C   UNL     1      -0.112   5.911  -0.391  0.00  0.00    +0.028 A 
ATOM     15  C   UNL     1      -1.292   5.293   0.065  0.00  0.00    +0.072 A 
ATOM     16  N   UNL     1      -1.655   4.097  -0.405  0.00  0.00    -0.245 NA
ATOM     17  C   UNL     1      -4.819   3.403   1.395  0.00  0.00    +0.297 A 
ATOM     18  O   UNL     1      -5.559   3.907   2.220  0.00  0.00    -0.264 OA
ATOM     19  N   UNL     1      -5.116   2.199   0.874  0.00  0.00    -0.088 N 
ATOM     20  O   UNL     1      -6.293   1.540   1.304  0.00  0.00    -0.160 OA
ATOM     21  N   UNL     1      -2.348   1.536  -1.446  0.00  0.00    -0.319 N 
ATOM     22  H   UNL     1      -1.772   2.040  -2.042  0.00  0.00    +0.148 HD
ENDROOT
BRANCH  11  23
ATOM     23  C   UNL     1      -2.504   7.936   2.527  0.00  0.00    +0.024 A 
ATOM     24  C   UNL     1      -3.125   9.142   2.203  0.00  0.00    +0.012 A 
ATOM     25  C   UNL     1      -3.887   9.799   3.147  0.00  0.00    +0.001 A 
ATOM     26  C   UNL     1      -4.037   9.266   4.416  0.00  0.00    +0.004 A 
ATOM     27  C   UNL     1      -3.426   8.072   4.748  0.00  0.00    +0.046 A 
ATOM     28  C   UNL     1      -2.663   7.397   3.809  0.00  0.00    +0.125 A 
BRANCH  28  29
ATOM     29  O   UNL     1      -2.066   6.221   4.134  0.00  0.00    -0.506 OA
ATOM     30  H   UNL     1      -1.177   6.319   4.500  0.00  0.00    +0.292 HD
ENDBRANCH  28  29
ENDBRANCH  11  23
BRANCH   1  31
ATOM     31  S   UNL     1      -1.700  -0.632   0.015  0.00  0.00    -0.010 S 
ATOM     32  O   UNL     1      -1.658  -2.046  -0.118  0.00  0.00    -0.172 OA
ATOM     33  O   UNL     1      -2.381  -0.062   1.124  0.00  0.00    -0.172 OA
BRANCH  31  35
ATOM     34  C   UNL     1      -0.019   1.526   0.010  0.00  0.00    +0.031 C 
ATOM     35  C   UNL     1       0.002  -0.004   0.002  0.00  0.00    +0.126 C 
ATOM     36  C   UNL     1       0.742  -0.511   1.242  0.00  0.00    +0.031 C 
ENDBRANCH  31  35
ENDBRANCH   1  31
TORSDOF 4
