REMARK  Name = ZINC04093370
REMARK  12 active torsions:
REMARK  status: ('A' for Active; 'I' for Inactive)
REMARK    1  A    between atoms: C_1  and  C_2
REMARK    2  A    between atoms: C_2  and  C_3
REMARK    3  A    between atoms: C_3  and  C_4
REMARK    4  A    between atoms: C_4  and  C_33
REMARK    5  A    between atoms: C_9  and  C_12
REMARK    6  A    between atoms: C_15  and  N_18
REMARK    7  A    between atoms: N_18  and  C_19
REMARK    8  A    between atoms: N_18  and  C_20
REMARK    9  A    between atoms: N_23  and  C_26
REMARK   10  A    between atoms: C_33  and  O_35
REMARK   11  A    between atoms: O_35  and  C_36
REMARK   12  A    between atoms: C_36  and  C_37
REMARK                            x       y       z     vdW  Elec       q    Type
REMARK                         _______ _______ _______ _____ _____    ______ ____
ROOT
ATOM      1  C   UNL     1       0.950  -2.464  -0.885  0.00  0.00    +0.044 C 
ATOM      2  C   UNL     1       1.809  -2.893  -2.092  0.00  0.00    +0.086 C 
ATOM      3  C   UNL     1       3.177  -3.302  -1.482  0.00  0.00    +0.077 C 
ATOM      4  C   UNL     1       3.020  -3.065   0.035  0.00  0.00    -0.027 C 
ATOM      5  N   UNL     1       1.552  -3.168   0.276  0.00  0.00    +0.395 N 
ATOM      6  C   UNL     1       3.256  -4.785  -1.763  0.00  0.00    +0.229 C 
ATOM      7  O   UNL     1       4.177  -5.510  -1.450  0.00  0.00    -0.275 OA
ATOM      8  N   UNL     1       2.152  -5.174  -2.411  0.00  0.00    -0.210 N 
ATOM      9  C   UNL     1       1.263  -4.185  -2.658  0.00  0.00    +0.229 C 
ATOM     10  O   UNL     1       0.202  -4.304  -3.234  0.00  0.00    -0.275 OA
ATOM     11  H   UNL     1       1.306  -2.703   1.137  0.00  0.00    -0.083 HD
ATOM     12  H   UNL     1       1.254  -4.132   0.297  0.00  0.00    -0.083 HD
ENDROOT
BRANCH   8  13
ATOM     13  C   UNL     1       1.935  -6.501  -2.811  0.00  0.00    +0.044 A 
ATOM     14  C   UNL     1       0.904  -7.238  -2.243  0.00  0.00    +0.027 A 
ATOM     15  C   UNL     1       0.692  -8.544  -2.638  0.00  0.00    +0.040 A 
ATOM     16  C   UNL     1       1.505  -9.119  -3.600  0.00  0.00    +0.124 A 
ATOM     17  C   UNL     1       2.534  -8.385  -4.167  0.00  0.00    +0.040 A 
ATOM     18  C   UNL     1       2.746  -7.077  -3.779  0.00  0.00    +0.027 A 
ATOM     19  F   UNL     1       1.296 -10.397  -3.984  0.00  0.00    -0.205 F 
ENDBRANCH   8  13
BRANCH   4  20
ATOM     20  C   UNL     1       3.743  -4.136   0.811  0.00  0.00    -0.060 A 
ATOM     21  C   UNL     1       3.157  -5.377   0.984  0.00  0.00    +0.004 A 
ATOM     22  C   UNL     1       3.816  -6.361   1.694  0.00  0.00    +0.023 A 
ATOM     23  C   UNL     1       5.070  -6.103   2.235  0.00  0.00    +0.029 A 
ATOM     24  C   UNL     1       5.655  -4.856   2.059  0.00  0.00    +0.023 A 
ATOM     25  C   UNL     1       4.993  -3.878   1.343  0.00  0.00    +0.004 A 
BRANCH  23  26
ATOM     26  N   UNL     1       5.739  -7.095   2.954  0.00  0.00    -0.336 N 
ATOM     27  C   UNL     1       5.181  -8.448   3.030  0.00  0.00    +0.129 C 
ATOM     28  C   UNL     1       7.000  -6.784   3.633  0.00  0.00    +0.129 C 
ENDBRANCH  23  26
ENDBRANCH   4  20
BRANCH   1  29
ATOM     29  C   UNL     1      -0.481  -2.896  -1.076  0.00  0.00    +0.297 C 
ATOM     30  O   UNL     1      -1.288  -2.126  -1.541  0.00  0.00    -0.252 OA
BRANCH  29  31
ATOM     31  O   UNL     1      -0.860  -4.137  -0.731  0.00  0.00    -0.466 OA
BRANCH  31  32
ATOM     32  C   UNL     1      -2.232  -4.478  -0.940  0.00  0.00    +0.228 C 
ATOM     33  C   UNL     1      -2.473  -5.921  -0.490  0.00  0.00    +0.048 C 
ENDBRANCH  31  32
ENDBRANCH  29  31
ENDBRANCH   1  29
BRANCH   1  34
ATOM     34  C   UNL     1       1.026  -0.949  -0.688  0.00  0.00    -0.001 C 
BRANCH  34  36
ATOM     35  C   UNL     1       0.416   0.945   0.823  0.00  0.00    +0.004 C 
ATOM     36  C   UNL     1       0.340  -0.570   0.626  0.00  0.00    -0.004 C 
ENDBRANCH  34  36
ENDBRANCH   1  34
TORSDOF 8
