REMARK  Name = ZINC04974272
REMARK  9 active torsions:
REMARK  status: ('A' for Active; 'I' for Inactive)
REMARK    1  A    between atoms: C_4  and  C_7
REMARK    2  A    between atoms: C_7  and  C_8
REMARK    3  A    between atoms: C_7  and  C_14
REMARK    4  A    between atoms: C_7  and  O_20
REMARK    5  A    between atoms: O_20  and  C_21
REMARK    6  A    between atoms: C_21  and  C_22
REMARK    7  A    between atoms: C_24  and  O_41
REMARK    8  A    between atoms: C_26  and  O_40
REMARK    9  A    between atoms: C_28  and  N_31
REMARK                            x       y       z     vdW  Elec       q    Type
REMARK                         _______ _______ _______ _____ _____    ______ ____
ROOT
ATOM      1  O   UNL     1       0.164   5.113   1.234  0.00  0.00    -0.357 OA
ENDROOT
BRANCH   1   2
ATOM      2  C   UNL     1      -0.840   5.774   2.006  0.00  0.00    +0.144 C 
BRANCH   2   6
ATOM      3  C   UNL     1      -0.140   9.987   1.947  0.00  0.00    +0.000 A 
ATOM      4  C   UNL     1       0.901   9.110   1.706  0.00  0.00    +0.000 A 
ATOM      5  C   UNL     1       0.674   7.747   1.725  0.00  0.00    +0.007 A 
ATOM      6  C   UNL     1      -0.593   7.260   1.986  0.00  0.00    -0.007 A 
ATOM      7  C   UNL     1      -1.635   8.137   2.221  0.00  0.00    +0.007 A 
ATOM      8  C   UNL     1      -1.408   9.501   2.207  0.00  0.00    +0.000 A 
ENDBRANCH   2   6
BRANCH   2   9
ATOM      9  C   UNL     1      -2.197   5.482   1.421  0.00  0.00    -0.007 A 
ATOM     10  C   UNL     1      -3.007   4.521   1.997  0.00  0.00    +0.007 A 
ATOM     11  C   UNL     1      -4.254   4.257   1.462  0.00  0.00    +0.000 A 
ATOM     12  C   UNL     1      -4.688   4.946   0.345  0.00  0.00    +0.000 A 
ATOM     13  C   UNL     1      -3.876   5.903  -0.234  0.00  0.00    +0.000 A 
ATOM     14  C   UNL     1      -2.631   6.171   0.303  0.00  0.00    +0.007 A 
ENDBRANCH   2   9
BRANCH   2  15
ATOM     15  C   UNL     1      -0.789   5.276   3.428  0.00  0.00    -0.007 A 
ATOM     16  C   UNL     1      -1.560   5.883   4.401  0.00  0.00    +0.007 A 
ATOM     17  C   UNL     1      -1.517   5.424   5.704  0.00  0.00    +0.000 A 
ATOM     18  C   UNL     1      -0.695   4.363   6.036  0.00  0.00    +0.000 A 
ATOM     19  C   UNL     1       0.081   3.759   5.064  0.00  0.00    +0.000 A 
ATOM     20  C   UNL     1       0.034   4.216   3.760  0.00  0.00    +0.007 A 
ENDBRANCH   2  15
ENDBRANCH   1   2
BRANCH   1  21
ATOM     21  C   UNL     1       0.107   5.404  -0.164  0.00  0.00    +0.196 C 
BRANCH  21  22
ATOM     22  C   UNL     1       1.308   4.767  -0.867  0.00  0.00    +0.178 C 
ATOM     23  C   UNL     1       1.206   4.958  -2.402  0.00  0.00    +0.178 C 
ATOM     24  C   UNL     1       2.688   4.862  -2.840  0.00  0.00    +0.195 C 
ATOM     25  C   UNL     1       3.482   5.170  -1.556  0.00  0.00    +0.255 C 
ATOM     26  O   UNL     1       2.527   5.460  -0.521  0.00  0.00    -0.346 OA
BRANCH  25  27
ATOM     27  N   UNL     1       4.288   4.006  -1.177  0.00  0.00    -0.271 N 
ATOM     28  C   UNL     1       3.837   3.157  -0.204  0.00  0.00    +0.098 A 
ATOM     29  C   UNL     1       4.580   2.085   0.145  0.00  0.00    +0.088 A 
ATOM     30  C   UNL     1       5.816   1.861  -0.509  0.00  0.00    +0.254 A 
ATOM     31  O   UNL     1       6.503   0.900  -0.212  0.00  0.00    -0.268 OA
ATOM     32  N   UNL     1       6.224   2.721  -1.463  0.00  0.00    -0.275 N 
ATOM     33  H   UNL     1       7.098   2.572  -1.927  0.00  0.00    +0.173 HD
ATOM     34  C   UNL     1       5.462   3.780  -1.794  0.00  0.00    +0.331 A 
ATOM     35  O   UNL     1       5.841   4.544  -2.660  0.00  0.00    -0.246 OA
ENDBRANCH  25  27
BRANCH  24  36
ATOM     36  O   UNL     1       2.986   3.545  -3.309  0.00  0.00    -0.385 OA
ATOM     37  H   UNL     1       2.471   3.277  -4.082  0.00  0.00    +0.210 HD
ENDBRANCH  24  36
BRANCH  23  38
ATOM     38  O   UNL     1       0.663   6.241  -2.721  0.00  0.00    -0.386 OA
ATOM     39  H   UNL     1       0.621   6.425  -3.669  0.00  0.00    +0.210 HD
ENDBRANCH  23  38
ENDBRANCH  21  22
ENDBRANCH   1  21
TORSDOF 9
