REMARK  Name = ZINC35606001
REMARK  13 active torsions:
REMARK  status: ('A' for Active; 'I' for Inactive)
REMARK    1  A    between atoms: C_1  and  C_2
REMARK    2  A    between atoms: C_8  and  C_10
REMARK    3  A    between atoms: C_10  and  S_11
REMARK    4  A    between atoms: S_11  and  C_12
REMARK    5  A    between atoms: N_22  and  C_23
REMARK    6  A    between atoms: C_23  and  C_24
REMARK    7  A    between atoms: C_24  and  N_25
REMARK    8  A    between atoms: N_25  and  C_26
REMARK    9  A    between atoms: N_25  and  C_29
REMARK   10  A    between atoms: C_26  and  C_27
REMARK   11  A    between atoms: C_26  and  C_28
REMARK   12  A    between atoms: C_29  and  C_30
REMARK   13  A    between atoms: C_29  and  C_31
REMARK                            x       y       z     vdW  Elec       q    Type
REMARK                         _______ _______ _______ _____ _____    ______ ____
ROOT
ATOM      1  C   UNL     1       3.130  -7.253   1.063  0.00  0.00    +0.173 A 
ATOM      2  N   UNL     1       3.991  -6.467   1.661  0.00  0.00    -0.223 NA
ATOM      3  C   UNL     1       4.178  -6.508   2.995  0.00  0.00    +0.079 A 
ATOM      4  C   UNL     1       5.097  -5.670   3.633  0.00  0.00    +0.028 A 
ATOM      5  C   UNL     1       5.253  -5.745   4.988  0.00  0.00    +0.002 A 
ATOM      6  C   UNL     1       4.513  -6.644   5.745  0.00  0.00    +0.001 A 
ATOM      7  C   UNL     1       3.606  -7.477   5.150  0.00  0.00    +0.015 A 
ATOM      8  C   UNL     1       3.425  -7.421   3.768  0.00  0.00    +0.065 A 
ATOM      9  C   UNL     1       2.466  -8.292   3.075  0.00  0.00    +0.262 A 
ATOM     10  O   UNL     1       1.789  -9.098   3.686  0.00  0.00    -0.267 OA
ATOM     11  N   UNL     1       2.359  -8.159   1.733  0.00  0.00    -0.289 N 
ENDROOT
BRANCH   1  12
ATOM     12  S   UNL     1       2.953  -7.129  -0.686  0.00  0.00    -0.078 S 
BRANCH  12  13
ATOM     13  C   UNL     1       4.136  -5.836  -1.156  0.00  0.00    +0.173 C 
BRANCH  13  21
ATOM     14  C   UNL     1       6.167  -2.652  -7.490  0.00  0.00    +0.066 C 
ATOM     15  C   UNL     1       5.372  -3.613  -6.644  0.00  0.00    +0.047 A 
ATOM     16  C   UNL     1       4.459  -4.451  -7.192  0.00  0.00    +0.071 A 
ATOM     17  S   UNL     1       3.874  -5.304  -5.737  0.00  0.00    -0.060 S 
ATOM     18  C   UNL     1       4.837  -4.517  -4.603  0.00  0.00    +0.165 A 
ATOM     19  N   UNL     1       5.538  -3.679  -5.336  0.00  0.00    -0.230 NA
ATOM     20  N   UNL     1       4.883  -4.709  -3.227  0.00  0.00    -0.264 N 
ATOM     21  C   UNL     1       4.085  -5.628  -2.648  0.00  0.00    +0.229 C 
ATOM     22  O   UNL     1       3.326  -6.286  -3.327  0.00  0.00    -0.275 OA
ATOM     23  H   UNL     1       5.490  -4.183  -2.684  0.00  0.00    +0.157 HD
ENDBRANCH  13  21
ENDBRANCH  12  13
ENDBRANCH   1  12
BRANCH  11  24
ATOM     24  C   UNL     1       1.413  -8.997   0.992  0.00  0.00    +0.109 C 
BRANCH  24  25
ATOM     25  C   UNL     1       2.108 -10.290   0.559  0.00  0.00    -0.056 C 
BRANCH  25  26
ATOM     26  N   UNL     1       1.192 -11.084  -0.271  0.00  0.00    +0.384 N 
ATOM     27  H   UNL     1       0.713 -10.477  -0.918  0.00  0.00    -0.081 HD
BRANCH  26  28
ATOM     28  C   UNL     1       1.957 -12.091  -1.018  0.00  0.00    -0.074 C 
ATOM     29  C   UNL     1       0.991 -13.021  -1.756  0.00  0.00    -0.014 C 
ATOM     30  C   UNL     1       2.866 -11.393  -2.030  0.00  0.00    -0.014 C 
ENDBRANCH  26  28
BRANCH  26  31
ATOM     31  C   UNL     1       0.209 -11.755   0.590  0.00  0.00    -0.074 C 
ATOM     32  C   UNL     1       0.931 -12.442   1.751  0.00  0.00    -0.014 C 
ATOM     33  C   UNL     1      -0.776 -10.722   1.142  0.00  0.00    -0.014 C 
ENDBRANCH  26  31
ENDBRANCH  25  26
ENDBRANCH  24  25
ENDBRANCH  11  24
TORSDOF 8
