REMARK  Name = ZINC02636792
REMARK  9 active torsions:
REMARK  status: ('A' for Active; 'I' for Inactive)
REMARK    1  A    between atoms: C_4  and  N_24
REMARK    2  A    between atoms: C_5  and  C_7
REMARK    3  A    between atoms: N_9  and  N_10
REMARK    4  A    between atoms: N_10  and  C_11
REMARK    5  A    between atoms: C_11  and  N_13
REMARK    6  A    between atoms: N_13  and  C_14
REMARK    7  A    between atoms: C_14  and  C_15
REMARK    8  A    between atoms: N_24  and  S_25
REMARK    9  A    between atoms: S_25  and  C_28
REMARK                            x       y       z     vdW  Elec       q    Type
REMARK                         _______ _______ _______ _____ _____    ______ ____
ROOT
ATOM      1  C   UNL     1       8.863  -2.049  -1.596  0.00  0.00    +0.262 C 
ATOM      2  O   UNL     1      10.019  -2.361  -1.384  0.00  0.00    -0.269 OA
ATOM      3  N   UNL     1       8.099  -1.573  -0.593  0.00  0.00    -0.231 N 
ATOM      4  H   UNL     1       7.177  -1.323  -0.763  0.00  0.00    +0.173 HD
ENDROOT
BRANCH   1   9
ATOM      5  C   UNL     1       6.449  -1.966  -4.467  0.00  0.00    +0.001 A 
ATOM      6  C   UNL     1       7.234  -2.454  -5.500  0.00  0.00    +0.002 A 
ATOM      7  C   UNL     1       8.546  -2.812  -5.270  0.00  0.00    +0.025 A 
ATOM      8  C   UNL     1       9.090  -2.684  -3.998  0.00  0.00    +0.060 A 
ATOM      9  C   UNL     1       8.298  -2.189  -2.951  0.00  0.00    +0.060 A 
ATOM     10  C   UNL     1       6.969  -1.837  -3.198  0.00  0.00    +0.015 A 
BRANCH   8  11
ATOM     11  N   UNL     1      10.411  -3.044  -3.765  0.00  0.00    -0.215 N 
ATOM     12  H   UNL     1      10.661  -3.450  -2.920  0.00  0.00    +0.174 HD
BRANCH  11  13
ATOM     13  S   UNL     1      11.560  -2.778  -4.928  0.00  0.00    +0.079 S 
ATOM     14  O   UNL     1      12.811  -3.119  -4.348  0.00  0.00    -0.149 OA
ATOM     15  O   UNL     1      11.080  -3.388  -6.119  0.00  0.00    -0.149 OA
BRANCH  13  16
ATOM     16  C   UNL     1      11.601  -1.043  -5.233  0.00  0.00    +0.146 A 
ATOM     17  C   UNL     1      12.353  -0.089  -4.632  0.00  0.00    +0.036 A 
ATOM     18  C   UNL     1      12.218   1.226  -5.039  0.00  0.00    +0.010 A 
ATOM     19  C   UNL     1      11.338   1.521  -6.027  0.00  0.00    +0.047 A 
ATOM     20  S   UNL     1      10.669  -0.087  -6.418  0.00  0.00    -0.077 S 
ENDBRANCH  13  16
ENDBRANCH  11  13
ENDBRANCH   8  11
ENDBRANCH   1   9
BRANCH   3  21
ATOM     21  N   UNL     1       8.636  -1.439   0.694  0.00  0.00    -0.246 N 
ATOM     22  H   UNL     1       9.557  -1.688   0.863  0.00  0.00    +0.172 HD
BRANCH  21  23
ATOM     23  C   UNL     1       7.871  -0.963   1.697  0.00  0.00    +0.147 C 
ATOM     24  S   UNL     1       8.527  -0.800   3.269  0.00  0.00    -0.017 S 
BRANCH  23  25
ATOM     25  N   UNL     1       6.590  -0.616   1.461  0.00  0.00    -0.321 N 
ATOM     26  H   UNL     1       6.218  -0.709   0.570  0.00  0.00    +0.148 HD
BRANCH  25  27
ATOM     27  C   UNL     1       5.759  -0.099   2.551  0.00  0.00    +0.138 C 
BRANCH  27  28
ATOM     28  C   UNL     1       4.380   0.211   2.028  0.00  0.00    -0.027 A 
ATOM     29  C   UNL     1       3.399  -0.763   2.051  0.00  0.00    +0.009 A 
ATOM     30  C   UNL     1       2.133  -0.484   1.572  0.00  0.00    +0.050 A 
ATOM     31  C   UNL     1       1.844   0.774   1.068  0.00  0.00    +0.166 A 
ATOM     32  C   UNL     1       2.832   1.755   1.046  0.00  0.00    +0.167 A 
ATOM     33  C   UNL     1       4.099   1.468   1.527  0.00  0.00    +0.054 A 
ATOM     34  O   UNL     1       2.305   2.894   0.508  0.00  0.00    -0.453 OA
ATOM     35  C   UNL     1       0.877   2.726   0.579  0.00  0.00    +0.466 C 
ATOM     36  O   UNL     1       0.697   1.298   0.544  0.00  0.00    -0.453 OA
ENDBRANCH  27  28
ENDBRANCH  25  27
ENDBRANCH  23  25
ENDBRANCH  21  23
ENDBRANCH   3  21
TORSDOF 9
