REMARK  Name = ZINC23872300
REMARK  8 active torsions:
REMARK  status: ('A' for Active; 'I' for Inactive)
REMARK    1  A    between atoms: C_1  and  C_2
REMARK    2  A    between atoms: C_2  and  N_3
REMARK    3  A    between atoms: C_13  and  S_16
REMARK    4  A    between atoms: S_16  and  C_17
REMARK    5  A    between atoms: C_17  and  C_19
REMARK    6  A    between atoms: C_17  and  C_20
REMARK    7  A    between atoms: N_22  and  C_23
REMARK    8  A    between atoms: C_23  and  C_24
REMARK                            x       y       z     vdW  Elec       q    Type
REMARK                         _______ _______ _______ _____ _____    ______ ____
ROOT
ATOM      1  S   UNL     1      10.010  -1.237   0.966  0.00  0.00    -0.072 S 
ENDROOT
BRANCH   1  12
ATOM      2  N   UNL     1      14.204  -1.843  -1.969  0.00  0.00    -0.324 N 
ATOM      3  C   UNL     1      14.384  -2.330  -3.254  0.00  0.00    +0.053 A 
ATOM      4  C   UNL     1      15.517  -2.493  -4.043  0.00  0.00    +0.026 A 
ATOM      5  C   UNL     1      15.405  -3.014  -5.315  0.00  0.00    +0.002 A 
ATOM      6  C   UNL     1      14.166  -3.380  -5.820  0.00  0.00    +0.001 A 
ATOM      7  C   UNL     1      13.031  -3.225  -5.053  0.00  0.00    +0.012 A 
ATOM      8  C   UNL     1      13.131  -2.700  -3.767  0.00  0.00    +0.029 A 
ATOM      9  C   UNL     1      12.147  -2.411  -2.709  0.00  0.00    +0.138 A 
ATOM     10  C   UNL     1      12.876  -1.883  -1.624  0.00  0.00    +0.165 A 
ATOM     11  N   UNL     1      12.211  -1.536  -0.526  0.00  0.00    -0.201 NA
ATOM     12  C   UNL     1      10.894  -1.696  -0.488  0.00  0.00    +0.212 A 
ATOM     13  N   UNL     1      10.230  -2.202  -1.522  0.00  0.00    -0.122 NA
ATOM     14  N   UNL     1      10.834  -2.547  -2.608  0.00  0.00    -0.143 NA
BRANCH   2  16
ATOM     15  C   UNL     1      15.832  -2.514  -0.272  0.00  0.00    +0.027 C 
ATOM     16  C   UNL     1      15.280  -1.354  -1.103  0.00  0.00    +0.120 C 
ENDBRANCH   2  16
ENDBRANCH   1  12
BRANCH   1  17
ATOM     17  C   UNL     1       8.326  -1.665   0.457  0.00  0.00    +0.137 C 
ATOM     18  C   UNL     1       8.224  -3.177   0.252  0.00  0.00    +0.029 C 
BRANCH  17  19
ATOM     19  C   UNL     1       7.355  -1.236   1.526  0.00  0.00    +0.226 C 
ATOM     20  O   UNL     1       7.746  -1.037   2.657  0.00  0.00    -0.275 OA
ATOM     21  N   UNL     1       6.051  -1.073   1.226  0.00  0.00    -0.310 N 
ATOM     22  H   UNL     1       5.696  -1.253   0.201  0.00  0.00    +0.149 HD
BRANCH  21  23
ATOM     23  C   UNL     1       5.107  -0.655   2.265  0.00  0.00    +0.139 C 
BRANCH  23  24
ATOM     24  C   UNL     1       3.725  -0.548   1.674  0.00  0.00    -0.027 A 
ATOM     25  C   UNL     1       2.885  -1.646   1.677  0.00  0.00    +0.009 A 
ATOM     26  C   UNL     1       1.617  -1.553   1.135  0.00  0.00    +0.050 A 
ATOM     27  C   UNL     1       1.183  -0.356   0.589  0.00  0.00    +0.166 A 
ATOM     28  C   UNL     1       2.028   0.751   0.586  0.00  0.00    +0.167 A 
ATOM     29  C   UNL     1       3.298   0.650   1.131  0.00  0.00    +0.054 A 
ATOM     30  O   UNL     1       1.376   1.797  -0.001  0.00  0.00    -0.453 OA
ATOM     31  C   UNL     1      -0.018   1.436   0.010  0.00  0.00    +0.466 C 
ATOM     32  O   UNL     1       0.002  -0.004   0.002  0.00  0.00    -0.453 OA
ENDBRANCH  23  24
ENDBRANCH  21  23
ENDBRANCH  17  19
ENDBRANCH   1  17
TORSDOF 6
