REMARK  Name = ZINC36249727
REMARK  11 active torsions:
REMARK  status: ('A' for Active; 'I' for Inactive)
REMARK    1  A    between atoms: C_4  and  C_7
REMARK    2  A    between atoms: C_7  and  C_8
REMARK    3  A    between atoms: C_8  and  C_10
REMARK    4  A    between atoms: C_8  and  O_38
REMARK    5  A    between atoms: C_10  and  N_11
REMARK    6  A    between atoms: N_11  and  C_12
REMARK    7  A    between atoms: N_11  and  C_31
REMARK    8  A    between atoms: C_12  and  C_13
REMARK    9  A    between atoms: C_14  and  C_24
REMARK   10  A    between atoms: C_17  and  N_18
REMARK   11  A    between atoms: C_31  and  C_32
REMARK                            x       y       z     vdW  Elec       q    Type
REMARK                         _______ _______ _______ _____ _____    ______ ____
ROOT
ATOM      1  N   UNL     1       5.256  -2.070   3.147  0.00  0.00    +0.386 N 
ATOM      2  H   UNL     1       4.610  -2.763   3.493  0.00  0.00    -0.081 HD
ENDROOT
BRANCH   1   3
ATOM      3  C   UNL     1       4.877  -1.685   1.781  0.00  0.00    -0.046 C 
BRANCH   3   4
ATOM      4  C   UNL     1       4.733  -2.940   0.918  0.00  0.00    +0.102 C 
BRANCH   4   5
ATOM      5  O   UNL     1       6.018  -3.536   0.727  0.00  0.00    -0.393 OA
ATOM      6  H   UNL     1       6.657  -2.959   0.287  0.00  0.00    +0.210 HD
ENDBRANCH   4   5
BRANCH   4   7
ATOM      7  C   UNL     1       4.140  -2.560  -0.440  0.00  0.00    +0.064 C 
BRANCH   7  11
ATOM      8  C   UNL     1       3.415  -6.099  -2.720  0.00  0.00    +0.000 A 
ATOM      9  C   UNL     1       2.430  -5.598  -1.889  0.00  0.00    +0.000 A 
ATOM     10  C   UNL     1       2.665  -4.453  -1.151  0.00  0.00    +0.004 A 
ATOM     11  C   UNL     1       3.884  -3.809  -1.244  0.00  0.00    -0.045 A 
ATOM     12  C   UNL     1       4.869  -4.310  -2.074  0.00  0.00    +0.004 A 
ATOM     13  C   UNL     1       4.634  -5.454  -2.813  0.00  0.00    +0.000 A 
ENDBRANCH   7  11
ENDBRANCH   4   7
ENDBRANCH   3   4
ENDBRANCH   1   3
BRANCH   1  14
ATOM     14  C   UNL     1       6.615  -2.629   3.138  0.00  0.00    -0.035 C 
BRANCH  14  15
ATOM     15  C   UNL     1       6.987  -3.067   4.531  0.00  0.00    +0.025 A 
ATOM     16  C   UNL     1       7.737  -2.319   5.463  0.00  0.00    +0.117 A 
ATOM     17  N   UNL     1       7.850  -3.035   6.558  0.00  0.00    -0.076 NA
ATOM     18  O   UNL     1       7.173  -4.261   6.352  0.00  0.00    -0.339 OA
ATOM     19  C   UNL     1       6.655  -4.248   5.112  0.00  0.00    +0.222 A 
BRANCH  16  20
ATOM     20  C   UNL     1       8.299  -0.963   5.244  0.00  0.00    +0.004 A 
ATOM     21  C   UNL     1       8.912  -0.648   4.033  0.00  0.00    +0.013 A 
ATOM     22  C   UNL     1       9.433   0.614   3.834  0.00  0.00    +0.039 A 
ATOM     23  C   UNL     1       9.347   1.567   4.835  0.00  0.00    +0.123 A 
ATOM     24  C   UNL     1       8.739   1.258   6.041  0.00  0.00    +0.039 A 
ATOM     25  C   UNL     1       8.210   0.000   6.247  0.00  0.00    +0.013 A 
ATOM     26  F   UNL     1       9.859   2.801   4.636  0.00  0.00    -0.205 F 
ENDBRANCH  16  20
BRANCH  19  27
ATOM     27  N   UNL     1       5.916  -5.261   4.529  0.00  0.00    -0.295 N 
ATOM     28  C   UNL     1       6.577  -6.388   3.852  0.00  0.00    +0.136 C 
ATOM     29  C   UNL     1       5.988  -7.693   4.398  0.00  0.00    +0.179 C 
ATOM     30  O   UNL     1       4.562  -7.643   4.301  0.00  0.00    -0.377 OA
ATOM     31  C   UNL     1       3.959  -6.605   5.079  0.00  0.00    +0.179 C 
ATOM     32  C   UNL     1       4.445  -5.247   4.572  0.00  0.00    +0.136 C 
ENDBRANCH  19  27
ENDBRANCH  14  15
ENDBRANCH   1  14
BRANCH   1  33
ATOM     33  C   UNL     1       5.219  -0.888   4.018  0.00  0.00    -0.046 C 
BRANCH  33  34
ATOM     34  C   UNL     1       3.776  -0.395   4.147  0.00  0.00    +0.102 C 
ATOM     35  C   UNL     1       3.733   0.873   5.026  0.00  0.00    +0.032 C 
ATOM     36  C   UNL     1       2.440   0.654   5.857  0.00  0.00    +0.030 C 
ATOM     37  C   UNL     1       2.458  -0.885   6.029  0.00  0.00    +0.160 C 
ATOM     38  O   UNL     1       2.977  -1.396   4.788  0.00  0.00    -0.378 OA
ENDBRANCH  33  34
ENDBRANCH   1  33
TORSDOF 11
