REMARK  Name = ZINC28296567
REMARK  9 active torsions:
REMARK  status: ('A' for Active; 'I' for Inactive)
REMARK    1  A    between atoms: C_4  and  C_7
REMARK    2  A    between atoms: N_18  and  C_26
REMARK    3  A    between atoms: C_19  and  C_20
REMARK    4  A    between atoms: C_26  and  C_27
REMARK    5  A    between atoms: C_27  and  C_29
REMARK    6  A    between atoms: C_27  and  O_38
REMARK    7  A    between atoms: C_29  and  N_30
REMARK    8  A    between atoms: N_30  and  C_31
REMARK    9  A    between atoms: C_31  and  C_32
REMARK                            x       y       z     vdW  Elec       q    Type
REMARK                         _______ _______ _______ _____ _____    ______ ____
ROOT
ATOM      1  C   UNL     1       0.947   3.405  -0.256  0.00  0.00    +0.015 A 
ATOM      2  C   UNL     1       1.121   1.970   0.009  0.00  0.00    +0.009 A 
ATOM      3  C   UNL     1       2.246   1.125   0.030  0.00  0.00    +0.011 A 
ATOM      4  C   UNL     1       2.119  -0.194   0.312  0.00  0.00    +0.009 A 
ATOM      5  C   UNL     1       0.849  -0.742   0.590  0.00  0.00    -0.016 A 
ATOM      6  C   UNL     1       0.703  -2.107   0.883  0.00  0.00    +0.008 A 
ATOM      7  C   UNL     1      -0.534  -2.614   1.149  0.00  0.00    +0.001 A 
ATOM      8  C   UNL     1      -1.660  -1.795   1.135  0.00  0.00    +0.001 A 
ATOM      9  C   UNL     1      -1.555  -0.466   0.853  0.00  0.00    +0.010 A 
ATOM     10  C   UNL     1      -0.297   0.088   0.575  0.00  0.00    +0.006 A 
ATOM     11  C   UNL     1      -0.153   1.464   0.280  0.00  0.00    +0.058 A 
ATOM     12  N   UNL     1      -1.052   2.497   0.187  0.00  0.00    -0.336 N 
ATOM     13  C   UNL     1      -0.403   3.664  -0.129  0.00  0.00    +0.058 A 
ENDROOT
BRANCH   1  17
ATOM     14  C   UNL     1       3.996   6.201  -1.224  0.00  0.00    +0.000 A 
ATOM     15  C   UNL     1       3.973   5.614   0.028  0.00  0.00    +0.001 A 
ATOM     16  C   UNL     1       2.985   4.705   0.349  0.00  0.00    +0.008 A 
ATOM     17  C   UNL     1       2.009   4.379  -0.593  0.00  0.00    -0.015 A 
ATOM     18  C   UNL     1       2.042   4.970  -1.856  0.00  0.00    +0.008 A 
ATOM     19  C   UNL     1       3.031   5.882  -2.163  0.00  0.00    +0.001 A 
ENDBRANCH   1  17
BRANCH  13  20
ATOM     20  C   UNL     1      -1.044   4.981  -0.309  0.00  0.00    -0.001 A 
ATOM     21  C   UNL     1      -2.138   5.118  -1.167  0.00  0.00    +0.010 A 
ATOM     22  C   UNL     1      -2.735   6.351  -1.325  0.00  0.00    +0.001 A 
ATOM     23  C   UNL     1      -2.247   7.453  -0.646  0.00  0.00    +0.000 A 
ATOM     24  C   UNL     1      -1.160   7.326   0.201  0.00  0.00    +0.001 A 
ATOM     25  C   UNL     1      -0.556   6.098   0.374  0.00  0.00    +0.010 A 
ENDBRANCH  13  20
BRANCH  12  26
ATOM     26  C   UNL     1      -2.497   2.373   0.395  0.00  0.00    +0.151 C 
BRANCH  26  27
ATOM     27  C   UNL     1      -2.825   2.645   1.865  0.00  0.00    +0.117 C 
BRANCH  27  28
ATOM     28  O   UNL     1      -2.237   1.630   2.680  0.00  0.00    -0.392 OA
ATOM     29  H   UNL     1      -2.366   1.659   3.772  0.00  0.00    +0.210 HD
ENDBRANCH  27  28
BRANCH  27  30
ATOM     30  C   UNL     1      -4.343   2.639   2.058  0.00  0.00    -0.049 C 
BRANCH  30  31
ATOM     31  N   UNL     1      -4.663   3.018   3.441  0.00  0.00    +0.382 N 
ATOM     32  H   UNL     1      -4.202   2.299   4.134  0.00  0.00    -0.086 HD
ATOM     33  H   UNL     1      -4.272   4.025   3.644  0.00  0.00    -0.086 HD
BRANCH  31  34
ATOM     34  C   UNL     1      -6.115   3.022   3.663  0.00  0.00    -0.051 C 
BRANCH  34  35
ATOM     35  C   UNL     1      -6.407   3.420   5.111  0.00  0.00    +0.101 C 
ATOM     36  C   UNL     1      -7.929   3.420   5.358  0.00  0.00    +0.032 C 
ATOM     37  C   UNL     1      -8.126   2.407   6.511  0.00  0.00    +0.030 C 
ATOM     38  C   UNL     1      -6.713   2.359   7.146  0.00  0.00    +0.160 C 
ATOM     39  O   UNL     1      -5.826   2.460   6.010  0.00  0.00    -0.378 OA
ENDBRANCH  34  35
ENDBRANCH  31  34
ENDBRANCH  30  31
ENDBRANCH  27  30
ENDBRANCH  26  27
ENDBRANCH  12  26
TORSDOF 9
