REMARK  Name = ZINC33437357
REMARK  6 active torsions:
REMARK  status: ('A' for Active; 'I' for Inactive)
REMARK    1  A    between atoms: C_1  and  C_2
REMARK    2  A    between atoms: C_7  and  C_8
REMARK    3  A    between atoms: C_16  and  C_17
REMARK    4  A    between atoms: C_20  and  C_22
REMARK    5  A    between atoms: C_25  and  S_28
REMARK    6  A    between atoms: S_28  and  N_31
REMARK                            x       y       z     vdW  Elec       q    Type
REMARK                         _______ _______ _______ _____ _____    ______ ____
ROOT
ATOM      1  C   UNL     1      -5.508   3.174   0.528  0.00  0.00    +0.183 A 
ATOM      2  N   UNL     1      -4.484   4.011   0.752  0.00  0.00    -0.200 NA
ATOM      3  C   UNL     1      -3.393   3.320   0.921  0.00  0.00    +0.200 A 
ATOM      4  N   UNL     1      -3.670   1.985   0.811  0.00  0.00    -0.169 N 
ATOM      5  N   UNL     1      -5.067   1.940   0.553  0.00  0.00    -0.141 NA
ATOM      6  C   UNL     1      -2.666   1.112   0.955  0.00  0.00    +0.288 A 
ATOM      7  O   UNL     1      -2.871  -0.086   0.864  0.00  0.00    -0.265 OA
ATOM      8  C   UNL     1      -1.357   1.601   1.217  0.00  0.00    +0.085 A 
ATOM      9  C   UNL     1      -0.185   0.904   1.401  0.00  0.00    +0.067 C 
ATOM     10  S   UNL     1      -1.647   3.364   1.250  0.00  0.00    -0.044 S 
ENDROOT
BRANCH   1  17
ATOM     11  C   UNL     1      -7.475   1.177  -0.187  0.00  0.00    +0.044 C 
ATOM     12  C   UNL     1      -7.869   2.626  -0.057  0.00  0.00    -0.040 A 
ATOM     13  C   UNL     1      -9.177   3.009  -0.273  0.00  0.00    +0.004 A 
ATOM     14  C   UNL     1      -9.539   4.339  -0.159  0.00  0.00    +0.000 A 
ATOM     15  C   UNL     1      -8.594   5.292   0.177  0.00  0.00    +0.001 A 
ATOM     16  C   UNL     1      -7.284   4.919   0.402  0.00  0.00    +0.012 A 
ATOM     17  C   UNL     1      -6.914   3.580   0.288  0.00  0.00    +0.024 A 
ENDBRANCH   1  17
BRANCH   9  18
ATOM     18  C   UNL     1       1.017   1.599   1.645  0.00  0.00    +0.130 A 
ATOM     19  C   UNL     1       2.260   1.025   1.847  0.00  0.00    +0.050 A 
ATOM     20  C   UNL     1       3.162   2.073   2.048  0.00  0.00    +0.050 A 
ATOM     21  C   UNL     1       2.441   3.244   1.972  0.00  0.00    +0.136 A 
ATOM     22  O   UNL     1       1.153   2.939   1.730  0.00  0.00    -0.455 OA
BRANCH  21  23
ATOM     23  C   UNL     1       2.990   4.604   2.130  0.00  0.00    +0.017 A 
ATOM     24  C   UNL     1       4.351   4.787   2.386  0.00  0.00    +0.013 A 
ATOM     25  C   UNL     1       4.858   6.062   2.527  0.00  0.00    +0.029 A 
ATOM     26  C   UNL     1       4.019   7.158   2.427  0.00  0.00    +0.105 A 
ATOM     27  C   UNL     1       2.669   6.985   2.179  0.00  0.00    +0.029 A 
ATOM     28  C   UNL     1       2.149   5.716   2.030  0.00  0.00    +0.013 A 
BRANCH  26  29
ATOM     29  S   UNL     1       4.675   8.783   2.616  0.00  0.00    +0.056 S 
ATOM     30  O   UNL     1       6.057   8.703   2.297  0.00  0.00    -0.153 OA
ATOM     31  O   UNL     1       3.786   9.661   1.937  0.00  0.00    -0.153 OA
BRANCH  29  32
ATOM     32  N   UNL     1       4.580   9.165   4.224  0.00  0.00    -0.204 NA
ATOM     33  H   UNL     1       4.981  10.176   4.385  0.00  0.00    +0.144 HD
ATOM     34  H   UNL     1       5.167   8.441   4.808  0.00  0.00    +0.144 HD
ENDBRANCH  29  32
ENDBRANCH  26  29
ENDBRANCH  21  23
ENDBRANCH   9  18
TORSDOF 5
