REMARK  Name = ZINC18233490
REMARK  10 active torsions:
REMARK  status: ('A' for Active; 'I' for Inactive)
REMARK    1  A    between atoms: C_1  and  C_2
REMARK    2  A    between atoms: C_2  and  C_3
REMARK    3  A    between atoms: C_2  and  C_4
REMARK    4  A    between atoms: C_4  and  C_5
REMARK    5  A    between atoms: C_5  and  C_7
REMARK    6  A    between atoms: C_5  and  N_17
REMARK    7  A    between atoms: C_18  and  C_20
REMARK    8  A    between atoms: C_22  and  S_29
REMARK    9  A    between atoms: C_25  and  N_26
REMARK   10  A    between atoms: S_29  and  C_30
REMARK                            x       y       z     vdW  Elec       q    Type
REMARK                         _______ _______ _______ _____ _____    ______ ____
ROOT
ATOM      1  C   UNL     1       1.323   0.258  -0.600  0.00  0.00    +0.139 C 
ENDROOT
BRANCH   1   2
ATOM      2  C   UNL     1       1.545  -0.237  -2.006  0.00  0.00    +0.129 A 
ATOM      3  N   UNL     1       2.125   0.484  -3.004  0.00  0.00    -0.340 N 
ATOM      4  H   UNL     1       2.462   1.391  -2.936  0.00  0.00    +0.167 HD
ATOM      5  C   UNL     1       2.144  -0.315  -4.129  0.00  0.00    +0.066 A 
ATOM      6  C   UNL     1       2.598  -0.142  -5.430  0.00  0.00    +0.028 A 
ATOM      7  C   UNL     1       2.464  -1.167  -6.342  0.00  0.00    +0.002 A 
ATOM      8  C   UNL     1       1.879  -2.369  -5.968  0.00  0.00    +0.002 A 
ATOM      9  C   UNL     1       1.427  -2.557  -4.693  0.00  0.00    +0.030 A 
ATOM     10  C   UNL     1       1.552  -1.532  -3.752  0.00  0.00    +0.089 A 
ATOM     11  N   UNL     1       1.215  -1.418  -2.441  0.00  0.00    -0.231 NA
ENDBRANCH   1   2
BRANCH   1  12
ATOM     12  N   UNL     1       2.135  -0.530   0.329  0.00  0.00    -0.301 N 
ATOM     13  C   UNL     1       2.508  -0.004   1.513  0.00  0.00    +0.247 C 
ATOM     14  O   UNL     1       2.170   1.126   1.808  0.00  0.00    -0.270 OA
ATOM     15  H   UNL     1       2.405  -1.432   0.093  0.00  0.00    +0.150 HD
BRANCH  13  16
ATOM     16  C   UNL     1       3.328  -0.800   2.451  0.00  0.00    +0.068 A 
ATOM     17  C   UNL     1       2.895  -2.060   2.863  0.00  0.00    +0.030 A 
ATOM     18  C   UNL     1       3.670  -2.801   3.743  0.00  0.00    +0.008 A 
ATOM     19  C   UNL     1       4.874  -2.287   4.210  0.00  0.00    +0.017 A 
ATOM     20  C   UNL     1       5.303  -1.038   3.802  0.00  0.00    +0.034 A 
ATOM     21  C   UNL     1       4.541  -0.296   2.922  0.00  0.00    +0.138 A 
BRANCH  21  22
ATOM     22  N   UNL     1       5.008   1.039   2.483  0.00  0.00    +0.057 N 
ATOM     23  O   UNL     1       5.994   1.529   2.984  0.00  0.00    -0.126 OA
ATOM     24  O   UNL     1       4.404   1.638   1.625  0.00  0.00    -0.126 OA
ENDBRANCH  21  22
BRANCH  18  25
ATOM     25  S   UNL     1       3.128  -4.393   4.268  0.00  0.00    -0.129 S 
ATOM     26  C   UNL     1       4.441  -4.957   5.385  0.00  0.00    +0.090 C 
ENDBRANCH  18  25
ENDBRANCH  13  16
ENDBRANCH   1  12
BRANCH   1  27
ATOM     27  C   UNL     1      -0.156   0.112  -0.235  0.00  0.00    +0.033 C 
BRANCH  27  29
ATOM     28  C   UNL     1      -0.150   2.236   1.081  0.00  0.00    +0.007 C 
ATOM     29  C   UNL     1      -0.405   0.728   1.143  0.00  0.00    -0.015 C 
ATOM     30  C   UNL     1      -1.854   0.473   1.562  0.00  0.00    +0.007 C 
ENDBRANCH  27  29
ENDBRANCH   1  27
TORSDOF 7
