REMARK  Name = ZINC63393538
REMARK  7 active torsions:
REMARK  status: ('A' for Active; 'I' for Inactive)
REMARK    1  A    between atoms: C_1  and  O_2
REMARK    2  A    between atoms: O_2  and  C_3
REMARK    3  A    between atoms: C_8  and  N_9
REMARK    4  A    between atoms: C_10  and  C_12
REMARK    5  A    between atoms: N_17  and  C_19
REMARK    6  A    between atoms: C_19  and  C_20
REMARK    7  A    between atoms: C_20  and  C_21
REMARK                            x       y       z     vdW  Elec       q    Type
REMARK                         _______ _______ _______ _____ _____    ______ ____
ROOT
ATOM      1  C   UNL     1       1.148  -4.922   0.180  0.00  0.00    +0.101 C 
ATOM      2  C   UNL     1       1.988  -4.784  -1.111  0.00  0.00    +0.110 C 
ATOM      3  C   UNL     1       2.592  -6.156  -1.310  0.00  0.00    +0.216 C 
ATOM      4  O   UNL     1       3.528  -6.404  -2.040  0.00  0.00    -0.276 OA
ATOM      5  N   UNL     1       1.939  -7.061  -0.560  0.00  0.00    -0.300 N 
ATOM      6  C   UNL     1       0.850  -6.438   0.202  0.00  0.00    +0.121 C 
ENDROOT
BRANCH   1   8
ATOM      7  N   UNL     1      -0.073  -2.780  -0.012  0.00  0.00    -0.282 N 
ATOM      8  C   UNL     1      -0.126  -4.123   0.083  0.00  0.00    +0.222 C 
ATOM      9  O   UNL     1      -1.199  -4.689   0.090  0.00  0.00    -0.275 OA
ATOM     10  H   UNL     1       0.783  -2.333  -0.099  0.00  0.00    +0.155 HD
BRANCH   7  16
ATOM     11  C   UNL     1      -1.295  -0.766  -0.572  0.00  0.00    +0.141 A 
ATOM     12  C   UNL     1      -2.468  -0.030  -0.548  0.00  0.00    +0.049 A 
ATOM     13  C   UNL     1      -3.596  -0.546   0.061  0.00  0.00    +0.024 A 
ATOM     14  C   UNL     1      -3.558  -1.798   0.649  0.00  0.00    +0.043 A 
ATOM     15  C   UNL     1      -2.390  -2.539   0.629  0.00  0.00    +0.047 A 
ATOM     16  C   UNL     1      -1.256  -2.029   0.014  0.00  0.00    +0.077 A 
ATOM     17 CL   UNL     1      -4.978  -2.441   1.413  0.00  0.00    -0.083 Cl
BRANCH  11  19
ATOM     18  C   UNL     1      -0.297   1.042  -1.753  0.00  0.00    +0.277 C 
ATOM     19  O   UNL     1      -0.184  -0.259  -1.172  0.00  0.00    -0.493 OA
ENDBRANCH  11  19
ENDBRANCH   7  16
ENDBRANCH   1   8
BRANCH   5  20
ATOM     20  C   UNL     1       2.272  -8.487  -0.509  0.00  0.00    +0.112 C 
BRANCH  20  21
ATOM     21  C   UNL     1       3.296  -8.732   0.602  0.00  0.00    +0.052 C 
BRANCH  21  22
ATOM     22  C   UNL     1       3.638 -10.199   0.654  0.00  0.00    -0.040 C 
ATOM     23  C   UNL     1       4.686 -10.811   0.057  0.00  0.00    +0.002 A 
ATOM     24  C   UNL     1       5.778 -10.313  -0.788  0.00  0.00    +0.048 A 
ATOM     25  C   UNL     1       6.702 -11.188  -1.250  0.00  0.00    +0.124 A 
ATOM     26  C   UNL     1       6.641 -12.556  -0.940  0.00  0.00    +0.040 A 
ATOM     27  C   UNL     1       5.668 -13.086  -0.170  0.00  0.00    +0.029 A 
ATOM     28  C   UNL     1       4.645 -12.257   0.368  0.00  0.00    +0.043 A 
ATOM     29  N   UNL     1       3.612 -12.529   1.129  0.00  0.00    -0.380 N 
ATOM     30  C   UNL     1       2.884 -11.283   1.391  0.00  0.00    +0.144 C 
ATOM     31  F   UNL     1       7.708 -10.733  -2.028  0.00  0.00    -0.205 F 
ATOM     32  H   UNL     1       3.372 -13.407   1.464  0.00  0.00    +0.160 HD
ENDBRANCH  21  22
ENDBRANCH  20  21
ENDBRANCH   5  20
TORSDOF 6
