REMARK  Name = ZINC49671274
REMARK  5 active torsions:
REMARK  status: ('A' for Active; 'I' for Inactive)
REMARK    1  A    between atoms: C_5  and  C_7
REMARK    2  A    between atoms: C_7  and  C_8
REMARK    3  A    between atoms: C_10  and  C_13
REMARK    4  A    between atoms: C_16  and  N_20
REMARK    5  A    between atoms: C_18  and  O_19
REMARK                            x       y       z     vdW  Elec       q    Type
REMARK                         _______ _______ _______ _____ _____    ______ ____
ROOT
ATOM      1  C   UNL     1       1.372  -2.695   1.389  0.00  0.00    +0.176 A 
ATOM      2  N   UNL     1       2.529  -2.936   2.010  0.00  0.00    -0.191 NA
ATOM      3  C   UNL     1       2.301  -3.370   3.232  0.00  0.00    +0.262 A 
ATOM      4  O   UNL     1       0.969  -3.414   3.414  0.00  0.00    -0.333 OA
ATOM      5  N   UNL     1       0.388  -2.964   2.200  0.00  0.00    -0.061 NA
ENDROOT
BRANCH   3   6
ATOM      6  C   UNL     1       3.325  -3.743   4.224  0.00  0.00    +0.081 A 
ATOM      7  C   UNL     1       4.682  -3.644   3.903  0.00  0.00    +0.019 A 
ATOM      8  C   UNL     1       5.635  -3.992   4.832  0.00  0.00    +0.024 A 
ATOM      9  C   UNL     1       5.253  -4.443   6.093  0.00  0.00    +0.028 A 
ATOM     10  C   UNL     1       3.907  -4.546   6.421  0.00  0.00    +0.069 A 
ATOM     11  C   UNL     1       2.941  -4.193   5.496  0.00  0.00    +0.131 A 
BRANCH   9  12
ATOM     12  N   UNL     1       6.224  -4.794   7.028  0.00  0.00    -0.358 N 
ATOM     13  H   UNL     1       7.164  -4.723   6.800  0.00  0.00    +0.142 HD
ATOM     14  H   UNL     1       5.960  -5.109   7.907  0.00  0.00    +0.142 HD
ENDBRANCH   9  12
BRANCH  11  15
ATOM     15  O   UNL     1       1.625  -4.286   5.817  0.00  0.00    -0.506 OA
ATOM     16  H   UNL     1       1.231  -5.145   5.611  0.00  0.00    +0.292 HD
ENDBRANCH  11  15
ENDBRANCH   3   6
BRANCH   1  17
ATOM     17  C   UNL     1       1.228  -2.186  -0.022  0.00  0.00    +0.117 C 
BRANCH  17  22
ATOM     18  C   UNL     1      -0.017   1.378   0.010  0.00  0.00    +0.000 A 
ATOM     19  C   UNL     1       1.171   2.087   0.002  0.00  0.00    +0.003 A 
ATOM     20  C   UNL     1       2.377   1.414  -0.013  0.00  0.00    +0.038 A 
ATOM     21  C   UNL     1       2.397   0.029  -0.021  0.00  0.00    +0.127 A 
ATOM     22  C   UNL     1       1.208  -0.679  -0.013  0.00  0.00    -0.005 A 
ATOM     23  C   UNL     1       0.002  -0.004   0.002  0.00  0.00    +0.007 A 
ATOM     24  F   UNL     1       3.577  -0.630  -0.036  0.00  0.00    -0.205 F 
ENDBRANCH  17  22
ENDBRANCH   1  17
TORSDOF 5
