REMARK  Name = ZINC35037053
REMARK  14 active torsions:
REMARK  status: ('A' for Active; 'I' for Inactive)
REMARK    1  A    between atoms: C_1  and  C_2
REMARK    2  A    between atoms: C_2  and  C_3
REMARK    3  A    between atoms: C_3  and  N_4
REMARK    4  A    between atoms: C_14  and  C_15
REMARK    5  A    between atoms: C_15  and  C_17
REMARK    6  A    between atoms: C_15  and  N_19
REMARK    7  A    between atoms: C_17  and  C_18
REMARK    8  A    between atoms: N_19  and  C_20
REMARK    9  A    between atoms: C_20  and  C_21
REMARK   10  A    between atoms: C_21  and  N_22
REMARK   11  A    between atoms: N_22  and  C_23
REMARK   12  A    between atoms: N_22  and  C_24
REMARK   13  A    between atoms: N_27  and  C_28
REMARK   14  A    between atoms: C_31  and  C_34
REMARK                            x       y       z     vdW  Elec       q    Type
REMARK                         _______ _______ _______ _____ _____    ______ ____
ROOT
ATOM      1  N   UNL     1      -1.164  -3.118   3.521  0.00  0.00    -0.277 N 
ATOM      2  C   UNL     1      -2.106  -3.160   4.484  0.00  0.00    +0.307 C 
ATOM      3  O   UNL     1      -3.105  -2.474   4.388  0.00  0.00    -0.252 OA
ATOM      4  N   UNL     1      -1.940  -3.962   5.554  0.00  0.00    -0.269 N 
ATOM      5  H   UNL     1      -1.111  -4.453   5.669  0.00  0.00    +0.156 HD
ENDROOT
BRANCH   4   6
ATOM      6  C   UNL     1      -2.963  -4.088   6.500  0.00  0.00    +0.035 A 
ATOM      7  C   UNL     1      -2.653  -4.287   7.839  0.00  0.00    +0.023 A 
ATOM      8  C   UNL     1      -3.666  -4.411   8.770  0.00  0.00    +0.005 A 
ATOM      9  C   UNL     1      -4.988  -4.336   8.370  0.00  0.00    -0.050 A 
ATOM     10  C   UNL     1      -5.300  -4.139   7.037  0.00  0.00    +0.005 A 
ATOM     11  C   UNL     1      -4.292  -4.009   6.102  0.00  0.00    +0.023 A 
ATOM     12  C   UNL     1      -6.090  -4.471   9.388  0.00  0.00    +0.044 C 
ENDBRANCH   4   6
BRANCH   1  13
ATOM     13  C   UNL     1      -1.344  -2.246   2.358  0.00  0.00    +0.143 C 
BRANCH  13  24
ATOM     14  N   UNL     1      -2.503  -3.154   0.385  0.00  0.00    -0.295 N 
ATOM     15  C   UNL     1      -2.560  -3.884  -0.753  0.00  0.00    +0.262 A 
ATOM     16  O   UNL     1      -3.583  -3.956  -1.408  0.00  0.00    -0.267 OA
ATOM     17  C   UNL     1      -1.336  -4.586  -1.169  0.00  0.00    +0.065 A 
ATOM     18  C   UNL     1      -1.289  -5.363  -2.324  0.00  0.00    +0.015 A 
ATOM     19  C   UNL     1      -0.116  -5.999  -2.667  0.00  0.00    +0.001 A 
ATOM     20  C   UNL     1       1.016  -5.871  -1.871  0.00  0.00    +0.002 A 
ATOM     21  C   UNL     1       0.989  -5.108  -0.725  0.00  0.00    +0.028 A 
ATOM     22  C   UNL     1      -0.188  -4.454  -0.357  0.00  0.00    +0.078 A 
ATOM     23  N   UNL     1      -0.258  -3.691   0.763  0.00  0.00    -0.232 NA
ATOM     24  C   UNL     1      -1.351  -3.078   1.102  0.00  0.00    +0.134 A 
BRANCH  14  25
ATOM     25  C   UNL     1      -3.693  -2.434   0.846  0.00  0.00    +0.126 C 
BRANCH  25  27
ATOM     26  C   UNL     1      -4.931  -0.267   0.734  0.00  0.00    +0.005 C 
ATOM     27  C   UNL     1      -3.634  -0.985   0.357  0.00  0.00    +0.018 C 
ENDBRANCH  25  27
ENDBRANCH  14  25
ENDBRANCH  13  24
BRANCH  13  28
ATOM     28  C   UNL     1      -0.196  -1.236   2.294  0.00  0.00    +0.027 C 
ATOM     29  C   UNL     1      -0.256  -0.318   3.516  0.00  0.00    +0.006 C 
ENDBRANCH  13  28
ENDBRANCH   1  13
BRANCH   1  30
ATOM     30  C   UNL     1       0.041  -3.944   3.637  0.00  0.00    +0.091 C 
BRANCH  30  31
ATOM     31  C   UNL     1       1.127  -3.161   4.377  0.00  0.00    -0.060 C 
BRANCH  31  32
ATOM     32  N   UNL     1       2.334  -3.989   4.494  0.00  0.00    +0.377 N 
ATOM     33  C   UNL     1       3.415  -3.198   5.096  0.00  0.00    -0.097 C 
ATOM     34  C   UNL     1       2.049  -5.154   5.342  0.00  0.00    -0.097 C 
ATOM     35  H   UNL     1       2.617  -4.302   3.577  0.00  0.00    -0.083 HD
ENDBRANCH  31  32
ENDBRANCH  30  31
ENDBRANCH   1  30
TORSDOF 9
