REMARK  Name = ZINC59982506
REMARK  11 active torsions:
REMARK  status: ('A' for Active; 'I' for Inactive)
REMARK    1  A    between atoms: C_1  and  C_2
REMARK    2  A    between atoms: C_5  and  C_32
REMARK    3  A    between atoms: N_8  and  C_10
REMARK    4  A    between atoms: C_10  and  C_11
REMARK    5  A    between atoms: C_10  and  C_12
REMARK    6  A    between atoms: C_10  and  C_13
REMARK    7  A    between atoms: C_13  and  N_14
REMARK    8  A    between atoms: C_15  and  C_17
REMARK    9  A    between atoms: C_17  and  C_18
REMARK   10  A    between atoms: C_21  and  S_23
REMARK   11  A    between atoms: S_23  and  N_26
REMARK                            x       y       z     vdW  Elec       q    Type
REMARK                         _______ _______ _______ _____ _____    ______ ____
ROOT
ATOM      1  N   UNL     1       2.801  -0.371   2.305  0.00  0.00    -0.316 N 
ATOM      2  C   UNL     1       3.883   0.403   2.090  0.00  0.00    +0.218 C 
ATOM      3  O   UNL     1       4.953  -0.107   1.837  0.00  0.00    -0.275 OA
ATOM      4  H   UNL     1       1.945   0.037   2.508  0.00  0.00    +0.149 HD
ENDROOT
BRANCH   1   5
ATOM      5  C   UNL     1       2.918  -1.830   2.232  0.00  0.00    +0.092 C 
BRANCH   5   6
ATOM      6  C   UNL     1       1.589  -2.469   2.639  0.00  0.00    -0.055 C 
ATOM      7  C   UNL     1       1.737  -3.992   2.646  0.00  0.00    -0.008 C 
ATOM      8  C   UNL     1       0.503  -2.067   1.639  0.00  0.00    -0.008 C 
BRANCH   6  14
ATOM      9  C   UNL     1       3.028  -2.192   7.310  0.00  0.00    +0.005 C 
ATOM     10  C   UNL     1       1.925  -1.815   6.319  0.00  0.00    -0.031 C 
ATOM     11  C   UNL     1       0.594  -2.417   6.782  0.00  0.00    +0.003 C 
ATOM     12  C   UNL     1      -0.486  -2.100   5.744  0.00  0.00    -0.031 C 
ATOM     13  C   UNL     1      -0.049  -2.639   4.380  0.00  0.00    -0.075 C 
ATOM     14  N   UNL     1       1.214  -2.007   3.982  0.00  0.00    +0.384 N 
ATOM     15  C   UNL     1       2.273  -2.364   4.934  0.00  0.00    -0.075 C 
ATOM     16  C   UNL     1      -1.802  -2.762   6.159  0.00  0.00    +0.005 C 
ATOM     17  H   UNL     1       1.098  -1.005   3.971  0.00  0.00    -0.081 HD
ENDBRANCH   6  14
ENDBRANCH   5   6
ENDBRANCH   1   5
BRANCH   2  18
ATOM     18  C   UNL     1       3.762   1.904   2.165  0.00  0.00    +0.138 C 
BRANCH  18  19
ATOM     19  C   UNL     1       5.105   2.530   1.888  0.00  0.00    +0.000 A 
ATOM     20  C   UNL     1       5.635   2.923   0.704  0.00  0.00    +0.013 A 
ATOM     21  C   UNL     1       6.900   3.480   0.688  0.00  0.00    +0.036 A 
ATOM     22  C   UNL     1       7.572   3.618   1.857  0.00  0.00    +0.143 A 
ATOM     23  S   UNL     1       6.405   2.954   3.034  0.00  0.00    -0.073 S 
BRANCH  22  24
ATOM     24  S   UNL     1       9.178   4.285   2.142  0.00  0.00    +0.067 S 
ATOM     25  O   UNL     1       9.643   3.719   3.359  0.00  0.00    -0.152 OA
ATOM     26  O   UNL     1       9.893   4.158   0.920  0.00  0.00    -0.152 OA
BRANCH  24  27
ATOM     27  N   UNL     1       8.993   5.908   2.414  0.00  0.00    -0.176 NA
ATOM     28  C   UNL     1       9.030   6.864   1.299  0.00  0.00    +0.109 C 
ATOM     29  C   UNL     1       7.763   7.723   1.344  0.00  0.00    +0.017 C 
ATOM     30  C   UNL     1       7.640   8.373   2.724  0.00  0.00    +0.003 C 
ATOM     31  C   UNL     1       7.524   7.284   3.794  0.00  0.00    +0.017 C 
ATOM     32  C   UNL     1       8.782   6.419   3.776  0.00  0.00    +0.109 C 
ENDBRANCH  24  27
ENDBRANCH  22  24
ENDBRANCH  18  19
ENDBRANCH   2  18
TORSDOF 7
