REMARK  Name = ZINC04583730
REMARK  9 active torsions:
REMARK  status: ('A' for Active; 'I' for Inactive)
REMARK    1  A    between atoms: C_1  and  C_2
REMARK    2  A    between atoms: N_5  and  C_9
REMARK    3  A    between atoms: C_6  and  C_8
REMARK    4  A    between atoms: C_9  and  C_10
REMARK    5  A    between atoms: C_10  and  C_25
REMARK    6  A    between atoms: N_11  and  N_12
REMARK    7  A    between atoms: N_12  and  C_13
REMARK    8  A    between atoms: C_16  and  N_22
REMARK    9  A    between atoms: C_18  and  N_19
REMARK                            x       y       z     vdW  Elec       q    Type
REMARK                         _______ _______ _______ _____ _____    ______ ____
ROOT
ATOM      1  C   UNL     1       2.340   4.414   0.251  0.00  0.00    +0.086 C 
ATOM      2  N   UNL     1       3.488   3.840   0.056  0.00  0.00    -0.185 NA
ENDROOT
BRANCH   1   3
ATOM      3  C   UNL     1       1.137   3.595   0.486  0.00  0.00    +0.001 A 
ATOM      4  C   UNL     1       1.223   2.421   1.239  0.00  0.00    +0.011 A 
ATOM      5  C   UNL     1       0.094   1.659   1.455  0.00  0.00    +0.022 A 
ATOM      6  C   UNL     1      -1.123   2.052   0.924  0.00  0.00    +0.059 A 
ATOM      7  C   UNL     1      -1.217   3.218   0.181  0.00  0.00    +0.060 A 
ATOM      8  C   UNL     1      -0.095   3.990  -0.043  0.00  0.00    +0.031 A 
ATOM      9 CL   UNL     1      -2.749   3.706  -0.475  0.00  0.00    -0.082 Cl
ATOM     10 CL   UNL     1      -2.537   1.083   1.195  0.00  0.00    -0.082 Cl
ENDBRANCH   1   3
BRANCH   2  11
ATOM     11  N   UNL     1       3.562   2.447  -0.070  0.00  0.00    -0.235 N 
ATOM     12  H   UNL     1       2.755   1.911  -0.012  0.00  0.00    +0.174 HD
BRANCH  11  13
ATOM     13  C   UNL     1       4.795   1.829  -0.280  0.00  0.00    +0.079 A 
ATOM     14  C   UNL     1       5.965   2.581  -0.249  0.00  0.00    +0.029 A 
ATOM     15  C   UNL     1       7.184   1.967  -0.457  0.00  0.00    +0.035 A 
ATOM     16  C   UNL     1       7.242   0.605  -0.696  0.00  0.00    +0.128 A 
ATOM     17  C   UNL     1       6.081  -0.145  -0.727  0.00  0.00    +0.067 A 
ATOM     18  C   UNL     1       4.859   0.461  -0.515  0.00  0.00    +0.151 A 
BRANCH  18  19
ATOM     19  N   UNL     1       3.617  -0.344  -0.543  0.00  0.00    +0.058 N 
ATOM     20  O   UNL     1       3.680  -1.558  -0.628  0.00  0.00    -0.126 OA
ATOM     21  O   UNL     1       2.533   0.206  -0.481  0.00  0.00    -0.126 OA
ENDBRANCH  18  19
BRANCH  16  22
ATOM     22  N   UNL     1       8.551  -0.049  -0.918  0.00  0.00    +0.056 N 
ATOM     23  O   UNL     1       9.575   0.610  -0.890  0.00  0.00    -0.126 OA
ATOM     24  O   UNL     1       8.605  -1.248  -1.128  0.00  0.00    -0.126 OA
ENDBRANCH  16  22
ENDBRANCH  11  13
ENDBRANCH   2  11
BRANCH   1  25
ATOM     25  C   UNL     1       2.237   5.918   0.237  0.00  0.00    +0.179 C 
BRANCH  25  30
ATOM     26  C   UNL     1       7.287   8.153  -1.196  0.00  0.00    +0.044 C 
ATOM     27  C   UNL     1       5.953   7.563  -0.818  0.00  0.00    -0.047 A 
ATOM     28  C   UNL     1       5.607   7.387   0.513  0.00  0.00    +0.021 A 
ATOM     29  C   UNL     1       4.375   6.842   0.822  0.00  0.00    +0.086 A 
ATOM     30  N   UNL     1       3.534   6.492  -0.131  0.00  0.00    -0.345 N 
ATOM     31  C   UNL     1       3.832   6.640  -1.407  0.00  0.00    +0.016 A 
ATOM     32  C   UNL     1       5.043   7.183  -1.792  0.00  0.00    +0.024 A 
ATOM     33  C   UNL     1       2.837   6.218  -2.458  0.00  0.00    +0.063 C 
ENDBRANCH  25  30
ENDBRANCH   1  25
TORSDOF 7
