REMARK  Name = ZINC09308432
REMARK  5 active torsions:
REMARK  status: ('A' for Active; 'I' for Inactive)
REMARK    1  A    between atoms: C_1  and  C_2
REMARK    2  A    between atoms: C_9  and  S_11
REMARK    3  A    between atoms: S_11  and  C_12
REMARK    4  A    between atoms: C_12  and  C_13
REMARK    5  A    between atoms: N_15  and  C_16
REMARK                            x       y       z     vdW  Elec       q    Type
REMARK                         _______ _______ _______ _____ _____    ______ ____
ROOT
ATOM      1  S   UNL     1       0.113  -5.570   2.704  0.00  0.00    -0.077 S 
ENDROOT
BRANCH   1  10
ATOM      2  C   UNL     1       0.058   1.501   0.007  0.00  0.00    +0.067 C 
ATOM      3  C   UNL     1       0.070  -0.006  -0.000  0.00  0.00    +0.055 A 
ATOM      4  C   UNL     1       0.076  -0.678  -1.212  0.00  0.00    +0.041 A 
ATOM      5  C   UNL     1       0.088  -2.064  -1.222  0.00  0.00    +0.048 A 
ATOM      6  C   UNL     1       0.092  -2.729  -0.005  0.00  0.00    +0.112 A 
ATOM      7  C   UNL     1       0.086  -1.987   1.189  0.00  0.00    +0.181 A 
ATOM      8  N   UNL     1       0.080  -0.656   1.144  0.00  0.00    -0.230 NA
ATOM      9  N   UNL     1       0.092  -2.880   2.210  0.00  0.00    -0.201 NA
ATOM     10  C   UNL     1       0.102  -4.101   1.731  0.00  0.00    +0.191 A 
ATOM     11  N   UNL     1       0.103  -4.063   0.366  0.00  0.00    -0.219 NA
ATOM     12 BR   UNL     1       0.069   0.288  -2.837  0.00  0.00    -0.048 Br
ENDBRANCH   1  10
BRANCH   1  13
ATOM     13  C   UNL     1       0.106  -4.965   4.414  0.00  0.00    +0.173 C 
BRANCH  13  14
ATOM     14  C   UNL     1       0.115  -6.136   5.361  0.00  0.00    +0.228 C 
ATOM     15  O   UNL     1       0.124  -7.269   4.926  0.00  0.00    -0.275 OA
ATOM     16  N   UNL     1       0.111  -5.926   6.693  0.00  0.00    -0.284 N 
ATOM     17  H   UNL     1       0.169  -5.023   7.041  0.00  0.00    +0.155 HD
BRANCH  16  18
ATOM     18  C   UNL     1       0.024  -7.012   7.572  0.00  0.00    +0.047 A 
ATOM     19  C   UNL     1       0.630  -8.219   7.250  0.00  0.00    +0.024 A 
ATOM     20  C   UNL     1       0.543  -9.288   8.120  0.00  0.00    +0.002 A 
ATOM     21  C   UNL     1      -0.148  -9.158   9.311  0.00  0.00    +0.001 A 
ATOM     22  C   UNL     1      -0.754  -7.958   9.635  0.00  0.00    +0.017 A 
ATOM     23  C   UNL     1      -0.665  -6.882   8.772  0.00  0.00    +0.039 A 
ATOM     24 BR   UNL     1      -1.487  -5.239   9.219  0.00  0.00    -0.048 Br
ENDBRANCH  16  18
ENDBRANCH  13  14
ENDBRANCH   1  13
TORSDOF 4
