REMARK  Name = ZINC04012575
REMARK  12 active torsions:
REMARK  status: ('A' for Active; 'I' for Inactive)
REMARK    1  A    between atoms: C_1  and  C_2
REMARK    2  A    between atoms: C_2  and  C_3
REMARK    3  A    between atoms: C_2  and  C_4
REMARK    4  A    between atoms: C_2  and  C_5
REMARK    5  A    between atoms: C_5  and  C_7
REMARK    6  A    between atoms: C_5  and  N_17
REMARK    7  A    between atoms: C_8  and  C_9
REMARK    8  A    between atoms: C_18  and  C_22
REMARK    9  A    between atoms: C_22  and  C_24
REMARK   10  A    between atoms: C_22  and  N_57
REMARK   11  A    between atoms: C_31  and  N_57
REMARK   12  A    between atoms: C_32  and  N_57
REMARK                            x       y       z     vdW  Elec       q    Type
REMARK                         _______ _______ _______ _____ _____    ______ ____
ROOT
ATOM      1  N   UNL     1       2.320  -0.245  -1.523  0.00  0.00    -0.223 N 
ATOM      2  C   UNL     1       2.775   0.655  -2.414  0.00  0.00    +0.143 A 
ATOM      3  N   UNL     1       4.048   0.831  -2.154  0.00  0.00    -0.115 NA
ATOM      4  N   UNL     1       4.360   0.072  -1.160  0.00  0.00    -0.023 NA
ATOM      5  N   UNL     1       3.318  -0.580  -0.777  0.00  0.00    -0.043 NA
ENDROOT
BRANCH   1   6
ATOM      6  C   UNL     1       0.950  -0.755  -1.424  0.00  0.00    +0.139 C 
BRANCH   6   8
ATOM      7  C   UNL     1       0.380   1.089   0.164  0.00  0.00    +0.013 C 
ATOM      8  C   UNL     1       0.383  -0.427  -0.041  0.00  0.00    -0.012 C 
ATOM      9  C   UNL     1       1.251  -1.085   1.035  0.00  0.00    +0.013 C 
ATOM     10  C   UNL     1      -1.048  -0.959   0.063  0.00  0.00    +0.013 C 
ENDBRANCH   6   8
BRANCH   6  11
ATOM     11  C   UNL     1       0.953  -2.248  -1.625  0.00  0.00    +0.001 C 
ATOM     12  C   UNL     1       0.265  -2.784  -2.623  0.00  0.00    +0.007 C 
BRANCH  12  13
ATOM     13  C   UNL     1       0.268  -4.249  -2.820  0.00  0.00    -0.007 A 
ATOM     14  C   UNL     1       0.999  -5.070  -1.960  0.00  0.00    +0.011 A 
ATOM     15  C   UNL     1       0.994  -6.437  -2.146  0.00  0.00    +0.020 A 
ATOM     16  C   UNL     1       0.275  -6.995  -3.189  0.00  0.00    +0.042 A 
ATOM     17  C   UNL     1      -0.448  -6.186  -4.049  0.00  0.00    +0.040 A 
ATOM     18  C   UNL     1      -0.456  -4.816  -3.871  0.00  0.00    +0.049 A 
ATOM     19 CL   UNL     1      -1.362  -3.803  -4.950  0.00  0.00    -0.083 Cl
ATOM     20 CL   UNL     1       0.279  -8.715  -3.419  0.00  0.00    -0.083 Cl
ENDBRANCH  12  13
ENDBRANCH   6  11
ENDBRANCH   1   6
BRANCH   2  21
ATOM     21  C   UNL     1       1.977   1.332  -3.498  0.00  0.00    +0.033 C 
BRANCH  21  22
ATOM     22  C   UNL     1       1.723   2.767  -3.113  0.00  0.00    -0.054 A 
ATOM     23  C   UNL     1       2.748   3.692  -3.180  0.00  0.00    +0.004 A 
ATOM     24  C   UNL     1       2.515   5.009  -2.833  0.00  0.00    +0.020 A 
ATOM     25  C   UNL     1       1.258   5.399  -2.407  0.00  0.00    +0.041 A 
ATOM     26  C   UNL     1       0.233   4.472  -2.335  0.00  0.00    +0.020 A 
ATOM     27  C   UNL     1       0.467   3.156  -2.688  0.00  0.00    +0.004 A 
ATOM     28 CL   UNL     1       0.965   7.052  -1.965  0.00  0.00    -0.084 Cl
ENDBRANCH  21  22
BRANCH  21  31
ATOM     29  C   UNL     1       3.080  -0.092  -5.115  0.00  0.00    -0.095 C 
ATOM     30  C   UNL     1       1.976   1.936  -5.842  0.00  0.00    -0.095 C 
ATOM     31  N   UNL     1       2.752   1.303  -4.755  0.00  0.00    +0.385 N 
ATOM     32  H   UNL     1       3.626   1.827  -4.621  0.00  0.00    -0.081 HD
ENDBRANCH  21  31
ENDBRANCH   2  21
TORSDOF 7
