REMARK  Name = ZINC39482446
REMARK  8 active torsions:
REMARK  status: ('A' for Active; 'I' for Inactive)
REMARK    1  A    between atoms: C_4  and  O_7
REMARK    2  A    between atoms: O_7  and  S_8
REMARK    3  A    between atoms: S_8  and  S_11
REMARK    4  A    between atoms: S_11  and  N_14
REMARK    5  A    between atoms: N_14  and  C_15
REMARK    6  A    between atoms: C_18  and  C_29
REMARK    7  A    between atoms: C_20  and  N_21
REMARK    8  A    between atoms: C_34  and  O_35
REMARK                            x       y       z     vdW  Elec       q    Type
REMARK                         _______ _______ _______ _____ _____    ______ ____
ROOT
ATOM      1  C   UNL     1       3.633  -1.841   4.607  0.00  0.00    +0.070 A 
ATOM      2  C   UNL     1       2.537  -1.001   4.742  0.00  0.00    +0.027 A 
ATOM      3  C   UNL     1       2.526  -0.028   5.720  0.00  0.00    +0.010 A 
ATOM      4  C   UNL     1       3.617   0.115   6.576  0.00  0.00    -0.013 A 
ATOM      5  C   UNL     1       4.720  -0.728   6.443  0.00  0.00    +0.033 A 
ATOM      6  C   UNL     1       4.726  -1.707   5.465  0.00  0.00    +0.053 A 
ENDROOT
BRANCH   6   7
ATOM      7  N   UNL     1       5.830  -2.559   5.333  0.00  0.00    -0.323 N 
ATOM      8  C   UNL     1       6.959  -2.202   4.461  0.00  0.00    +0.120 C 
ATOM      9  C   UNL     1       7.245  -3.382   3.527  0.00  0.00    +0.102 C 
ATOM     10  N   UNL     1       7.438  -4.599   4.325  0.00  0.00    -0.285 NA
ATOM     11  C   UNL     1       6.218  -4.951   5.064  0.00  0.00    +0.252 C 
ATOM     12  C   UNL     1       5.893  -3.832   6.067  0.00  0.00    +0.158 C 
ATOM     13  F   UNL     1       5.156  -5.102   4.166  0.00  0.00    -0.227 F 
ATOM     14  H   UNL     1       7.744  -5.367   3.746  0.00  0.00    +0.125 HD
ENDBRANCH   6   7
BRANCH   4  15
ATOM     15  C   UNL     1       3.605   1.162   7.626  0.00  0.00    +0.024 A 
ATOM     16  C   UNL     1       3.924   0.836   8.942  0.00  0.00    +0.012 A 
ATOM     17  C   UNL     1       3.910   1.814   9.916  0.00  0.00    +0.001 A 
ATOM     18  C   UNL     1       3.582   3.118   9.590  0.00  0.00    +0.004 A 
ATOM     19  C   UNL     1       3.264   3.452   8.287  0.00  0.00    +0.046 A 
ATOM     20  C   UNL     1       3.279   2.481   7.298  0.00  0.00    +0.125 A 
BRANCH  20  21
ATOM     21  O   UNL     1       2.973   2.809   6.016  0.00  0.00    -0.506 OA
ATOM     22  H   UNL     1       2.033   2.734   5.804  0.00  0.00    +0.292 HD
ENDBRANCH  20  21
ENDBRANCH   4  15
BRANCH   1  23
ATOM     23  N   UNL     1       3.641  -2.828   3.614  0.00  0.00    -0.197 N 
ATOM     24  H   UNL     1       4.060  -3.685   3.786  0.00  0.00    +0.175 HD
BRANCH  23  25
ATOM     25  S   UNL     1       2.934  -2.530   2.147  0.00  0.00    +0.200 S 
ATOM     26  O   UNL     1       1.602  -2.113   2.415  0.00  0.00    -0.129 OA
ATOM     27  O   UNL     1       3.231  -3.647   1.319  0.00  0.00    -0.129 OA
BRANCH  25  28
ATOM     28  S   UNL     1       3.898  -0.919   1.324  0.00  0.00    +0.268 S 
ATOM     29  O   UNL     1       5.230  -1.336   1.056  0.00  0.00    -0.111 OA
ATOM     30  O   UNL     1       3.602   0.197   2.152  0.00  0.00    -0.111 OA
BRANCH  28  31
ATOM     31  O   UNL     1       3.248  -0.646  -0.025  0.00  0.00    -0.328 OA
BRANCH  31  35
ATOM     32  C   UNL     1      -0.458   1.149   0.230  0.00  0.00    +0.000 A 
ATOM     33  C   UNL     1       0.683   1.927   0.156  0.00  0.00    +0.004 A 
ATOM     34  C   UNL     1       1.925   1.329   0.070  0.00  0.00    +0.048 A 
ATOM     35  C   UNL     1       2.028  -0.055   0.060  0.00  0.00    +0.158 A 
ATOM     36  C   UNL     1       0.882  -0.834   0.135  0.00  0.00    +0.048 A 
ATOM     37  C   UNL     1      -0.358  -0.231   0.219  0.00  0.00    +0.004 A 
ENDBRANCH  31  35
ENDBRANCH  28  31
ENDBRANCH  25  28
ENDBRANCH  23  25
ENDBRANCH   1  23
TORSDOF 8
