REMARK  Name = ZINC11966249
REMARK  6 active torsions:
REMARK  status: ('A' for Active; 'I' for Inactive)
REMARK    1  A    between atoms: C_1  and  C_2
REMARK    2  A    between atoms: C_9  and  C_11
REMARK    3  A    between atoms: C_11  and  N_12
REMARK    4  A    between atoms: C_13  and  C_15
REMARK    5  A    between atoms: C_15  and  N_58
REMARK    6  A    between atoms: C_24  and  C_27
REMARK                            x       y       z     vdW  Elec       q    Type
REMARK                         _______ _______ _______ _____ _____    ______ ____
ROOT
ATOM      1  C   UNL     1      -4.073  -6.785  -2.590  0.00  0.00    -0.038 C 
ATOM      2  C   UNL     1      -4.921  -7.853  -3.253  0.00  0.00    -0.022 A 
ATOM      3  C   UNL     1      -5.874  -7.502  -4.187  0.00  0.00    +0.005 A 
ATOM      4  C   UNL     1      -6.655  -8.484  -4.771  0.00  0.00    +0.000 A 
ATOM      5  C   UNL     1      -6.482  -9.810  -4.417  0.00  0.00    +0.004 A 
ATOM      6  C   UNL     1      -5.523 -10.162  -3.486  0.00  0.00    +0.046 A 
ATOM      7  C   UNL     1      -4.733  -9.178  -2.909  0.00  0.00    +0.123 A 
ATOM      8  O   UNL     1      -3.752  -9.518  -2.029  0.00  0.00    -0.486 OA
ATOM      9  C   UNL     1      -2.412  -9.343  -2.506  0.00  0.00    +0.190 C 
ATOM     10  C   UNL     1      -1.943  -7.922  -2.279  0.00  0.00    -0.027 C 
ATOM     11  N   UNL     1      -2.686  -6.933  -3.089  0.00  0.00    +0.391 N 
ATOM     12  H   UNL     1      -2.718  -7.261  -4.061  0.00  0.00    -0.080 HD
ENDROOT
BRANCH   9  13
ATOM     13  C   UNL     1      -1.496 -10.291  -1.775  0.00  0.00    +0.026 A 
ATOM     14  C   UNL     1      -1.838 -10.748  -0.516  0.00  0.00    +0.010 A 
ATOM     15  C   UNL     1      -1.001 -11.622   0.153  0.00  0.00    +0.001 A 
ATOM     16  C   UNL     1       0.183 -12.031  -0.432  0.00  0.00    +0.003 A 
ATOM     17  C   UNL     1       0.529 -11.570  -1.688  0.00  0.00    +0.039 A 
ATOM     18  C   UNL     1      -0.311 -10.699  -2.361  0.00  0.00    +0.130 A 
ATOM     19  F   UNL     1       0.026 -10.248  -3.590  0.00  0.00    -0.205 F 
ENDBRANCH   9  13
BRANCH  11  20
ATOM     20  C   UNL     1      -1.994  -5.634  -3.048  0.00  0.00    +0.019 C 
BRANCH  20  22
ATOM     21  N   UNL     1      -1.245  -3.964  -1.384  0.00  0.00    -0.311 N 
ATOM     22  C   UNL     1      -1.853  -5.141  -1.631  0.00  0.00    +0.197 C 
ATOM     23  O   UNL     1      -2.288  -5.803  -0.712  0.00  0.00    -0.278 OA
ATOM     24  H   UNL     1      -0.898  -3.434  -2.119  0.00  0.00    +0.149 HD
BRANCH  21  25
ATOM     25  C   UNL     1      -1.108  -3.485  -0.007  0.00  0.00    +0.161 C 
BRANCH  25  34
ATOM     26  C   UNL     1      -1.335   2.089   0.020  0.00  0.00    +0.064 C 
ATOM     27  C   UNL     1      -0.016   1.361   0.009  0.00  0.00    +0.022 A 
ATOM     28  C   UNL     1       1.136   2.063   0.002  0.00  0.00    +0.021 A 
ATOM     29  C   UNL     1       2.372   1.397  -0.012  0.00  0.00    +0.005 A 
ATOM     30  C   UNL     1       2.405   0.038  -0.020  0.00  0.00    +0.047 A 
ATOM     31  C   UNL     1       1.193  -0.682  -0.013  0.00  0.00    +0.138 A 
ATOM     32  N   UNL     1       0.002  -0.004   0.002  0.00  0.00    -0.304 N 
ATOM     33  C   UNL     1      -0.993  -0.943   0.006  0.00  0.00    +0.117 A 
ATOM     34  C   UNL     1      -0.397  -2.156  -0.006  0.00  0.00    +0.077 A 
ATOM     35  N   UNL     1       0.926  -1.981  -0.018  0.00  0.00    -0.231 NA
ENDBRANCH  25  34
ENDBRANCH  21  25
ENDBRANCH  20  22
ENDBRANCH  11  20
TORSDOF 5
