REMARK  Name = ZINC38671042
REMARK  9 active torsions:
REMARK  status: ('A' for Active; 'I' for Inactive)
REMARK    1  A    between atoms: C_1  and  C_2
REMARK    2  A    between atoms: C_5  and  N_9
REMARK    3  A    between atoms: C_7  and  C_8
REMARK    4  A    between atoms: C_11  and  C_16
REMARK    5  A    between atoms: N_18  and  C_19
REMARK    6  A    between atoms: C_19  and  C_20
REMARK    7  A    between atoms: C_20  and  C_22
REMARK    8  A    between atoms: C_20  and  N_33
REMARK    9  A    between atoms: N_31  and  C_32
REMARK                            x       y       z     vdW  Elec       q    Type
REMARK                         _______ _______ _______ _____ _____    ______ ____
ROOT
ATOM      1  C   UNL     1       3.762  -7.761  -0.510  0.00  0.00    +0.093 C 
ENDROOT
BRANCH   1   4
ATOM      2  C   UNL     1       4.278  -5.465   0.121  0.00  0.00    +0.218 C 
ATOM      3  O   UNL     1       3.520  -5.087  -0.747  0.00  0.00    -0.275 OA
ATOM      4  N   UNL     1       4.469  -6.784   0.321  0.00  0.00    -0.316 N 
ATOM      5  H   UNL     1       5.075  -7.086   1.015  0.00  0.00    +0.149 HD
BRANCH   2   8
ATOM      6  N   UNL     1       5.647  -2.612  -0.410  0.00  0.00    -0.271 N 
ATOM      7  C   UNL     1       4.633  -3.017   0.570  0.00  0.00    +0.127 C 
ATOM      8  C   UNL     1       5.005  -4.460   0.976  0.00  0.00    +0.101 C 
ATOM      9  C   UNL     1       6.524  -4.486   0.691  0.00  0.00    +0.110 C 
ATOM     10  C   UNL     1       6.720  -3.420  -0.364  0.00  0.00    +0.221 C 
ATOM     11  O   UNL     1       7.704  -3.309  -1.065  0.00  0.00    -0.275 OA
BRANCH   6  16
ATOM     12  C   UNL     1       5.098   1.783  -3.956  0.00  0.00    +0.044 C 
ATOM     13  C   UNL     1       5.244   0.615  -3.014  0.00  0.00    -0.047 A 
ATOM     14  C   UNL     1       6.435  -0.086  -2.963  0.00  0.00    +0.005 A 
ATOM     15  C   UNL     1       6.572  -1.156  -2.101  0.00  0.00    +0.024 A 
ATOM     16  C   UNL     1       5.512  -1.528  -1.284  0.00  0.00    +0.037 A 
ATOM     17  C   UNL     1       4.317  -0.822  -1.338  0.00  0.00    +0.027 A 
ATOM     18  C   UNL     1       4.188   0.251  -2.199  0.00  0.00    -0.046 A 
ATOM     19  C   UNL     1       2.894   1.021  -2.253  0.00  0.00    +0.044 C 
ENDBRANCH   6  16
ENDBRANCH   2   8
ENDBRANCH   1   4
BRANCH   1  20
ATOM     20  C   UNL     1       4.061  -9.174  -0.003  0.00  0.00    -0.020 C 
BRANCH  20  21
ATOM     21  C   UNL     1       5.532  -9.463  -0.162  0.00  0.00    -0.059 A 
ATOM     22  C   UNL     1       6.033  -9.831  -1.397  0.00  0.00    +0.004 A 
ATOM     23  C   UNL     1       7.380 -10.098  -1.542  0.00  0.00    +0.023 A 
ATOM     24  C   UNL     1       8.231  -9.995  -0.447  0.00  0.00    +0.033 A 
ATOM     25  C   UNL     1       7.728  -9.624   0.790  0.00  0.00    -0.026 A 
ATOM     26  C   UNL     1       6.376  -9.355   0.926  0.00  0.00    +0.007 A 
ATOM     27  C   UNL     1       8.622  -9.492   1.996  0.00  0.00    +0.038 C 
ATOM     28  C   UNL     1       9.915 -10.282   1.792  0.00  0.00    +0.024 C 
ATOM     29  C   UNL     1      10.532  -9.883   0.446  0.00  0.00    +0.105 C 
ATOM     30  N   UNL     1       9.592 -10.275  -0.613  0.00  0.00    -0.333 N 
ATOM     31  C   UNL     1      10.071 -10.947  -1.823  0.00  0.00    +0.129 C 
ENDBRANCH  20  21
BRANCH  20  32
ATOM     32  N   UNL     1       3.284 -10.148  -0.781  0.00  0.00    +0.385 N 
ATOM     33  C   UNL     1       1.851  -9.914  -0.563  0.00  0.00    -0.078 C 
ATOM     34  C   UNL     1       1.036 -10.873  -1.433  0.00  0.00    -0.019 C 
ATOM     35  C   UNL     1       1.382 -12.316  -1.054  0.00  0.00    -0.004 C 
ATOM     36  C   UNL     1       2.891 -12.527  -1.214  0.00  0.00    -0.019 C 
ATOM     37  C   UNL     1       3.637 -11.507  -0.353  0.00  0.00    -0.078 C 
ATOM     38  H   UNL     1       3.495 -10.040  -1.761  0.00  0.00    -0.081 HD
ENDBRANCH  20  32
ENDBRANCH   1  20
TORSDOF 6
