REMARK  Name = ZINC24376799
REMARK  5 active torsions:
REMARK  status: ('A' for Active; 'I' for Inactive)
REMARK    1  A    between atoms: C_1  and  C_2
REMARK    2  A    between atoms: C_7  and  C_30
REMARK    3  A    between atoms: N_12  and  C_16
REMARK    4  A    between atoms: C_16  and  C_17
REMARK    5  A    between atoms: C_27  and  C_29
REMARK                            x       y       z     vdW  Elec       q    Type
REMARK                         _______ _______ _______ _____ _____    ______ ____
ROOT
ATOM      1  C   UNL     1       2.268  -7.183  -0.651  0.00  0.00    +0.010 C 
ATOM      2  C   UNL     1       3.696  -7.318  -1.184  0.00  0.00    +0.019 C 
ATOM      3  C   UNL     1       4.313  -8.619  -0.665  0.00  0.00    +0.006 C 
ATOM      4  C   UNL     1       5.748  -8.742  -1.182  0.00  0.00    +0.001 C 
ATOM      5  C   UNL     1       6.577  -7.559  -0.679  0.00  0.00    +0.006 C 
ATOM      6  C   UNL     1       5.968  -6.254  -1.197  0.00  0.00    +0.019 C 
ATOM      7  C   UNL     1       4.529  -6.133  -0.707  0.00  0.00    +0.118 C 
ATOM      8  C   UNL     1       3.914  -4.836  -1.179  0.00  0.00    +0.247 C 
ATOM      9  O   UNL     1       3.735  -4.482  -2.325  0.00  0.00    -0.273 OA
ATOM     10  N   UNL     1       3.607  -4.154  -0.056  0.00  0.00    -0.215 N 
ATOM     11  C   UNL     1       3.935  -4.841   1.044  0.00  0.00    +0.310 C 
ATOM     12  O   UNL     1       3.753  -4.435   2.175  0.00  0.00    -0.252 OA
ATOM     13  N   UNL     1       4.492  -6.034   0.757  0.00  0.00    -0.284 N 
ATOM     14  C   UNL     1       6.785  -5.069  -0.678  0.00  0.00    +0.010 C 
ATOM     15  H   UNL     1       4.881  -6.857   1.375  0.00  0.00    +0.151 HD
ENDROOT
BRANCH  10  16
ATOM     16  C   UNL     1       2.985  -2.827  -0.043  0.00  0.00    +0.214 C 
BRANCH  16  17
ATOM     17  C   UNL     1       4.058  -1.769  -0.046  0.00  0.00    +0.238 C 
ATOM     18  O   UNL     1       5.227  -2.092  -0.059  0.00  0.00    -0.273 OA
ATOM     19  N   UNL     1       3.719  -0.465  -0.036  0.00  0.00    -0.267 N 
ATOM     20  C   UNL     1       2.408   0.022  -0.021  0.00  0.00    +0.040 A 
ATOM     21  C   UNL     1       1.202  -0.682  -0.013  0.00  0.00    +0.024 A 
ATOM     22  C   UNL     1       0.002  -0.004   0.002  0.00  0.00    +0.002 A 
ATOM     23  C   UNL     1      -0.017   1.379   0.010  0.00  0.00    +0.000 A 
ATOM     24  C   UNL     1       1.173   2.083   0.002  0.00  0.00    +0.005 A 
ATOM     25  C   UNL     1       2.379   1.407  -0.013  0.00  0.00    -0.024 A 
ATOM     26  C   UNL     1       3.801   1.919  -0.023  0.00  0.00    +0.059 C 
ATOM     27  C   UNL     1       4.669   0.650  -0.038  0.00  0.00    +0.083 C 
ATOM     28  C   UNL     1       5.555   0.598   1.208  0.00  0.00    +0.029 C 
ENDBRANCH  16  17
ENDBRANCH  10  16
TORSDOF 2
