REMARK  Name = ZINC09576300
REMARK  7 active torsions:
REMARK  status: ('A' for Active; 'I' for Inactive)
REMARK    1  A    between atoms: C_1  and  C_2
REMARK    2  A    between atoms: C_2  and  N_3
REMARK    3  A    between atoms: C_4  and  C_6
REMARK    4  A    between atoms: C_7  and  C_19
REMARK    5  A    between atoms: C_12  and  C_17
REMARK    6  A    between atoms: C_12  and  C_18
REMARK    7  A    between atoms: C_14  and  O_16
REMARK                            x       y       z     vdW  Elec       q    Type
REMARK                         _______ _______ _______ _____ _____    ______ ____
ROOT
ATOM      1  C   UNL     1      -0.968   1.967   3.307  0.00  0.00    +0.193 A 
ATOM      2  C   UNL     1      -1.862   2.724   2.600  0.00  0.00    +0.006 A 
ATOM      3  C   UNL     1      -1.657   2.425   1.251  0.00  0.00    +0.025 A 
ATOM      4  C   UNL     1      -0.659   1.509   1.186  0.00  0.00    +0.112 A 
ATOM      5  O   UNL     1      -0.248   1.238   2.426  0.00  0.00    -0.454 OA
ATOM      6  C   UNL     1      -0.140   0.925  -0.106  0.00  0.00    +0.081 C 
ATOM      7  C   UNL     1      -1.168   1.200  -1.210  0.00  0.00    -0.025 C 
ATOM      8  C   UNL     1      -1.548   2.683  -1.199  0.00  0.00    +0.043 C 
ATOM      9  C   UNL     1      -2.379   2.987   0.054  0.00  0.00    +0.149 C 
ATOM     10  C   UNL     1      -0.565   0.839  -2.569  0.00  0.00    +0.011 C 
ATOM     11  C   UNL     1      -2.418   0.352  -0.966  0.00  0.00    +0.011 C 
ATOM     12  C   UNL     1      -2.870   3.690   3.167  0.00  0.00    +0.048 C 
ENDROOT
BRANCH   1  14
ATOM     13  N   UNL     1       0.108   1.154   5.338  0.00  0.00    -0.309 N 
ATOM     14  C   UNL     1      -0.817   1.950   4.765  0.00  0.00    +0.280 C 
ATOM     15  O   UNL     1      -1.526   2.655   5.458  0.00  0.00    -0.267 OA
ATOM     16  H   UNL     1       0.674   0.592   4.785  0.00  0.00    +0.149 HD
BRANCH  13  18
ATOM     17  C   UNL     1       1.369   0.158   7.181  0.00  0.00    +0.024 C 
ATOM     18  C   UNL     1       0.259   1.137   6.795  0.00  0.00    +0.101 C 
ENDBRANCH  13  18
ENDBRANCH   1  14
BRANCH   9  19
ATOM     19  O   UNL     1      -2.528   4.401   0.202  0.00  0.00    -0.387 OA
ATOM     20  H   UNL     1      -3.158   4.660   0.888  0.00  0.00    +0.210 HD
ENDBRANCH   9  19
TORSDOF 3
