REMARK  Name = ZINC42015027
REMARK  3 active torsions:
REMARK  status: ('A' for Active; 'I' for Inactive)
REMARK    1  A    between atoms: C_4  and  N_20
REMARK    2  A    between atoms: C_6  and  C_7
REMARK    3  A    between atoms: N_11  and  C_12
REMARK                            x       y       z     vdW  Elec       q    Type
REMARK                         _______ _______ _______ _____ _____    ______ ____
ROOT
ATOM      1  C   UNL     1      -1.266  -0.766  -0.011  0.00  0.00    +0.187 A 
ATOM      2  N   UNL     1      -1.404  -2.062   0.182  0.00  0.00    -0.108 NA
ATOM      3  N   UNL     1      -2.645  -2.391   0.155  0.00  0.00    -0.022 NA
ATOM      4  N   UNL     1      -3.384  -1.356  -0.053  0.00  0.00    -0.039 NA
ATOM      5  N   UNL     1      -2.521  -0.252  -0.165  0.00  0.00    -0.193 N 
ENDROOT
BRANCH   5   6
ATOM      6  C   UNL     1      -2.872   1.086  -0.388  0.00  0.00    +0.072 A 
ATOM      7  C   UNL     1      -2.163   1.847  -1.307  0.00  0.00    +0.048 A 
ATOM      8  C   UNL     1      -2.512   3.167  -1.525  0.00  0.00    +0.044 A 
ATOM      9  C   UNL     1      -3.567   3.729  -0.828  0.00  0.00    +0.040 A 
ATOM     10  C   UNL     1      -4.276   2.972   0.088  0.00  0.00    +0.044 A 
ATOM     11  C   UNL     1      -3.934   1.651   0.306  0.00  0.00    +0.048 A 
ATOM     12 CL   UNL     1      -5.598   3.681   0.961  0.00  0.00    -0.083 Cl
ATOM     13 CL   UNL     1      -1.626   4.120  -2.674  0.00  0.00    -0.083 Cl
ENDBRANCH   5   6
BRANCH   1  19
ATOM     14  C   UNL     1       0.046   1.313   0.387  0.00  0.00    +0.014 A 
ATOM     15  C   UNL     1       1.233   2.016   0.352  0.00  0.00    +0.041 A 
ATOM     16  C   UNL     1       2.387   1.411  -0.114  0.00  0.00    +0.144 A 
ATOM     17  C   UNL     1       2.356   0.089  -0.551  0.00  0.00    +0.061 A 
ATOM     18  C   UNL     1       1.168  -0.623  -0.519  0.00  0.00    +0.037 A 
ATOM     19  C   UNL     1       0.006  -0.012  -0.049  0.00  0.00    +0.023 A 
ATOM     20  F   UNL     1       3.546   2.104  -0.146  0.00  0.00    -0.204 F 
BRANCH  17  21
ATOM     21  N   UNL     1       3.524  -0.520  -1.022  0.00  0.00    -0.356 N 
ATOM     22  H   UNL     1       4.355  -0.021  -1.044  0.00  0.00    +0.142 HD
ATOM     23  H   UNL     1       3.502  -1.441  -1.326  0.00  0.00    +0.142 HD
ENDBRANCH  17  21
ENDBRANCH   1  19
TORSDOF 3
