REMARK  Name = ZINC09808339
REMARK  7 active torsions:
REMARK  status: ('A' for Active; 'I' for Inactive)
REMARK    1  A    between atoms: C_1  and  C_2
REMARK    2  A    between atoms: N_7  and  C_9
REMARK    3  A    between atoms: C_9  and  C_11
REMARK    4  A    between atoms: C_9  and  C_20
REMARK    5  A    between atoms: C_14  and  N_17
REMARK    6  A    between atoms: C_21  and  O_33
REMARK    7  A    between atoms: C_26  and  C_28
REMARK                            x       y       z     vdW  Elec       q    Type
REMARK                         _______ _______ _______ _____ _____    ______ ____
ROOT
ATOM      1  C   UNL     1       1.413  -2.463   2.461  0.00  0.00    +0.005 C 
ENDROOT
BRANCH   1   7
ATOM      2  C   UNL     1      -0.019   1.526   0.010  0.00  0.00    +0.005 C 
ATOM      3  C   UNL     1       0.002  -0.004   0.002  0.00  0.00    -0.031 C 
ATOM      4  C   UNL     1       0.721  -0.499  -1.257  0.00  0.00    -0.001 C 
ATOM      5  C   UNL     1       0.805  -2.027  -1.217  0.00  0.00    -0.018 C 
ATOM      6  C   UNL     1       1.518  -2.460   0.066  0.00  0.00    -0.077 C 
ATOM      7  N   UNL     1       0.768  -1.979   1.233  0.00  0.00    +0.388 N 
ATOM      8  C   UNL     1       0.744  -0.512   1.240  0.00  0.00    -0.074 C 
ATOM      9  H   UNL     1      -0.177  -2.330   1.192  0.00  0.00    -0.080 HD
ENDBRANCH   1   7
BRANCH   1  10
ATOM     10  C   UNL     1       1.430  -3.970   2.459  0.00  0.00    +0.045 A 
ATOM     11  C   UNL     1       2.468  -4.803   2.600  0.00  0.00    +0.225 A 
ATOM     12  N   UNL     1       2.284  -6.163   2.572  0.00  0.00    -0.173 N 
ATOM     13  C   UNL     1       1.006  -6.616   2.397  0.00  0.00    +0.199 A 
ATOM     14  S   UNL     1       0.068  -5.111   2.279  0.00  0.00    -0.050 S 
ATOM     15  N   UNL     1       0.997  -7.920   2.393  0.00  0.00    -0.197 NA
ATOM     16  C   UNL     1       2.247  -8.372   2.563  0.00  0.00    +0.218 A 
ATOM     17  N   UNL     1       3.063  -7.346   2.676  0.00  0.00    -0.138 NA
BRANCH  16  18
ATOM     18  C   UNL     1       2.645  -9.794   2.615  0.00  0.00    +0.173 A 
ATOM     19  C   UNL     1       1.811 -10.861   2.494  0.00  0.00    +0.053 A 
ATOM     20  C   UNL     1       2.611 -12.016   2.603  0.00  0.00    +0.042 A 
ATOM     21  C   UNL     1       3.881 -11.601   2.784  0.00  0.00    +0.196 A 
ATOM     22  O   UNL     1       3.898 -10.258   2.785  0.00  0.00    -0.460 OA
ENDBRANCH  16  18
BRANCH  11  23
ATOM     23  O   UNL     1       3.719  -4.296   2.771  0.00  0.00    -0.492 OA
ATOM     24  H   UNL     1       4.407  -4.969   2.863  0.00  0.00    +0.294 HD
ENDBRANCH  11  23
ENDBRANCH   1  10
BRANCH   1  25
ATOM     25  C   UNL     1       0.645  -1.970   3.660  0.00  0.00    -0.056 A 
ATOM     26  C   UNL     1      -0.737  -1.956   3.637  0.00  0.00    +0.004 A 
ATOM     27  C   UNL     1      -1.442  -1.504   4.737  0.00  0.00    +0.033 A 
ATOM     28  C   UNL     1      -0.765  -1.067   5.859  0.00  0.00    +0.126 A 
ATOM     29  C   UNL     1       0.617  -1.081   5.883  0.00  0.00    +0.033 A 
ATOM     30  C   UNL     1       1.322  -1.537   4.785  0.00  0.00    +0.004 A 
BRANCH  28  31
ATOM     31  N   UNL     1      -1.520  -0.582   7.037  0.00  0.00    +0.056 N 
ATOM     32  O   UNL     1      -2.729  -0.568   7.016  0.00  0.00    -0.126 OA
ATOM     33  O   UNL     1      -0.928  -0.199   8.019  0.00  0.00    -0.126 OA
ENDBRANCH  28  31
ENDBRANCH   1  25
TORSDOF 6
