REMARK  Name = ZINC36017218
REMARK  13 active torsions:
REMARK  status: ('A' for Active; 'I' for Inactive)
REMARK    1  A    between atoms: C_1  and  C_2
REMARK    2  A    between atoms: C_2  and  N_3
REMARK    3  A    between atoms: C_4  and  C_24
REMARK    4  A    between atoms: C_5  and  C_19
REMARK    5  A    between atoms: C_6  and  C_11
REMARK    6  A    between atoms: C_13  and  C_18
REMARK    7  A    between atoms: C_16  and  C_17
REMARK    8  A    between atoms: C_19  and  O_21
REMARK    9  A    between atoms: O_21  and  C_22
REMARK   10  A    between atoms: C_22  and  C_23
REMARK   11  A    between atoms: C_24  and  N_25
REMARK   12  A    between atoms: C_29  and  C_32
REMARK   13  A    between atoms: C_33  and  C_35
REMARK                            x       y       z     vdW  Elec       q    Type
REMARK                         _______ _______ _______ _____ _____    ______ ____
ROOT
ATOM      1  N   UNL     1      -0.319  -0.056  -3.563  0.00  0.00    -0.258 N 
ATOM      2  C   UNL     1      -1.388  -0.323  -4.370  0.00  0.00    +0.041 C 
ATOM      3  C   UNL     1      -1.214  -0.753  -5.638  0.00  0.00    +0.080 C 
ATOM      4  C   UNL     1       0.207  -0.928  -6.135  0.00  0.00    +0.144 C 
ATOM      5  N   UNL     1       1.289  -0.612  -5.186  0.00  0.00    -0.288 N 
ATOM      6  C   UNL     1       0.956  -0.188  -3.951  0.00  0.00    +0.307 C 
ATOM      7  O   UNL     1       1.841   0.079  -3.163  0.00  0.00    -0.252 OA
ATOM      8  H   UNL     1       2.219  -0.704  -5.446  0.00  0.00    +0.151 HD
ENDROOT
BRANCH   4   9
ATOM      9  C   UNL     1       0.375  -2.361  -6.569  0.00  0.00    -0.019 A 
ATOM     10  C   UNL     1       0.803  -3.313  -5.661  0.00  0.00    +0.009 A 
ATOM     11  C   UNL     1       0.957  -4.627  -6.059  0.00  0.00    -0.050 A 
ATOM     12  C   UNL     1       0.682  -4.991  -7.364  0.00  0.00    +0.003 A 
ATOM     13  C   UNL     1       0.252  -4.040  -8.271  0.00  0.00    +0.004 A 
ATOM     14  C   UNL     1       0.094  -2.726  -7.872  0.00  0.00    -0.045 A 
ATOM     15  C   UNL     1      -0.379  -1.690  -8.859  0.00  0.00    +0.044 C 
ATOM     16  C   UNL     1       1.425  -5.664  -5.071  0.00  0.00    +0.044 C 
ENDBRANCH   4   9
BRANCH   1  18
ATOM     17  C   UNL     1      -0.673   1.935  -2.187  0.00  0.00    +0.025 C 
ATOM     18  C   UNL     1      -0.582   0.408  -2.198  0.00  0.00    +0.111 C 
ENDBRANCH   1  18
BRANCH   3  19
ATOM     19  C   UNL     1      -2.320  -1.032  -6.474  0.00  0.00    +0.339 C 
ATOM     20  O   UNL     1      -2.714  -2.176  -6.601  0.00  0.00    -0.245 OA
BRANCH  19  21
ATOM     21  O   UNL     1      -2.938  -0.028  -7.132  0.00  0.00    -0.462 OA
BRANCH  21  22
ATOM     22  C   UNL     1      -4.115  -0.364  -7.869  0.00  0.00    +0.229 C 
ATOM     23  C   UNL     1      -4.602   0.865  -8.640  0.00  0.00    +0.048 C 
ENDBRANCH  21  22
ENDBRANCH  19  21
ENDBRANCH   3  19
BRANCH   2  24
ATOM     24  C   UNL     1      -2.785  -0.136  -3.836  0.00  0.00    +0.136 C 
BRANCH  24  25
ATOM     25  N   UNL     1      -3.032  -1.106  -2.761  0.00  0.00    -0.294 NA
ATOM     26  C   UNL     1      -3.031  -2.480  -3.282  0.00  0.00    +0.104 C 
ATOM     27  C   UNL     1      -3.110  -3.466  -2.112  0.00  0.00    +0.124 C 
ATOM     28  N   UNL     1      -4.275  -3.116  -1.284  0.00  0.00    -0.292 N 
ATOM     29  C   UNL     1      -4.417  -1.722  -0.838  0.00  0.00    +0.087 C 
ATOM     30  C   UNL     1      -4.286  -0.804  -2.058  0.00  0.00    +0.107 C 
ATOM     31  C   UNL     1      -5.789  -1.528  -0.189  0.00  0.00    +0.029 C 
ATOM     32  C   UNL     1      -5.187  -4.048  -0.943  0.00  0.00    +0.247 C 
ATOM     33  O   UNL     1      -6.199  -3.722  -0.355  0.00  0.00    -0.270 OA
BRANCH  32  34
ATOM     34  C   UNL     1      -4.956  -5.467  -1.285  0.00  0.00    +0.037 A 
ATOM     35  C   UNL     1      -3.654  -5.952  -1.420  0.00  0.00    +0.016 A 
ATOM     36  C   UNL     1      -3.444  -7.277  -1.739  0.00  0.00    +0.039 A 
ATOM     37  C   UNL     1      -4.524  -8.127  -1.927  0.00  0.00    +0.123 A 
ATOM     38  C   UNL     1      -5.819  -7.650  -1.794  0.00  0.00    +0.039 A 
ATOM     39  C   UNL     1      -6.040  -6.329  -1.469  0.00  0.00    +0.016 A 
ATOM     40  F   UNL     1      -4.313  -9.424  -2.240  0.00  0.00    -0.205 F 
ENDBRANCH  32  34
ENDBRANCH  24  25
ENDBRANCH   2  24
TORSDOF 8
