REMARK  Name = ZINC10402593
REMARK  13 active torsions:
REMARK  status: ('A' for Active; 'I' for Inactive)
REMARK    1  A    between atoms: C_1  and  C_2
REMARK    2  A    between atoms: C_4  and  C_14
REMARK    3  A    between atoms: C_5  and  C_13
REMARK    4  A    between atoms: N_6  and  C_7
REMARK    5  A    between atoms: C_7  and  C_9
REMARK    6  A    between atoms: C_7  and  C_10
REMARK    7  A    between atoms: C_10  and  O_11
REMARK    8  A    between atoms: O_11  and  C_12
REMARK    9  A    between atoms: C_15  and  C_16
REMARK   10  A    between atoms: C_15  and  C_18
REMARK   11  A    between atoms: N_20  and  C_21
REMARK   12  A    between atoms: C_24  and  C_27
REMARK   13  A    between atoms: C_27  and  C_29
REMARK                            x       y       z     vdW  Elec       q    Type
REMARK                         _______ _______ _______ _____ _____    ______ ____
ROOT
ATOM      1  C   UNL     1      -5.612   0.982   1.322  0.00  0.00    +0.033 C 
ATOM      2  C   UNL     1      -6.482   0.085   1.909  0.00  0.00    +0.114 C 
ENDROOT
BRANCH   1   6
ATOM      3  C   UNL     1      -1.235  -1.540   1.266  0.00  0.00    +0.063 C 
ATOM      4  C   UNL     1      -2.283  -0.458   1.214  0.00  0.00    +0.017 A 
ATOM      5  C   UNL     1      -3.603  -0.646   1.371  0.00  0.00    +0.030 A 
ATOM      6  C   UNL     1      -4.229   0.677   1.236  0.00  0.00    -0.003 A 
ATOM      7  C   UNL     1      -3.191   1.565   1.008  0.00  0.00    +0.023 A 
ATOM      8  N   UNL     1      -2.039   0.869   1.002  0.00  0.00    -0.343 N 
ATOM      9  C   UNL     1      -3.327   3.052   0.803  0.00  0.00    +0.064 C 
BRANCH   8  10
ATOM     10  C   UNL     1      -0.712   1.451   0.791  0.00  0.00    +0.110 C 
ATOM     11  C   UNL     1      -0.333   2.309   2.001  0.00  0.00    +0.033 C 
BRANCH  10  12
ATOM     12  C   UNL     1      -0.731   2.323  -0.466  0.00  0.00    +0.184 C 
BRANCH  12  13
ATOM     13  O   UNL     1       0.590   2.797  -0.737  0.00  0.00    -0.381 OA
ATOM     14  C   UNL     1       0.683   3.626  -1.897  0.00  0.00    +0.194 C 
ENDBRANCH  12  13
ENDBRANCH  10  12
ENDBRANCH   8  10
ENDBRANCH   1   6
BRANCH   2  15
ATOM     15  C   UNL     1      -7.931   0.318   1.847  0.00  0.00    +0.259 C 
ATOM     16  O   UNL     1      -8.364   1.302   1.278  0.00  0.00    -0.269 OA
ATOM     17  N   UNL     1      -8.780  -0.558   2.421  0.00  0.00    -0.281 N 
ATOM     18  H   UNL     1      -8.434  -1.292   2.951  0.00  0.00    +0.155 HD
BRANCH  17  19
ATOM     19  C   UNL     1     -10.153  -0.408   2.252  0.00  0.00    +0.034 A 
ATOM     20  C   UNL     1     -11.022  -0.769   3.278  0.00  0.00    +0.024 A 
ATOM     21  C   UNL     1     -12.371  -0.619   3.118  0.00  0.00    +0.013 A 
ATOM     22  C   UNL     1     -12.879  -0.111   1.916  0.00  0.00    +0.017 A 
ATOM     23  C   UNL     1     -12.002   0.245   0.884  0.00  0.00    +0.013 A 
ATOM     24  C   UNL     1     -10.654   0.097   1.054  0.00  0.00    +0.024 A 
BRANCH  22  25
ATOM     25  C   UNL     1     -14.328   0.047   1.738  0.00  0.00    +0.160 C 
ATOM     26  O   UNL     1     -14.767   0.487   0.696  0.00  0.00    -0.292 OA
ATOM     27  C   UNL     1     -15.270  -0.337   2.849  0.00  0.00    +0.091 C 
ENDBRANCH  22  25
ENDBRANCH  17  19
ENDBRANCH   2  15
BRANCH   2  28
ATOM     28  C   UNL     1      -5.971  -1.074   2.579  0.00  0.00    +0.104 C 
ATOM     29  N   UNL     1      -5.566  -1.992   3.111  0.00  0.00    -0.191 NA
ENDBRANCH   2  28
TORSDOF 8
