REMARK  Name = ZINC63110984
REMARK  10 active torsions:
REMARK  status: ('A' for Active; 'I' for Inactive)
REMARK    1  A    between atoms: C_1  and  O_2
REMARK    2  A    between atoms: O_2  and  C_3
REMARK    3  A    between atoms: C_10  and  C_33
REMARK    4  A    between atoms: C_11  and  C_14
REMARK    5  A    between atoms: N_16  and  C_17
REMARK    6  A    between atoms: C_17  and  C_19
REMARK    7  A    between atoms: C_17  and  C_29
REMARK    8  A    between atoms: C_19  and  C_20
REMARK    9  A    between atoms: C_29  and  O_31
REMARK   10  A    between atoms: O_31  and  C_32
REMARK                            x       y       z     vdW  Elec       q    Type
REMARK                         _______ _______ _______ _____ _____    ______ ____
ROOT
ATOM      1  C   UNL     1       5.261  -2.533   6.619  0.00  0.00    +0.248 C 
ATOM      2  O   UNL     1       5.946  -1.530   6.554  0.00  0.00    -0.270 OA
ATOM      3  N   UNL     1       5.618  -3.539   7.441  0.00  0.00    -0.298 N 
ATOM      4  H   UNL     1       5.072  -4.339   7.493  0.00  0.00    +0.150 HD
ENDROOT
BRANCH   1  13
ATOM      5  C   UNL     1       0.145  -0.271   1.583  0.00  0.00    +0.234 A 
ATOM      6  C   UNL     1      -0.503  -1.177   2.421  0.00  0.00    +0.072 A 
ATOM      7  C   UNL     1       0.255  -1.839   3.373  0.00  0.00    +0.055 A 
ATOM      8  C   UNL     1       1.619  -1.557   3.433  0.00  0.00    +0.177 A 
ATOM      9  N   UNL     1       2.148  -0.681   2.596  0.00  0.00    -0.126 NA
ATOM     10  N   UNL     1       1.447  -0.071   1.711  0.00  0.00    -0.110 NA
ATOM     11  N   UNL     1       2.427  -2.200   4.378  0.00  0.00    -0.208 N 
ATOM     12  C   UNL     1       3.555  -1.703   4.918  0.00  0.00    +0.161 A 
ATOM     13  C   UNL     1       4.042  -2.647   5.799  0.00  0.00    +0.086 A 
ATOM     14  C   UNL     1       3.151  -3.745   5.769  0.00  0.00    +0.148 A 
ATOM     15  N   UNL     1       2.194  -3.466   4.927  0.00  0.00    -0.172 NA
BRANCH  12  16
ATOM     16  C   UNL     1       4.173  -0.362   4.615  0.00  0.00    +0.435 C 
ATOM     17  F   UNL     1       3.185   0.514   4.153  0.00  0.00    -0.164 F 
ATOM     18  F   UNL     1       4.751   0.158   5.778  0.00  0.00    -0.164 F 
ATOM     19  F   UNL     1       5.158  -0.514   3.633  0.00  0.00    -0.164 F 
ENDBRANCH  12  16
BRANCH   5  21
ATOM     20  C   UNL     1       0.175   1.308  -0.191  0.00  0.00    +0.279 C 
ATOM     21  O   UNL     1      -0.556   0.400   0.635  0.00  0.00    -0.479 OA
ENDBRANCH   5  21
ENDBRANCH   1  13
BRANCH   3  22
ATOM     22  C   UNL     1       6.830  -3.425   8.256  0.00  0.00    +0.186 C 
BRANCH  22  23
ATOM     23  C   UNL     1       6.511  -2.689   9.531  0.00  0.00    +0.328 C 
ATOM     24  O   UNL     1       5.386  -2.300   9.739  0.00  0.00    -0.249 OA
BRANCH  23  25
ATOM     25  O   UNL     1       7.476  -2.467  10.438  0.00  0.00    -0.467 OA
ATOM     26  C   UNL     1       7.102  -1.763  11.624  0.00  0.00    +0.280 C 
ENDBRANCH  23  25
ENDBRANCH  22  23
BRANCH  22  27
ATOM     27  C   UNL     1       7.353  -4.824   8.591  0.00  0.00    +0.067 C 
BRANCH  27  28
ATOM     28  C   UNL     1       7.787  -5.514   7.324  0.00  0.00    -0.039 C 
ATOM     29  C   UNL     1       9.040  -5.567   6.815  0.00  0.00    -0.001 A 
ATOM     30  C   UNL     1      10.322  -5.018   7.271  0.00  0.00    +0.010 A 
ATOM     31  C   UNL     1      11.432  -5.243   6.531  0.00  0.00    +0.001 A 
ATOM     32  C   UNL     1      11.388  -5.985   5.343  0.00  0.00    +0.002 A 
ATOM     33  C   UNL     1      10.247  -6.521   4.860  0.00  0.00    +0.026 A 
ATOM     34  C   UNL     1       9.020  -6.348   5.557  0.00  0.00    +0.043 A 
ATOM     35  N   UNL     1       7.803  -6.761   5.298  0.00  0.00    -0.380 N 
ATOM     36  C   UNL     1       6.913  -6.294   6.367  0.00  0.00    +0.144 C 
ATOM     37  H   UNL     1       7.536  -7.290   4.530  0.00  0.00    +0.160 HD
ENDBRANCH  27  28
ENDBRANCH  22  27
ENDBRANCH   3  22
TORSDOF 8
