REMARK  Name = ZINC11185341
REMARK  10 active torsions:
REMARK  status: ('A' for Active; 'I' for Inactive)
REMARK    1  A    between atoms: C_1  and  C_2
REMARK    2  A    between atoms: C_5  and  C_36
REMARK    3  A    between atoms: C_6  and  N_8
REMARK    4  A    between atoms: C_14  and  C_19
REMARK    5  A    between atoms: C_19  and  O_21
REMARK    6  A    between atoms: O_21  and  C_22
REMARK    7  A    between atoms: C_22  and  C_24
REMARK    8  A    between atoms: C_22  and  C_25
REMARK    9  A    between atoms: N_27  and  C_28
REMARK   10  A    between atoms: C_33  and  C_34
REMARK                            x       y       z     vdW  Elec       q    Type
REMARK                         _______ _______ _______ _____ _____    ______ ____
ROOT
ATOM      1  N   UNL     1       0.060  -0.011  -0.015  0.00  0.00    -0.202 N 
ATOM      2  C   UNL     1       0.044  -0.767  -1.127  0.00  0.00    +0.258 C 
ATOM      3  O   UNL     1       0.019  -0.350  -2.268  0.00  0.00    -0.269 OA
ATOM      4  C   UNL     1       0.065  -2.192  -0.728  0.00  0.00    +0.050 A 
ATOM      5  C   UNL     1       0.064  -3.389  -1.426  0.00  0.00    +0.014 A 
ATOM      6  C   UNL     1       0.081  -4.590  -0.737  0.00  0.00    +0.016 A 
ATOM      7  C   UNL     1       0.101  -4.601   0.658  0.00  0.00    +0.060 A 
ATOM      8  C   UNL     1       0.103  -3.398   1.369  0.00  0.00    +0.028 A 
ATOM      9  C   UNL     1       0.085  -2.196   0.682  0.00  0.00    +0.051 A 
ATOM     10  C   UNL     1       0.081  -0.776   1.091  0.00  0.00    +0.258 C 
ATOM     11  O   UNL     1       0.095  -0.368   2.235  0.00  0.00    -0.269 OA
ENDROOT
BRANCH   1  17
ATOM     12  C   UNL     1       2.530   4.242  -0.033  0.00  0.00    +0.044 C 
ATOM     13  C   UNL     1       1.232   3.477  -0.017  0.00  0.00    -0.049 A 
ATOM     14  C   UNL     1       0.029   4.157   0.003  0.00  0.00    +0.004 A 
ATOM     15  C   UNL     1      -1.164   3.459   0.017  0.00  0.00    +0.005 A 
ATOM     16  C   UNL     1      -1.157   2.077   0.005  0.00  0.00    -0.029 A 
ATOM     17  C   UNL     1       0.049   1.391  -0.009  0.00  0.00    +0.048 A 
ATOM     18  C   UNL     1       1.246   2.096  -0.023  0.00  0.00    +0.027 A 
ATOM     19  C   UNL     1      -2.458   1.316   0.014  0.00  0.00    +0.045 C 
ENDBRANCH   1  17
BRANCH   7  20
ATOM     20  C   UNL     1       0.120  -5.889   1.385  0.00  0.00    +0.340 C 
ATOM     21  O   UNL     1       0.138  -5.900   2.599  0.00  0.00    -0.245 OA
BRANCH  20  22
ATOM     22  O   UNL     1       0.118  -7.049   0.701  0.00  0.00    -0.449 OA
BRANCH  22  23
ATOM     23  C   UNL     1       0.138  -8.274   1.480  0.00  0.00    +0.259 C 
ATOM     24  C   UNL     1       1.587  -8.694   1.733  0.00  0.00    +0.062 C 
BRANCH  23  25
ATOM     25  C   UNL     1      -0.577  -9.363   0.722  0.00  0.00    +0.258 C 
ATOM     26  O   UNL     1      -0.975  -9.156  -0.404  0.00  0.00    -0.271 OA
ATOM     27  N   UNL     1      -0.772 -10.567   1.296  0.00  0.00    -0.281 N 
ATOM     28  H   UNL     1      -0.397 -10.754   2.171  0.00  0.00    +0.155 HD
BRANCH  27  29
ATOM     29  C   UNL     1      -1.514 -11.543   0.633  0.00  0.00    +0.051 A 
ATOM     30  C   UNL     1      -1.451 -11.647  -0.750  0.00  0.00    +0.024 A 
ATOM     31  C   UNL     1      -2.183 -12.617  -1.405  0.00  0.00    +0.002 A 
ATOM     32  C   UNL     1      -2.991 -13.487  -0.691  0.00  0.00    +0.001 A 
ATOM     33  C   UNL     1      -3.070 -13.396   0.682  0.00  0.00    +0.021 A 
ATOM     34  C   UNL     1      -2.331 -12.422   1.359  0.00  0.00    +0.073 A 
BRANCH  34  35
ATOM     35  C   UNL     1      -2.409 -12.321   2.785  0.00  0.00    +0.101 C 
ATOM     36  N   UNL     1      -2.470 -12.242   3.917  0.00  0.00    -0.191 NA
ENDBRANCH  34  35
ENDBRANCH  27  29
ENDBRANCH  23  25
ENDBRANCH  22  23
ENDBRANCH  20  22
ENDBRANCH   7  20
TORSDOF 7
