REMARK  Name = ZINC40075470
REMARK  15 active torsions:
REMARK  status: ('A' for Active; 'I' for Inactive)
REMARK    1  A    between atoms: C_1  and  C_2
REMARK    2  A    between atoms: C_2  and  C_3
REMARK    3  A    between atoms: C_3  and  C_4
REMARK    4  A    between atoms: C_4  and  O_5
REMARK    5  A    between atoms: O_5  and  C_6
REMARK    6  A    between atoms: C_9  and  C_12
REMARK    7  A    between atoms: C_14  and  C_26
REMARK    8  A    between atoms: N_18  and  C_19
REMARK    9  A    between atoms: C_19  and  C_20
REMARK   10  A    between atoms: C_20  and  O_21
REMARK   11  A    between atoms: O_21  and  C_22
REMARK   12  A    between atoms: C_22  and  C_23
REMARK   13  A    between atoms: C_23  and  O_24
REMARK   14  A    between atoms: C_26  and  C_28
REMARK   15  A    between atoms: C_31  and  C_33
REMARK                            x       y       z     vdW  Elec       q    Type
REMARK                         _______ _______ _______ _____ _____    ______ ____
ROOT
ATOM      1  C   UNL     1       1.907  -8.090   3.002  0.00  0.00    +0.145 C 
ATOM      2  C   UNL     1       0.987  -8.577   4.097  0.00  0.00    +0.079 C 
ATOM      3  C   UNL     1       1.770  -9.153   5.037  0.00  0.00    +0.249 C 
ATOM      4  C   UNL     1       3.182  -9.070   4.612  0.00  0.00    +0.288 C 
ATOM      5  O   UNL     1       4.127  -9.499   5.244  0.00  0.00    -0.266 OA
ATOM      6  N   UNL     1       3.268  -8.449   3.420  0.00  0.00    -0.281 N 
ATOM      7  O   UNL     1       1.329  -9.717   6.186  0.00  0.00    -0.282 OA
ENDROOT
BRANCH   1  11
ATOM      8  C   UNL     1       1.571  -3.851   2.577  0.00  0.00    +0.121 A 
ATOM      9  C   UNL     1       1.118  -4.688   1.568  0.00  0.00    +0.046 A 
ATOM     10  C   UNL     1       1.228  -6.058   1.708  0.00  0.00    +0.009 A 
ATOM     11  C   UNL     1       1.789  -6.595   2.852  0.00  0.00    -0.022 A 
ATOM     12  C   UNL     1       2.241  -5.762   3.859  0.00  0.00    +0.009 A 
ATOM     13  C   UNL     1       2.138  -4.391   3.722  0.00  0.00    +0.046 A 
BRANCH   8  14
ATOM     14  O   UNL     1       1.464  -2.503   2.442  0.00  0.00    -0.492 OA
BRANCH  14  15
ATOM     15  C   UNL     1       0.869  -2.017   1.237  0.00  0.00    +0.229 C 
BRANCH  15  16
ATOM     16  C   UNL     1       0.835  -0.487   1.266  0.00  0.00    +0.041 C 
BRANCH  16  18
ATOM     17  C   UNL     1       0.165   1.562   0.004  0.00  0.00    +0.004 C 
ATOM     18  C   UNL     1       0.199   0.033  -0.025  0.00  0.00    -0.000 C 
ENDBRANCH  16  18
ENDBRANCH  15  16
ENDBRANCH  14  15
ENDBRANCH   8  14
ENDBRANCH   1  11
BRANCH   2  19
ATOM     19  C   UNL     1      -0.474  -8.448   4.133  0.00  0.00    +0.230 C 
ATOM     20  O   UNL     1      -1.004  -7.754   4.983  0.00  0.00    -0.283 OA
BRANCH  19  21
ATOM     21  C   UNL     1      -1.297  -9.156   3.148  0.00  0.00    +0.175 A 
ATOM     22  C   UNL     1      -2.663  -9.047   3.003  0.00  0.00    +0.053 A 
ATOM     23  C   UNL     1      -3.022  -9.896   1.945  0.00  0.00    +0.045 A 
ATOM     24  C   UNL     1      -1.885 -10.476   1.496  0.00  0.00    +0.103 A 
ATOM     25  O   UNL     1      -0.851 -10.026   2.218  0.00  0.00    -0.457 OA
ATOM     26  C   UNL     1      -1.797 -11.466   0.363  0.00  0.00    +0.086 C 
ENDBRANCH  19  21
ENDBRANCH   2  19
BRANCH   6  27
ATOM     27  C   UNL     1       4.499  -8.178   2.674  0.00  0.00    +0.137 C 
BRANCH  27  28
ATOM     28  C   UNL     1       5.056  -6.814   3.086  0.00  0.00    +0.179 C 
BRANCH  28  29
ATOM     29  O   UNL     1       5.448  -6.855   4.459  0.00  0.00    -0.376 OA
BRANCH  29  30
ATOM     30  C   UNL     1       5.985  -5.624   4.947  0.00  0.00    +0.187 C 
BRANCH  30  31
ATOM     31  C   UNL     1       6.369  -5.783   6.420  0.00  0.00    +0.184 C 
BRANCH  31  32
ATOM     32  O   UNL     1       7.431  -6.732   6.536  0.00  0.00    -0.393 OA
ATOM     33  H   UNL     1       7.726  -6.883   7.444  0.00  0.00    +0.209 HD
ENDBRANCH  31  32
ENDBRANCH  30  31
ENDBRANCH  29  30
ENDBRANCH  28  29
ENDBRANCH  27  28
ENDBRANCH   6  27
TORSDOF 13
