REMARK  Name = ZINC10560102
REMARK  11 active torsions:
REMARK  status: ('A' for Active; 'I' for Inactive)
REMARK    1  A    between atoms: C_1  and  C_2
REMARK    2  A    between atoms: C_5  and  C_33
REMARK    3  A    between atoms: C_6  and  S_8
REMARK    4  A    between atoms: S_8  and  C_11
REMARK    5  A    between atoms: C_11  and  C_16
REMARK    6  A    between atoms: C_16  and  O_18
REMARK    7  A    between atoms: O_18  and  C_19
REMARK    8  A    between atoms: C_19  and  C_20
REMARK    9  A    between atoms: N_22  and  C_23
REMARK   10  A    between atoms: C_27  and  N_30
REMARK   11  A    between atoms: C_28  and  C_29
REMARK                            x       y       z     vdW  Elec       q    Type
REMARK                         _______ _______ _______ _____ _____    ______ ____
ROOT
ATOM      1  C   UNL     1      -1.774   7.173   3.200  0.00  0.00    +0.336 C 
ATOM      2  O   UNL     1      -1.198   8.164   3.582  0.00  0.00    -0.248 OA
ENDROOT
BRANCH   1   3
ATOM      3  C   UNL     1      -3.280   7.125   3.210  0.00  0.00    +0.188 C 
ATOM      4  C   UNL     1      -3.824   7.327   1.781  0.00  0.00    +0.041 C 
ATOM      5  C   UNL     1      -5.106   8.175   1.980  0.00  0.00    +0.003 C 
ATOM      6  C   UNL     1      -4.703   9.142   3.121  0.00  0.00    +0.003 C 
ATOM      7  C   UNL     1      -3.838   8.278   4.062  0.00  0.00    +0.041 C 
BRANCH   3   8
ATOM      8  S   UNL     1      -3.846   5.533   3.871  0.00  0.00    +0.013 S 
ATOM      9  O   UNL     1      -3.101   5.193   5.033  0.00  0.00    -0.168 OA
ATOM     10  O   UNL     1      -5.266   5.484   3.881  0.00  0.00    -0.168 OA
BRANCH   8  16
ATOM     11  C   UNL     1      -4.453   3.193  -0.763  0.00  0.00    +0.044 C 
ATOM     12  C   UNL     1      -3.688   3.307   0.530  0.00  0.00    -0.049 A 
ATOM     13  C   UNL     1      -2.608   2.477   0.769  0.00  0.00    +0.004 A 
ATOM     14  C   UNL     1      -1.907   2.581   1.956  0.00  0.00    +0.005 A 
ATOM     15  C   UNL     1      -2.285   3.514   2.903  0.00  0.00    -0.026 A 
ATOM     16  C   UNL     1      -3.364   4.344   2.664  0.00  0.00    +0.093 A 
ATOM     17  C   UNL     1      -4.068   4.237   1.479  0.00  0.00    +0.030 A 
ATOM     18  C   UNL     1      -1.520   3.627   4.197  0.00  0.00    +0.046 C 
ENDBRANCH   8  16
ENDBRANCH   3   8
ENDBRANCH   1   3
BRANCH   1  19
ATOM     19  O   UNL     1      -1.071   6.114   2.768  0.00  0.00    -0.454 OA
BRANCH  19  20
ATOM     20  C   UNL     1       0.376   6.231   2.786  0.00  0.00    +0.328 C 
BRANCH  20  21
ATOM     21  C   UNL     1       0.990   4.955   2.269  0.00  0.00    +0.255 C 
ATOM     22  O   UNL     1       0.278   4.038   1.920  0.00  0.00    -0.272 OA
ATOM     23  N   UNL     1       2.330   4.834   2.196  0.00  0.00    -0.282 N 
ATOM     24  H   UNL     1       2.898   5.591   2.407  0.00  0.00    +0.155 HD
BRANCH  23  25
ATOM     25  C   UNL     1       2.903   3.615   1.814  0.00  0.00    +0.039 A 
ATOM     26  C   UNL     1       2.247   2.792   0.907  0.00  0.00    +0.024 A 
ATOM     27  C   UNL     1       2.815   1.591   0.533  0.00  0.00    +0.004 A 
ATOM     28  C   UNL     1       4.034   1.206   1.060  0.00  0.00    +0.033 A 
ATOM     29  C   UNL     1       4.689   2.023   1.963  0.00  0.00    +0.131 A 
ATOM     30  C   UNL     1       4.127   3.227   2.341  0.00  0.00    +0.001 A 
ATOM     31  C   UNL     1       4.841   4.116   3.326  0.00  0.00    +0.048 C 
BRANCH  29  32
ATOM     32  N   UNL     1       5.994   1.607   2.525  0.00  0.00    +0.057 N 
ATOM     33  O   UNL     1       6.438   0.500   2.279  0.00  0.00    -0.126 OA
ATOM     34  O   UNL     1       6.623   2.372   3.233  0.00  0.00    -0.126 OA
ENDBRANCH  29  32
ENDBRANCH  23  25
ENDBRANCH  20  21
ENDBRANCH  19  20
ENDBRANCH   1  19
TORSDOF 8
