REMARK  Name = ZINC09328314
REMARK  4 active torsions:
REMARK  status: ('A' for Active; 'I' for Inactive)
REMARK    1  A    between atoms: C_1  and  C_2
REMARK    2  A    between atoms: C_5  and  N_11
REMARK    3  A    between atoms: C_7  and  N_8
REMARK    4  A    between atoms: C_30  and  C_35
REMARK                            x       y       z     vdW  Elec       q    Type
REMARK                         _______ _______ _______ _____ _____    ______ ____
ROOT
ATOM      1  N   UNL     1       1.141   2.210   0.087  0.00  0.00    -0.210 N 
ATOM      2  C   UNL     1       0.954   3.405   0.739  0.00  0.00    +0.228 C 
ATOM      3  O   UNL     1       1.753   4.308   0.872  0.00  0.00    -0.275 OA
ATOM      4  C   UNL     1      -0.397   3.350   1.228  0.00  0.00    +0.074 C 
ATOM      5  C   UNL     1      -1.473   4.188   1.784  0.00  0.00    -0.054 C 
ATOM      6  C   UNL     1      -2.023   5.180   0.734  0.00  0.00    -0.016 C 
ATOM      7  C   UNL     1      -3.537   5.221   1.026  0.00  0.00    -0.020 C 
ATOM      8  C   UNL     1      -3.842   3.899   1.748  0.00  0.00    -0.076 C 
ATOM      9  C   UNL     1      -2.396   2.174   0.827  0.00  0.00    +0.053 C 
ATOM     10  C   UNL     1      -1.123   2.542   0.077  0.00  0.00    +0.089 C 
ATOM     11  C   UNL     1      -0.028   1.514  -0.078  0.00  0.00    +0.229 C 
ATOM     12  O   UNL     1      -0.155   0.330  -0.305  0.00  0.00    -0.275 OA
ATOM     13  C   UNL     1      -2.321   0.783   1.407  0.00  0.00    -0.027 A 
ATOM     14  C   UNL     1      -1.484   0.185   2.322  0.00  0.00    +0.006 A 
ATOM     15  C   UNL     1      -1.664  -1.143   2.663  0.00  0.00    +0.020 A 
ATOM     16  C   UNL     1      -2.692  -1.868   2.084  0.00  0.00    +0.046 A 
ATOM     17  C   UNL     1      -3.539  -1.270   1.173  0.00  0.00    -0.011 A 
ATOM     18  C   UNL     1      -3.365   0.069   0.829  0.00  0.00    +0.040 A 
ATOM     19  N   UNL     1      -4.084   0.886  -0.045  0.00  0.00    -0.286 N 
ATOM     20  C   UNL     1      -3.589   2.137  -0.091  0.00  0.00    +0.212 C 
ATOM     21  O   UNL     1      -4.021   3.060  -0.748  0.00  0.00    -0.277 OA
ATOM     22  C   UNL     1      -4.656  -2.067   0.550  0.00  0.00    +0.047 C 
ATOM     23 CL   UNL     1      -2.916  -3.538   2.505  0.00  0.00    -0.083 Cl
ATOM     24  H   UNL     1      -4.851   0.588  -0.559  0.00  0.00    +0.155 HD
ATOM     25  N   UNL     1      -2.563   3.198   1.908  0.00  0.00    +0.395 N 
ATOM     26  H   UNL     1      -2.526   2.743   2.827  0.00  0.00    -0.079 HD
ENDROOT
BRANCH   1  31
ATOM     27  C   UNL     1       6.193   0.360  -1.719  0.00  0.00    +0.046 C 
ATOM     28  C   UNL     1       4.851   0.851  -1.240  0.00  0.00    -0.020 A 
ATOM     29  C   UNL     1       3.720   0.083  -1.448  0.00  0.00    +0.007 A 
ATOM     30  C   UNL     1       2.490   0.528  -1.005  0.00  0.00    +0.024 A 
ATOM     31  C   UNL     1       2.389   1.753  -0.359  0.00  0.00    +0.046 A 
ATOM     32  C   UNL     1       3.526   2.521  -0.151  0.00  0.00    +0.057 A 
ATOM     33  C   UNL     1       4.754   2.068  -0.592  0.00  0.00    +0.131 A 
BRANCH  33  34
ATOM     34  N   UNL     1       5.967   2.887  -0.369  0.00  0.00    +0.057 N 
ATOM     35  O   UNL     1       7.027   2.347  -0.107  0.00  0.00    -0.126 OA
ATOM     36  O   UNL     1       5.906   4.101  -0.449  0.00  0.00    -0.126 OA
ENDBRANCH  33  34
ENDBRANCH   1  31
TORSDOF 2
