REMARK  Name = ZINC11868654
REMARK  10 active torsions:
REMARK  status: ('A' for Active; 'I' for Inactive)
REMARK    1  A    between atoms: C_1  and  O_2
REMARK    2  A    between atoms: O_2  and  C_3
REMARK    3  A    between atoms: C_8  and  C_9
REMARK    4  A    between atoms: C_9  and  C_10
REMARK    5  A    between atoms: C_10  and  N_11
REMARK    6  A    between atoms: C_12  and  C_14
REMARK    7  A    between atoms: C_22  and  C_23
REMARK    8  A    between atoms: C_22  and  N_68
REMARK    9  A    between atoms: C_26  and  O_33
REMARK   10  A    between atoms: O_33  and  C_34
REMARK                            x       y       z     vdW  Elec       q    Type
REMARK                         _______ _______ _______ _____ _____    ______ ____
ROOT
ATOM      1  C   UNL     1       0.406  -6.494  -5.363  0.00  0.00    +0.082 C 
ATOM      2  C   UNL     1       1.699  -6.455  -4.545  0.00  0.00    +0.020 C 
ATOM      3  C   UNL     1       0.398  -5.926  -3.945  0.00  0.00    -0.021 C 
ATOM      4  C   UNL     1      -0.271  -6.758  -2.845  0.00  0.00    -0.011 C 
ATOM      5  C   UNL     1       0.197  -6.234  -1.483  0.00  0.00    -0.078 C 
ATOM      6  C   UNL     1       0.688  -4.026  -2.364  0.00  0.00    -0.078 C 
ATOM      7  C   UNL     1       0.250  -4.410  -3.782  0.00  0.00    -0.011 C 
ATOM      8  N   UNL     1      -0.121  -4.792  -1.391  0.00  0.00    +0.382 N 
ATOM      9  H   UNL     1      -1.115  -4.657  -1.607  0.00  0.00    -0.081 HD
ENDROOT
BRANCH   1  11
ATOM     10  N   UNL     1       0.276  -5.964  -7.776  0.00  0.00    -0.315 N 
ATOM     11  C   UNL     1       0.274  -5.518  -6.504  0.00  0.00    +0.217 C 
ATOM     12  O   UNL     1       0.167  -4.331  -6.277  0.00  0.00    -0.275 OA
ATOM     13  H   UNL     1       0.361  -6.913  -7.957  0.00  0.00    +0.149 HD
BRANCH  10  14
ATOM     14  C   UNL     1       0.148  -5.015  -8.885  0.00  0.00    +0.109 C 
BRANCH  14  15
ATOM     15  C   UNL     1       0.177  -5.775 -10.212  0.00  0.00    +0.057 C 
BRANCH  15  21
ATOM     16  C   UNL     1       1.169  -4.151 -11.845  0.00  0.00    +0.123 A 
ATOM     17  C   UNL     1       1.045  -3.257 -12.899  0.00  0.00    +0.046 A 
ATOM     18  C   UNL     1      -0.197  -3.006 -13.448  0.00  0.00    +0.004 A 
ATOM     19  C   UNL     1      -1.316  -3.650 -12.952  0.00  0.00    +0.000 A 
ATOM     20  C   UNL     1      -1.195  -4.545 -11.905  0.00  0.00    +0.007 A 
ATOM     21  C   UNL     1       0.046  -4.799 -11.353  0.00  0.00    -0.004 A 
BRANCH  16  23
ATOM     22  C   UNL     1       3.502  -3.693 -11.857  0.00  0.00    +0.277 C 
ATOM     23  O   UNL     1       2.390  -4.396 -11.300  0.00  0.00    -0.495 OA
ENDBRANCH  16  23
ENDBRANCH  15  21
ENDBRANCH  14  15
ENDBRANCH  10  14
ENDBRANCH   1  11
BRANCH   8  24
ATOM     24  C   UNL     1       0.143  -4.305  -0.022  0.00  0.00    -0.042 C 
BRANCH  24  25
ATOM     25  C   UNL     1       0.080  -2.800  -0.014  0.00  0.00    -0.056 A 
ATOM     26  C   UNL     1       1.228  -2.067  -0.021  0.00  0.00    +0.006 A 
ATOM     27  C   UNL     1       1.192  -0.676  -0.013  0.00  0.00    +0.046 A 
ATOM     28  C   UNL     1       0.002  -0.004   0.002  0.00  0.00    +0.128 A 
ATOM     29  C   UNL     1      -1.206  -0.730   0.015  0.00  0.00    +0.024 A 
ATOM     30  C   UNL     1      -1.164  -2.147   0.002  0.00  0.00    -0.013 A 
ATOM     31  C   UNL     1      -2.369  -2.871   0.009  0.00  0.00    +0.009 A 
ATOM     32  C   UNL     1      -3.555  -2.205   0.024  0.00  0.00    +0.001 A 
ATOM     33  C   UNL     1      -3.596  -0.812   0.032  0.00  0.00    +0.001 A 
ATOM     34  C   UNL     1      -2.449  -0.078   0.025  0.00  0.00    +0.012 A 
BRANCH  28  35
ATOM     35  O   UNL     1      -0.016   1.354   0.009  0.00  0.00    -0.495 OA
ATOM     36  C   UNL     1       1.248   2.020   0.001  0.00  0.00    +0.277 C 
ENDBRANCH  28  35
ENDBRANCH  24  25
ENDBRANCH   8  24
TORSDOF 8
