REMARK  Name = ZINC57557574
REMARK  9 active torsions:
REMARK  status: ('A' for Active; 'I' for Inactive)
REMARK    1  A    between atoms: C_1  and  C_2
REMARK    2  A    between atoms: C_2  and  N_3
REMARK    3  A    between atoms: C_4  and  C_23
REMARK    4  A    between atoms: C_7  and  S_8
REMARK    5  A    between atoms: S_8  and  C_9
REMARK    6  A    between atoms: C_9  and  C_10
REMARK    7  A    between atoms: C_12  and  C_15
REMARK    8  A    between atoms: C_20  and  O_21
REMARK    9  A    between atoms: O_21  and  C_22
REMARK                            x       y       z     vdW  Elec       q    Type
REMARK                         _______ _______ _______ _____ _____    ______ ____
ROOT
ATOM      1  S   UNL     1       3.288  -0.297  -0.190  0.00  0.00    -0.076 S 
ENDROOT
BRANCH   1   6
ATOM      2  N   UNL     1       0.690  -0.456  -1.210  0.00  0.00    -0.302 N 
ATOM      3  C   UNL     1       0.112  -0.840  -2.399  0.00  0.00    +0.165 A 
ATOM      4  N   UNL     1       1.084  -1.218  -3.196  0.00  0.00    -0.128 NA
ATOM      5  N   UNL     1       2.214  -1.099  -2.596  0.00  0.00    -0.122 NA
ATOM      6  C   UNL     1       2.032  -0.631  -1.380  0.00  0.00    +0.192 A 
BRANCH   3   7
ATOM      7  C   UNL     1      -1.331  -0.829  -2.718  0.00  0.00    +0.022 A 
ATOM      8  C   UNL     1      -2.228  -0.055  -1.971  0.00  0.00    +0.031 A 
ATOM      9  C   UNL     1      -3.566  -0.074  -2.303  0.00  0.00    +0.111 A 
ATOM     10  N   UNL     1      -4.004  -0.808  -3.309  0.00  0.00    -0.263 NA
ATOM     11  C   UNL     1      -3.193  -1.551  -4.039  0.00  0.00    +0.111 A 
ATOM     12  C   UNL     1      -1.839  -1.588  -3.780  0.00  0.00    +0.031 A 
ENDBRANCH   3   7
BRANCH   2  14
ATOM     13  C   UNL     1      -0.011   1.572  -0.037  0.00  0.00    +0.027 C 
ATOM     14  C   UNL     1       0.006   0.042  -0.014  0.00  0.00    +0.122 C 
ENDBRANCH   2  14
ENDBRANCH   1   6
BRANCH   1  15
ATOM     15  C   UNL     1       4.828  -0.740  -1.041  0.00  0.00    +0.176 C 
BRANCH  15  16
ATOM     16  C   UNL     1       5.997  -0.498  -0.122  0.00  0.00    +0.238 A 
ATOM     17  N   UNL     1       6.508  -1.367   0.704  0.00  0.00    -0.191 NA
ATOM     18  C   UNL     1       7.541  -0.818   1.369  0.00  0.00    +0.206 A 
ATOM     19  N   UNL     1       7.691   0.419   0.962  0.00  0.00    -0.056 NA
ATOM     20  O   UNL     1       6.690   0.644  -0.020  0.00  0.00    -0.337 OA
BRANCH  18  21
ATOM     21  C   UNL     1       8.371  -1.498   2.392  0.00  0.00    +0.064 A 
ATOM     22  C   UNL     1       8.112  -2.824   2.734  0.00  0.00    +0.015 A 
ATOM     23  C   UNL     1       8.887  -3.453   3.687  0.00  0.00    +0.001 A 
ATOM     24  C   UNL     1       9.922  -2.772   4.304  0.00  0.00    +0.004 A 
ATOM     25  C   UNL     1      10.187  -1.457   3.973  0.00  0.00    +0.046 A 
ATOM     26  C   UNL     1       9.420  -0.815   3.013  0.00  0.00    +0.131 A 
BRANCH  26  27
ATOM     27  O   UNL     1       9.684   0.476   2.683  0.00  0.00    -0.494 OA
ATOM     28  C   UNL     1      10.771   1.110   3.359  0.00  0.00    +0.277 C 
ENDBRANCH  26  27
ENDBRANCH  18  21
ENDBRANCH  15  16
ENDBRANCH   1  15
TORSDOF 7
