REMARK  Name = ZINC41586246
REMARK  9 active torsions:
REMARK  status: ('A' for Active; 'I' for Inactive)
REMARK    1  A    between atoms: C_1  and  C_2
REMARK    2  A    between atoms: C_2  and  O_3
REMARK    3  A    between atoms: O_3  and  C_4
REMARK    4  A    between atoms: C_4  and  C_6
REMARK    5  A    between atoms: N_9  and  C_12
REMARK    6  A    between atoms: C_12  and  C_13
REMARK    7  A    between atoms: C_14  and  O_33
REMARK    8  A    between atoms: C_21  and  C_22
REMARK    9  A    between atoms: C_25  and  N_28
REMARK                            x       y       z     vdW  Elec       q    Type
REMARK                         _______ _______ _______ _____ _____    ______ ____
ROOT
ATOM      1  C   UNL     1       1.669  -6.104  -6.027  0.00  0.00    +0.020 A 
ATOM      2  C   UNL     1       2.751  -6.894  -5.671  0.00  0.00    +0.122 A 
ATOM      3  C   UNL     1       2.755  -8.257  -5.955  0.00  0.00    +0.046 A 
ATOM      4  C   UNL     1       1.689  -8.829  -6.589  0.00  0.00    +0.019 A 
ATOM      5  C   UNL     1       0.593  -8.046  -6.952  0.00  0.00    +0.068 A 
ATOM      6  C   UNL     1       0.575  -6.671  -6.666  0.00  0.00    +0.144 A 
ATOM      7  O   UNL     1      -0.584  -6.130  -7.103  0.00  0.00    -0.451 OA
ATOM      8  C   UNL     1      -1.387  -7.055  -7.679  0.00  0.00    +0.176 C 
ATOM      9  C   UNL     1      -2.612  -6.831  -8.214  0.00  0.00    +0.058 C 
ATOM     10  C   UNL     1      -0.681  -8.347  -7.630  0.00  0.00    +0.231 C 
ATOM     11  O   UNL     1      -1.070  -9.425  -8.044  0.00  0.00    -0.283 OA
ENDROOT
BRANCH   9  12
ATOM     12  C   UNL     1      -3.442  -7.963  -8.651  0.00  0.00    -0.021 A 
ATOM     13  C   UNL     1      -3.490  -9.136  -7.887  0.00  0.00    +0.010 A 
ATOM     14  C   UNL     1      -4.270 -10.193  -8.304  0.00  0.00    +0.033 A 
ATOM     15  C   UNL     1      -5.005 -10.098  -9.473  0.00  0.00    +0.126 A 
ATOM     16  C   UNL     1      -4.962  -8.942 -10.234  0.00  0.00    +0.033 A 
ATOM     17  C   UNL     1      -4.192  -7.873  -9.829  0.00  0.00    +0.010 A 
BRANCH  15  18
ATOM     18  N   UNL     1      -5.839 -11.238  -9.914  0.00  0.00    +0.056 N 
ATOM     19  O   UNL     1      -5.878 -12.249  -9.252  0.00  0.00    -0.126 OA
ATOM     20  O   UNL     1      -6.481 -11.159 -10.935  0.00  0.00    -0.126 OA
ENDBRANCH  15  18
ENDBRANCH   9  12
BRANCH   2  21
ATOM     21  O   UNL     1       3.815  -6.335  -5.041  0.00  0.00    -0.506 OA
ATOM     22  H   UNL     1       3.746  -6.336  -4.077  0.00  0.00    +0.292 HD
ENDBRANCH   2  21
BRANCH   1  23
ATOM     23  C   UNL     1       1.678  -4.630  -5.713  0.00  0.00    -0.036 C 
BRANCH  23  27
ATOM     24  C   UNL     1       1.146  -3.387  -1.672  0.00  0.00    +0.094 C 
ATOM     25  C   UNL     1       0.316  -2.729  -2.778  0.00  0.00    -0.004 C 
ATOM     26  C   UNL     1       0.996  -2.966  -4.128  0.00  0.00    -0.078 C 
ATOM     27  N   UNL     1       1.096  -4.408  -4.383  0.00  0.00    +0.383 N 
ATOM     28  C   UNL     1       1.950  -5.035  -3.367  0.00  0.00    -0.078 C 
ATOM     29  C   UNL     1       1.307  -4.877  -1.987  0.00  0.00    -0.004 C 
ATOM     30  H   UNL     1       0.176  -4.820  -4.348  0.00  0.00    -0.081 HD
BRANCH  24  31
ATOM     31  C   UNL     1       0.442  -3.225  -0.349  0.00  0.00    +0.310 C 
ATOM     32  O   UNL     1       0.104  -4.200   0.278  0.00  0.00    -0.251 OA
BRANCH  31  33
ATOM     33  O   UNL     1       0.192  -1.997   0.131  0.00  0.00    -0.465 OA
BRANCH  33  35
ATOM     34  C   UNL     1      -0.675  -0.449   1.772  0.00  0.00    +0.048 C 
ATOM     35  C   UNL     1      -0.478  -1.917   1.391  0.00  0.00    +0.229 C 
ENDBRANCH  33  35
ENDBRANCH  31  33
ENDBRANCH  24  31
ENDBRANCH  23  27
ENDBRANCH   1  23
TORSDOF 8
