REMARK  Name = ZINC39154626
REMARK  5 active torsions:
REMARK  status: ('A' for Active; 'I' for Inactive)
REMARK    1  A    between atoms: C_1  and  C_2
REMARK    2  A    between atoms: C_2  and  C_28
REMARK    3  A    between atoms: C_15  and  C_18
REMARK    4  A    between atoms: C_21  and  O_24
REMARK    5  A    between atoms: O_24  and  C_25
REMARK                            x       y       z     vdW  Elec       q    Type
REMARK                         _______ _______ _______ _____ _____    ______ ____
ROOT
ATOM      1  C   UNL     1      -0.019   1.526   0.010  0.00  0.00    +0.041 C 
ATOM      2  C   UNL     1       0.002  -0.004   0.002  0.00  0.00    +0.068 C 
ATOM      3  C   UNL     1      -1.436  -0.531  -0.005  0.00  0.00    +0.071 C 
ATOM      4  C   UNL     1      -2.056  -0.231   1.357  0.00  0.00    -0.020 A 
ATOM      5  C   UNL     1      -1.252   0.063   2.405  0.00  0.00    +0.021 A 
ATOM      6  S   UNL     1      -2.358   0.338   3.759  0.00  0.00    -0.075 S 
ATOM      7  C   UNL     1      -3.890   0.058   2.907  0.00  0.00    +0.084 A 
ATOM      8  C   UNL     1      -3.494  -0.239   1.607  0.00  0.00    +0.048 A 
ATOM      9  C   UNL     1      -4.598  -0.523   0.647  0.00  0.00    +0.150 C 
ATOM     10  N   UNL     1      -5.899  -0.476   1.093  0.00  0.00    -0.168 N 
ATOM     11  C   UNL     1      -6.181  -0.178   2.379  0.00  0.00    +0.326 C 
ATOM     12  O   UNL     1      -7.342  -0.146   2.739  0.00  0.00    -0.251 OA
ATOM     13  N   UNL     1      -5.210   0.083   3.271  0.00  0.00    -0.262 N 
ATOM     14  N   UNL     1      -6.755  -0.766   0.060  0.00  0.00    -0.203 NA
ATOM     15  C   UNL     1      -5.899  -1.012  -1.116  0.00  0.00    +0.222 C 
ATOM     16  N   UNL     1      -4.529  -0.829  -0.622  0.00  0.00    -0.242 NA
ATOM     17  C   UNL     1       0.242   0.129   2.384  0.00  0.00    +0.203 C 
ATOM     18  O   UNL     1       0.694  -0.475   1.161  0.00  0.00    -0.368 OA
ATOM     19  C   UNL     1       0.725  -0.494  -1.254  0.00  0.00    +0.041 C 
ATOM     20  H   UNL     1      -7.318  -1.576   0.273  0.00  0.00    +0.148 HD
ATOM     21  H   UNL     1      -5.448   0.294   4.188  0.00  0.00    +0.157 HD
ENDROOT
BRANCH  15  22
ATOM     22  C   UNL     1      -6.205  -0.017  -2.206  0.00  0.00    -0.007 A 
ATOM     23  C   UNL     1      -7.478   0.511  -2.321  0.00  0.00    +0.010 A 
ATOM     24  C   UNL     1      -7.761   1.422  -3.320  0.00  0.00    +0.046 A 
ATOM     25  C   UNL     1      -6.767   1.809  -4.207  0.00  0.00    +0.120 A 
ATOM     26  C   UNL     1      -5.490   1.278  -4.088  0.00  0.00    +0.046 A 
ATOM     27  C   UNL     1      -5.211   0.371  -3.085  0.00  0.00    +0.010 A 
BRANCH  25  28
ATOM     28  O   UNL     1      -7.043   2.705  -5.190  0.00  0.00    -0.495 OA
ATOM     29  C   UNL     1      -5.971   3.057  -6.067  0.00  0.00    +0.277 C 
ENDBRANCH  25  28
ENDBRANCH  15  22
TORSDOF 2
