REMARK  Name = ZINC35037180
REMARK  9 active torsions:
REMARK  status: ('A' for Active; 'I' for Inactive)
REMARK    1  A    between atoms: C_1  and  C_2
REMARK    2  A    between atoms: C_2  and  C_4
REMARK    3  A    between atoms: C_2  and  N_21
REMARK    4  A    between atoms: N_14  and  C_15
REMARK    5  A    between atoms: N_21  and  C_22
REMARK    6  A    between atoms: C_22  and  C_23
REMARK    7  A    between atoms: C_23  and  O_24
REMARK    8  A    between atoms: O_24  and  C_25
REMARK    9  A    between atoms: N_28  and  C_29
REMARK                            x       y       z     vdW  Elec       q    Type
REMARK                         _______ _______ _______ _____ _____    ______ ____
ROOT
ATOM      1  C   UNL     1      -0.571   0.547   0.202  0.00  0.00    +0.036 C 
ATOM      2  C   UNL     1      -0.099  -0.908   0.238  0.00  0.00    +0.141 C 
ENDROOT
BRANCH   2   3
ATOM      3  C   UNL     1       0.660  -1.159   1.516  0.00  0.00    +0.138 A 
ATOM      4  N   UNL     1       1.663  -0.384   1.799  0.00  0.00    -0.231 NA
ATOM      5  C   UNL     1       2.391  -0.549   2.931  0.00  0.00    +0.078 A 
ATOM      6  C   UNL     1       3.470   0.283   3.236  0.00  0.00    +0.028 A 
ATOM      7  C   UNL     1       4.182   0.080   4.397  0.00  0.00    +0.002 A 
ATOM      8  C   UNL     1       3.841  -0.945   5.270  0.00  0.00    +0.001 A 
ATOM      9  C   UNL     1       2.782  -1.780   4.991  0.00  0.00    +0.015 A 
ATOM     10  C   UNL     1       2.048  -1.591   3.822  0.00  0.00    +0.065 A 
ATOM     11  C   UNL     1       0.907  -2.450   3.473  0.00  0.00    +0.266 A 
ATOM     12  O   UNL     1       0.559  -3.364   4.197  0.00  0.00    -0.267 OA
ATOM     13  N   UNL     1       0.255  -2.181   2.317  0.00  0.00    -0.263 N 
BRANCH  13  14
ATOM     14  C   UNL     1      -0.842  -2.966   1.940  0.00  0.00    +0.051 A 
ATOM     15  C   UNL     1      -0.651  -4.284   1.546  0.00  0.00    +0.026 A 
ATOM     16  C   UNL     1      -1.735  -5.056   1.175  0.00  0.00    +0.002 A 
ATOM     17  C   UNL     1      -3.009  -4.517   1.196  0.00  0.00    +0.000 A 
ATOM     18  C   UNL     1      -3.201  -3.205   1.588  0.00  0.00    +0.002 A 
ATOM     19  C   UNL     1      -2.122  -2.430   1.965  0.00  0.00    +0.026 A 
ENDBRANCH  13  14
ENDBRANCH   2   3
BRANCH   2  20
ATOM     20  N   UNL     1       0.777  -1.166  -0.908  0.00  0.00    -0.274 N 
ATOM     21  C   UNL     1       0.393  -2.030  -1.869  0.00  0.00    +0.303 C 
ATOM     22  O   UNL     1      -0.680  -2.595  -1.784  0.00  0.00    -0.253 OA
ATOM     23  N   UNL     1       1.198  -2.267  -2.923  0.00  0.00    -0.294 N 
ATOM     24  H   UNL     1       2.055  -1.816  -2.990  0.00  0.00    +0.151 HD
BRANCH  23  25
ATOM     25  C   UNL     1       0.781  -3.206  -3.967  0.00  0.00    +0.037 C 
ATOM     26  C   UNL     1       0.561  -4.589  -3.351  0.00  0.00    +0.029 C 
ATOM     27  C   UNL     1       0.125  -5.570  -4.441  0.00  0.00    -0.008 C 
ATOM     28  C   UNL     1       1.213  -5.657  -5.514  0.00  0.00    +0.007 C 
ATOM     29  C   UNL     1       1.432  -4.273  -6.130  0.00  0.00    -0.008 C 
ATOM     30  C   UNL     1       1.869  -3.293  -5.040  0.00  0.00    +0.029 C 
ATOM     31  C   UNL     1       0.129  -3.784  -6.764  0.00  0.00    +0.007 C 
ATOM     32  C   UNL     1      -0.959  -3.698  -5.691  0.00  0.00    -0.008 C 
ATOM     33  C   UNL     1      -1.179  -5.081  -5.075  0.00  0.00    +0.007 C 
ATOM     34  C   UNL     1      -0.523  -2.717  -4.601  0.00  0.00    +0.029 C 
ENDBRANCH  23  25
BRANCH  20  35
ATOM     35  C   UNL     1       2.070  -0.485  -1.010  0.00  0.00    +0.138 C 
BRANCH  35  36
ATOM     36  C   UNL     1       3.166  -1.383  -0.432  0.00  0.00    +0.178 C 
BRANCH  36  37
ATOM     37  O   UNL     1       3.280  -2.566  -1.226  0.00  0.00    -0.381 OA
ATOM     38  C   UNL     1       4.201  -3.527  -0.707  0.00  0.00    +0.194 C 
ENDBRANCH  36  37
ENDBRANCH  35  36
ENDBRANCH  20  35
ENDBRANCH   2  20
TORSDOF 7
