REMARK  Name = ZINC09496354
REMARK  6 active torsions:
REMARK  status: ('A' for Active; 'I' for Inactive)
REMARK    1  A    between atoms: C_6  and  N_11
REMARK    2  A    between atoms: C_12  and  C_14
REMARK    3  A    between atoms: C_14  and  S_15
REMARK    4  A    between atoms: S_15  and  C_16
REMARK    5  A    between atoms: C_19  and  C_27
REMARK    6  A    between atoms: N_20  and  C_21
REMARK                            x       y       z     vdW  Elec       q    Type
REMARK                         _______ _______ _______ _____ _____    ______ ____
ROOT
ATOM      1  S   UNL     1       3.897  10.152   0.349  0.00  0.00    -0.077 S 
ENDROOT
BRANCH   1   2
ATOM      2  C   UNL     1       3.583  11.881   0.479  0.00  0.00    +0.193 A 
ATOM      3  N   UNL     1       2.403  12.460   0.480  0.00  0.00    -0.122 NA
ATOM      4  N   UNL     1       2.536  13.734   0.593  0.00  0.00    -0.125 NA
ATOM      5  C   UNL     1       3.811  14.048   0.661  0.00  0.00    +0.201 A 
ATOM      6  N   UNL     1       4.521  12.869   0.590  0.00  0.00    -0.297 N 
BRANCH   6   7
ATOM      7  C   UNL     1       5.976  12.708   0.626  0.00  0.00    +0.091 C 
ATOM      8  C   UNL     1       6.448  12.038  -0.666  0.00  0.00    +0.025 C 
ATOM      9  C   UNL     1       7.968  11.870  -0.628  0.00  0.00    +0.002 C 
ATOM     10  C   UNL     1       8.355  10.998   0.569  0.00  0.00    +0.000 C 
ATOM     11  C   UNL     1       7.884  11.668   1.861  0.00  0.00    +0.002 C 
ATOM     12  C   UNL     1       6.363  11.837   1.823  0.00  0.00    +0.025 C 
ENDBRANCH   6   7
BRANCH   5  13
ATOM     13  C   UNL     1       4.374  15.401   0.788  0.00  0.00    +0.172 A 
ATOM     14  C   UNL     1       3.705  16.569   0.573  0.00  0.00    +0.053 A 
ATOM     15  C   UNL     1       4.623  17.611   0.808  0.00  0.00    +0.042 A 
ATOM     16  C   UNL     1       5.794  17.037   1.151  0.00  0.00    +0.196 A 
ATOM     17  O   UNL     1       5.638  15.702   1.143  0.00  0.00    -0.460 OA
ENDBRANCH   5  13
ENDBRANCH   1   2
BRANCH   1  18
ATOM     18  C   UNL     1       2.200   9.531   0.243  0.00  0.00    +0.173 C 
BRANCH  18  20
ATOM     19  N   UNL     1       1.064   7.345   0.028  0.00  0.00    -0.285 N 
ATOM     20  C   UNL     1       2.221   8.029   0.122  0.00  0.00    +0.227 C 
ATOM     21  O   UNL     1       3.279   7.437   0.109  0.00  0.00    -0.275 OA
ATOM     22  H   UNL     1       0.221   7.822  -0.029  0.00  0.00    +0.155 HD
BRANCH  19  28
ATOM     23  C   UNL     1       0.152   1.071   0.540  0.00  0.00    +0.001 A 
ATOM     24  C   UNL     1      -0.900   1.734   1.169  0.00  0.00    +0.001 A 
ATOM     25  C   UNL     1      -0.945   3.094   1.210  0.00  0.00    +0.008 A 
ATOM     26  C   UNL     1       0.077   3.843   0.601  0.00  0.00    -0.016 A 
ATOM     27  C   UNL     1       0.059   5.247   0.620  0.00  0.00    +0.031 A 
ATOM     28  C   UNL     1       1.078   5.946   0.012  0.00  0.00    +0.034 A 
ATOM     29  C   UNL     1       2.129   5.271  -0.622  0.00  0.00    +0.024 A 
ATOM     30  C   UNL     1       2.168   3.913  -0.653  0.00  0.00    +0.010 A 
ATOM     31  C   UNL     1       1.144   3.168  -0.043  0.00  0.00    -0.018 A 
ATOM     32  C   UNL     1       1.159   1.763  -0.059  0.00  0.00    +0.008 A 
ENDBRANCH  19  28
ENDBRANCH  18  20
ENDBRANCH   1  18
TORSDOF 6
