REMARK  Name = ZINC23081012
REMARK  10 active torsions:
REMARK  status: ('A' for Active; 'I' for Inactive)
REMARK    1  A    between atoms: C_1  and  N_2
REMARK    2  A    between atoms: N_2  and  C_3
REMARK    3  A    between atoms: N_2  and  S_4
REMARK    4  A    between atoms: S_4  and  C_7
REMARK    5  A    between atoms: C_9  and  N_14
REMARK    6  A    between atoms: C_15  and  C_17
REMARK    7  A    between atoms: C_17  and  O_18
REMARK    8  A    between atoms: O_18  and  C_19
REMARK    9  A    between atoms: C_19  and  C_21
REMARK   10  A    between atoms: C_25  and  N_30
REMARK                            x       y       z     vdW  Elec       q    Type
REMARK                         _______ _______ _______ _____ _____    ______ ____
ROOT
ATOM      1  N   UNL     1       4.070  -3.811  -2.404  0.00  0.00    -0.283 N 
ATOM      2  C   UNL     1       5.325  -3.997  -2.858  0.00  0.00    +0.255 C 
ATOM      3  O   UNL     1       6.022  -3.040  -3.125  0.00  0.00    -0.272 OA
ATOM      4  H   UNL     1       3.469  -4.673  -2.081  0.00  0.00    +0.155 HD
ENDROOT
BRANCH   1   7
ATOM      5  C   UNL     1       2.110  -0.911  -1.276  0.00  0.00    +0.125 A 
ATOM      6  C   UNL     1       2.644  -2.183  -1.331  0.00  0.00    +0.053 A 
ATOM      7  C   UNL     1       3.532  -2.520  -2.344  0.00  0.00    +0.035 A 
ATOM      8  C   UNL     1       3.890  -1.572  -3.293  0.00  0.00    +0.025 A 
ATOM      9  C   UNL     1       3.357  -0.299  -3.232  0.00  0.00    +0.024 A 
ATOM     10  C   UNL     1       2.468   0.032  -2.224  0.00  0.00    +0.067 A 
ATOM     11 CL   UNL     1       1.800   1.633  -2.149  0.00  0.00    -0.082 Cl
BRANCH   5  12
ATOM     12  S   UNL     1       0.978  -0.485   0.005  0.00  0.00    +0.062 S 
ATOM     13  O   UNL     1       0.836  -1.639   0.821  0.00  0.00    -0.153 OA
ATOM     14  O   UNL     1      -0.129   0.145  -0.624  0.00  0.00    -0.153 OA
BRANCH  12  16
ATOM     15  C   UNL     1       1.541   2.088   0.618  0.00  0.00    +0.131 C 
ATOM     16  N   UNL     1       1.710   0.669   0.941  0.00  0.00    -0.183 NA
ATOM     17  C   UNL     1       2.525   0.271   2.091  0.00  0.00    +0.131 C 
ENDBRANCH  12  16
ENDBRANCH   5  12
ENDBRANCH   1   7
BRANCH   2  18
ATOM     18  C   UNL     1       5.863  -5.393  -3.036  0.00  0.00    +0.328 C 
BRANCH  18  19
ATOM     19  O   UNL     1       7.226  -5.328  -3.533  0.00  0.00    -0.451 OA
BRANCH  19  20
ATOM     20  C   UNL     1       7.856  -6.500  -3.747  0.00  0.00    +0.346 C 
ATOM     21  O   UNL     1       7.283  -7.549  -3.525  0.00  0.00    -0.244 OA
BRANCH  20  22
ATOM     22  C   UNL     1       9.236  -6.511  -4.249  0.00  0.00    +0.097 A 
ATOM     23  C   UNL     1      10.030  -7.581  -4.524  0.00  0.00    +0.031 A 
ATOM     24  C   UNL     1      11.337  -7.380  -5.003  0.00  0.00    -0.008 A 
ATOM     25  C   UNL     1      12.308  -8.357  -5.343  0.00  0.00    +0.041 A 
ATOM     26  C   UNL     1      13.534  -7.990  -5.795  0.00  0.00    +0.127 A 
ATOM     27  C   UNL     1      13.887  -6.654  -5.941  0.00  0.00    +0.034 A 
ATOM     28  C   UNL     1      12.973  -5.670  -5.622  0.00  0.00    +0.018 A 
ATOM     29  C   UNL     1      11.724  -6.028  -5.162  0.00  0.00    +0.020 A 
ATOM     30  S   UNL     1      10.282  -5.123  -4.657  0.00  0.00    -0.082 S 
BRANCH  26  31
ATOM     31  N   UNL     1      14.520  -9.039  -6.140  0.00  0.00    +0.056 N 
ATOM     32  O   UNL     1      15.625  -8.726  -6.547  0.00  0.00    -0.126 OA
ATOM     33  O   UNL     1      14.226 -10.215  -6.018  0.00  0.00    -0.126 OA
ENDBRANCH  26  31
ENDBRANCH  20  22
ENDBRANCH  19  20
ENDBRANCH  18  19
ENDBRANCH   2  18
TORSDOF 8
