REMARK  Name = ZINC36369555
REMARK  8 active torsions:
REMARK  status: ('A' for Active; 'I' for Inactive)
REMARK    1  A    between atoms: C_1  and  C_2
REMARK    2  A    between atoms: C_8  and  C_42
REMARK    3  A    between atoms: C_9  and  O_41
REMARK    4  A    between atoms: C_19  and  C_21
REMARK    5  A    between atoms: C_21  and  N_22
REMARK    6  A    between atoms: N_25  and  C_28
REMARK    7  A    between atoms: C_28  and  C_29
REMARK    8  A    between atoms: C_28  and  C_35
REMARK                            x       y       z     vdW  Elec       q    Type
REMARK                         _______ _______ _______ _____ _____    ______ ____
ROOT
ATOM      1  N   UNL     1       2.007   0.569   6.670  0.00  0.00    +0.382 N 
ATOM      2  C   UNL     1       2.103   1.827   5.918  0.00  0.00    -0.063 C 
ATOM      3  C   UNL     1       2.971   2.821   6.693  0.00  0.00    +0.067 C 
ATOM      4  N   UNL     1       2.372   3.064   8.013  0.00  0.00    -0.295 NA
ATOM      5  C   UNL     1       2.246   1.810   8.768  0.00  0.00    +0.067 C 
ATOM      6  C   UNL     1       1.385   0.824   7.976  0.00  0.00    -0.063 C 
ATOM      7  H   UNL     1       2.932   0.188   6.807  0.00  0.00    -0.082 HD
ENDROOT
BRANCH   1   8
ATOM      8  C   UNL     1       1.190  -0.391   5.917  0.00  0.00    -0.064 C 
BRANCH   8  23
ATOM      9  C   UNL     1       0.037   1.013   0.155  0.00  0.00    +0.008 C 
ATOM     10  C   UNL     1       0.336  -0.488   0.127  0.00  0.00    -0.001 C 
ATOM     11  C   UNL     1       1.035  -0.829  -1.188  0.00  0.00    +0.008 C 
ATOM     12  C   UNL     1       1.243  -2.346  -1.241  0.00  0.00    +0.027 C 
ATOM     13  C   UNL     1       2.020  -2.764  -0.025  0.00  0.00    -0.027 C 
ATOM     14  C   UNL     1       2.003  -2.099   1.093  0.00  0.00    -0.061 C 
ATOM     15  C   UNL     1       1.217  -0.839   1.322  0.00  0.00    +0.018 C 
ATOM     16  C   UNL     1       0.351  -1.012   2.566  0.00  0.00    +0.132 C 
ATOM     17  C   UNL     1       1.014  -1.657   3.745  0.00  0.00    +0.071 C 
ATOM     18  C   UNL     1       1.902  -2.874   3.453  0.00  0.00    +0.187 C 
ATOM     19  C   UNL     1       2.822  -2.624   2.254  0.00  0.00    +0.076 C 
ATOM     20  O   UNL     1       2.774  -2.907   4.618  0.00  0.00    -0.460 OA
ATOM     21  C   UNL     1       3.113  -1.629   4.898  0.00  0.00    +0.309 C 
ATOM     22  O   UNL     1       4.183  -1.250   5.306  0.00  0.00    -0.251 OA
ATOM     23  C   UNL     1       1.903  -0.753   4.607  0.00  0.00    +0.090 C 
ATOM     24  C   UNL     1       2.192   0.326   1.525  0.00  0.00    +0.018 C 
BRANCH  16  25
ATOM     25  O   UNL     1      -0.804  -1.792   2.228  0.00  0.00    -0.391 OA
ATOM     26  H   UNL     1      -1.406  -1.946   2.970  0.00  0.00    +0.210 HD
ENDBRANCH  16  25
ENDBRANCH   8  23
ENDBRANCH   1   8
BRANCH   4  27
ATOM     27  C   UNL     1       3.146   4.058   8.768  0.00  0.00    +0.117 C 
BRANCH  27  28
ATOM     28  C   UNL     1       3.234   5.335   7.973  0.00  0.00    -0.026 A 
ATOM     29  C   UNL     1       2.112   5.833   7.338  0.00  0.00    +0.005 A 
ATOM     30  C   UNL     1       2.192   7.005   6.609  0.00  0.00    +0.000 A 
ATOM     31  C   UNL     1       3.395   7.679   6.515  0.00  0.00    +0.000 A 
ATOM     32  C   UNL     1       4.518   7.182   7.151  0.00  0.00    +0.000 A 
ATOM     33  C   UNL     1       4.436   6.012   7.884  0.00  0.00    +0.005 A 
ENDBRANCH  27  28
BRANCH  27  34
ATOM     34  C   UNL     1       2.465   4.331  10.084  0.00  0.00    -0.026 A 
ATOM     35  C   UNL     1       1.095   4.513  10.129  0.00  0.00    +0.005 A 
ATOM     36  C   UNL     1       0.471   4.763  11.337  0.00  0.00    +0.000 A 
ATOM     37  C   UNL     1       1.216   4.832  12.499  0.00  0.00    +0.000 A 
ATOM     38  C   UNL     1       2.585   4.650  12.454  0.00  0.00    +0.000 A 
ATOM     39  C   UNL     1       3.209   4.395  11.247  0.00  0.00    +0.005 A 
ENDBRANCH  27  34
ENDBRANCH   4  27
TORSDOF 6
