REMARK  Name = ZINC28956759
REMARK  9 active torsions:
REMARK  status: ('A' for Active; 'I' for Inactive)
REMARK    1  A    between atoms: C_1  and  C_2
REMARK    2  A    between atoms: C_2  and  C_3
REMARK    3  A    between atoms: N_7  and  C_14
REMARK    4  A    between atoms: C_8  and  C_10
REMARK    5  A    between atoms: C_18  and  C_20
REMARK    6  A    between atoms: C_20  and  C_21
REMARK    7  A    between atoms: C_21  and  C_23
REMARK    8  A    between atoms: C_21  and  N_33
REMARK    9  A    between atoms: C_23  and  C_24
REMARK                            x       y       z     vdW  Elec       q    Type
REMARK                         _______ _______ _______ _____ _____    ______ ____
ROOT
ATOM      1  C   UNL     1       5.802  -1.557  -4.495  0.00  0.00    +0.126 C 
ATOM      2  C   UNL     1       6.176  -3.014  -4.417  0.00  0.00    +0.083 A 
ATOM      3  C   UNL     1       6.414  -3.666  -3.259  0.00  0.00    +0.045 A 
ATOM      4  N   UNL     1       6.720  -4.953  -3.583  0.00  0.00    -0.327 N 
ATOM      5  C   UNL     1       6.655  -5.048  -4.931  0.00  0.00    +0.215 A 
ATOM      6  N   UNL     1       6.328  -3.881  -5.421  0.00  0.00    -0.227 NA
ATOM      7  C   UNL     1       7.056  -6.030  -2.649  0.00  0.00    +0.150 C 
ATOM      8  C   UNL     1       6.341  -3.042  -1.890  0.00  0.00    +0.074 C 
ATOM      9  C   UNL     1       6.400  -1.516  -2.038  0.00  0.00    +0.114 C 
ATOM     10  N   UNL     1       5.500  -1.103  -3.125  0.00  0.00    -0.293 N 
ATOM     11  C   UNL     1       4.421  -0.335  -2.874  0.00  0.00    +0.215 C 
ATOM     12  O   UNL     1       3.689  -0.003  -3.782  0.00  0.00    -0.276 OA
ENDROOT
BRANCH   5  13
ATOM     13  C   UNL     1       6.917  -6.295  -5.737  0.00  0.00    +0.451 C 
ATOM     14  F   UNL     1       7.095  -5.953  -7.081  0.00  0.00    -0.163 F 
ATOM     15  F   UNL     1       8.072  -6.924  -5.259  0.00  0.00    -0.163 F 
ATOM     16  F   UNL     1       5.828  -7.165  -5.616  0.00  0.00    -0.163 F 
ENDBRANCH   5  13
BRANCH   1  18
ATOM     17  C   UNL     1       6.561   0.714  -5.208  0.00  0.00    +0.006 C 
ATOM     18  C   UNL     1       6.973  -0.752  -5.063  0.00  0.00    +0.025 C 
ENDBRANCH   1  18
BRANCH  11  19
ATOM     19  C   UNL     1       4.126   0.113  -1.466  0.00  0.00    +0.080 C 
BRANCH  19  20
ATOM     20  C   UNL     1       2.857   0.968  -1.458  0.00  0.00    -0.062 C 
BRANCH  20  21
ATOM     21  N   UNL     1       3.094   2.203  -2.217  0.00  0.00    +0.381 N 
ATOM     22  H   UNL     1       2.182   2.817  -2.211  0.00  0.00    -0.090 HD
ATOM     23  H   UNL     1       3.360   1.951  -3.254  0.00  0.00    -0.090 HD
ATOM     24  H   UNL     1       3.918   2.766  -1.754  0.00  0.00    -0.090 HD
ENDBRANCH  20  21
BRANCH  20  25
ATOM     25  C   UNL     1       2.488   1.319  -0.015  0.00  0.00    +0.022 C 
BRANCH  25  26
ATOM     26  C   UNL     1       1.173   2.055   0.002  0.00  0.00    -0.011 A 
ATOM     27  C   UNL     1       1.156   3.437   0.009  0.00  0.00    +0.047 A 
ATOM     28  C   UNL     1      -0.051   4.114   0.025  0.00  0.00    +0.159 A 
ATOM     29  C   UNL     1      -1.243   3.406   0.033  0.00  0.00    +0.161 A 
ATOM     30  C   UNL     1      -1.225   2.022   0.019  0.00  0.00    +0.080 A 
ATOM     31  C   UNL     1      -0.016   1.347   0.009  0.00  0.00    +0.129 A 
ATOM     32  F   UNL     1       0.002  -0.004   0.002  0.00  0.00    -0.205 F 
ATOM     33  F   UNL     1      -2.422   4.066   0.048  0.00  0.00    -0.202 F 
ATOM     34  F   UNL     1      -0.068   5.465   0.033  0.00  0.00    -0.202 F 
ENDBRANCH  25  26
ENDBRANCH  20  25
ENDBRANCH  19  20
ENDBRANCH  11  19
TORSDOF 7
