REMARK  Name = ZINC22076316
REMARK  9 active torsions:
REMARK  status: ('A' for Active; 'I' for Inactive)
REMARK    1  A    between atoms: C_1  and  C_2
REMARK    2  A    between atoms: C_2  and  O_3
REMARK    3  A    between atoms: O_3  and  C_4
REMARK    4  A    between atoms: C_6  and  C_20
REMARK    5  A    between atoms: C_9  and  O_10
REMARK    6  A    between atoms: O_10  and  C_11
REMARK    7  A    between atoms: C_11  and  C_12
REMARK    8  A    between atoms: C_20  and  N_21
REMARK    9  A    between atoms: N_21  and  C_22
REMARK                            x       y       z     vdW  Elec       q    Type
REMARK                         _______ _______ _______ _____ _____    ______ ____
ROOT
ATOM      1  C   UNL     1      -5.516   1.369  -1.169  0.00  0.00    +0.163 A 
ATOM      2  C   UNL     1      -6.787   0.818  -1.161  0.00  0.00    +0.051 A 
ATOM      3  C   UNL     1      -7.413   0.540   0.039  0.00  0.00    -0.060 A 
ATOM      4  C   UNL     1      -6.772   0.806   1.235  0.00  0.00    +0.021 A 
ATOM      5  C   UNL     1      -5.500   1.351   1.234  0.00  0.00    +0.063 A 
ATOM      6  C   UNL     1      -4.867   1.631   0.033  0.00  0.00    +0.176 A 
ATOM      7 BR   UNL     1      -4.626   1.712   2.871  0.00  0.00    -0.046 Br
ENDROOT
BRANCH   1   8
ATOM      8  O   UNL     1      -4.901   1.648  -2.350  0.00  0.00    -0.489 OA
BRANCH   8  10
ATOM      9  C   UNL     1      -4.781   1.730  -4.762  0.00  0.00    +0.048 C 
ATOM     10  C   UNL     1      -5.627   1.352  -3.545  0.00  0.00    +0.226 C 
ENDBRANCH   8  10
ENDBRANCH   1   8
BRANCH   6  11
ATOM     11  O   UNL     1      -3.617   2.167   0.031  0.00  0.00    -0.483 OA
BRANCH  11  12
ATOM     12  C   UNL     1      -2.519   1.253   0.020  0.00  0.00    +0.267 C 
BRANCH  12  13
ATOM     13  C   UNL     1      -1.224   2.023   0.019  0.00  0.00    +0.025 A 
ATOM     14  C   UNL     1      -1.242   3.405   0.032  0.00  0.00    +0.010 A 
ATOM     15  C   UNL     1      -0.054   4.112   0.025  0.00  0.00    +0.001 A 
ATOM     16  C   UNL     1       1.153   3.438   0.010  0.00  0.00    +0.003 A 
ATOM     17  C   UNL     1       1.173   2.056   0.002  0.00  0.00    +0.039 A 
ATOM     18  C   UNL     1      -0.016   1.347   0.009  0.00  0.00    +0.130 A 
ATOM     19  F   UNL     1       0.002  -0.004   0.002  0.00  0.00    -0.205 F 
ENDBRANCH  12  13
ENDBRANCH  11  12
ENDBRANCH   6  11
BRANCH   3  20
ATOM     20  C   UNL     1      -8.799  -0.053   0.045  0.00  0.00    -0.046 C 
BRANCH  20  21
ATOM     21  N   UNL     1      -9.794   1.027   0.057  0.00  0.00    +0.384 N 
ATOM     22  H   UNL     1      -9.656   1.643   0.957  0.00  0.00    -0.085 HD
ATOM     23  H   UNL     1      -9.667   1.652  -0.839  0.00  0.00    -0.085 HD
BRANCH  21  24
ATOM     24  C   UNL     1     -11.159   0.484   0.063  0.00  0.00    -0.071 C 
ATOM     25  C   UNL     1     -11.596   0.186  -1.373  0.00  0.00    -0.016 C 
ATOM     26  C   UNL     1     -12.823  -0.728  -1.353  0.00  0.00    -0.002 C 
ATOM     27  C   UNL     1     -12.614  -1.841  -0.325  0.00  0.00    -0.000 C 
ATOM     28  C   UNL     1     -13.602  -1.661   0.830  0.00  0.00    -0.000 C 
ATOM     29  C   UNL     1     -13.130  -0.519   1.731  0.00  0.00    -0.000 C 
ATOM     30  C   UNL     1     -13.427   0.821   1.056  0.00  0.00    -0.002 C 
ATOM     31  C   UNL     1     -12.112   1.508   0.684  0.00  0.00    -0.016 C 
ENDBRANCH  21  24
ENDBRANCH  20  21
ENDBRANCH   3  20
TORSDOF 8
