REMARK  Name = ZINC02112045
REMARK  7 active torsions:
REMARK  status: ('A' for Active; 'I' for Inactive)
REMARK    1  A    between atoms: C_1  and  C_2
REMARK    2  A    between atoms: C_2  and  C_3
REMARK    3  A    between atoms: C_3  and  N_4
REMARK    4  A    between atoms: C_24  and  C_26
REMARK    5  A    between atoms: C_31  and  O_32
REMARK    6  A    between atoms: O_32  and  C_33
REMARK    7  A    between atoms: C_33  and  C_34
REMARK                            x       y       z     vdW  Elec       q    Type
REMARK                         _______ _______ _______ _____ _____    ______ ____
ROOT
ATOM      1  N   UNL     1      -0.899   1.128  -1.291  0.00  0.00    -0.291 N 
ATOM      2  C   UNL     1      -0.434   2.445  -1.693  0.00  0.00    +0.203 C 
ATOM      3  C   UNL     1      -1.232   3.000  -2.827  0.00  0.00    +0.234 C 
ATOM      4  O   UNL     1      -0.947   4.109  -3.230  0.00  0.00    -0.274 OA
ATOM      5  N   UNL     1      -2.237   2.360  -3.428  0.00  0.00    -0.276 N 
ATOM      6  C   UNL     1      -2.627   0.991  -3.092  0.00  0.00    +0.167 C 
ATOM      7  C   UNL     1      -1.876   0.467  -1.910  0.00  0.00    +0.237 C 
ATOM      8  O   UNL     1      -2.178  -0.628  -1.485  0.00  0.00    -0.274 OA
ATOM      9  C   UNL     1      -2.372   0.082  -4.303  0.00  0.00    +0.069 C 
ATOM     10  C   UNL     1      -2.891   0.766  -5.542  0.00  0.00    -0.015 A 
ATOM     11  C   UNL     1      -3.182   0.181  -6.835  0.00  0.00    +0.003 A 
ATOM     12  C   UNL     1      -3.089  -1.125  -7.327  0.00  0.00    +0.010 A 
ATOM     13  C   UNL     1      -3.455  -1.322  -8.636  0.00  0.00    +0.001 A 
ATOM     14  C   UNL     1      -3.897  -0.285  -9.441  0.00  0.00    +0.002 A 
ATOM     15  C   UNL     1      -3.998   1.016  -8.980  0.00  0.00    +0.026 A 
ATOM     16  C   UNL     1      -3.634   1.246  -7.655  0.00  0.00    +0.047 A 
ATOM     17  N   UNL     1      -3.613   2.381  -6.895  0.00  0.00    -0.356 N 
ATOM     18  H   UNL     1      -3.872   3.263  -7.202  0.00  0.00    +0.166 HD
ATOM     19  C   UNL     1      -3.169   2.084  -5.633  0.00  0.00    +0.046 A 
ATOM     20  C   UNL     1      -3.000   3.054  -4.486  0.00  0.00    +0.157 C 
ENDROOT
BRANCH  20  21
ATOM     21  C   UNL     1      -4.351   3.464  -3.959  0.00  0.00    +0.020 A 
ATOM     22  C   UNL     1      -5.477   2.742  -4.306  0.00  0.00    +0.009 A 
ATOM     23  C   UNL     1      -6.716   3.114  -3.819  0.00  0.00    +0.001 A 
ATOM     24  C   UNL     1      -6.834   4.216  -2.992  0.00  0.00    +0.004 A 
ATOM     25  C   UNL     1      -5.712   4.944  -2.646  0.00  0.00    +0.046 A 
ATOM     26  C   UNL     1      -4.467   4.569  -3.130  0.00  0.00    +0.126 A 
BRANCH  26  27
ATOM     27  O   UNL     1      -3.362   5.285  -2.791  0.00  0.00    -0.492 OA
BRANCH  27  28
ATOM     28  C   UNL     1      -3.556   6.411  -1.933  0.00  0.00    +0.225 C 
ATOM     29  C   UNL     1      -2.209   7.086  -1.665  0.00  0.00    +0.048 C 
ENDBRANCH  27  28
ENDBRANCH  26  27
ENDBRANCH  20  21
BRANCH   1  30
ATOM     30  C   UNL     1      -0.253   0.488  -0.143  0.00  0.00    +0.108 C 
BRANCH  30  32
ATOM     31  C   UNL     1      -0.317   0.206   2.339  0.00  0.00    +0.005 C 
ATOM     32  C   UNL     1      -0.992   0.875   1.139  0.00  0.00    +0.016 C 
ENDBRANCH  30  32
ENDBRANCH   1  30
TORSDOF 5
