REMARK  Name = ZINC02585027
REMARK  12 active torsions:
REMARK  status: ('A' for Active; 'I' for Inactive)
REMARK    1  A    between atoms: C_1  and  C_2
REMARK    2  A    between atoms: C_5  and  S_8
REMARK    3  A    between atoms: S_8  and  N_11
REMARK    4  A    between atoms: N_11  and  N_12
REMARK    5  A    between atoms: C_13  and  C_14
REMARK    6  A    between atoms: C_17  and  O_20
REMARK    7  A    between atoms: O_20  and  C_21
REMARK    8  A    between atoms: C_21  and  C_23
REMARK    9  A    between atoms: C_26  and  O_31
REMARK   10  A    between atoms: C_27  and  O_29
REMARK   11  A    between atoms: O_29  and  C_30
REMARK   12  A    between atoms: O_31  and  C_32
REMARK                            x       y       z     vdW  Elec       q    Type
REMARK                         _______ _______ _______ _____ _____    ______ ____
ROOT
ATOM      1  C   UNL     1       1.165   1.753  -0.021  0.00  0.00    -0.005 A 
ATOM      2  C   UNL     1      -0.042   1.054  -0.102  0.00  0.00    +0.013 A 
ATOM      3  C   UNL     1      -1.236   1.741  -0.086  0.00  0.00    +0.047 A 
ATOM      4  C   UNL     1      -1.242   3.126   0.024  0.00  0.00    +0.132 A 
ATOM      5  C   UNL     1      -0.045   3.825   0.105  0.00  0.00    +0.047 A 
ATOM      6  C   UNL     1       1.155   3.146   0.084  0.00  0.00    +0.013 A 
ENDROOT
BRANCH   1   8
ATOM      7  N   UNL     1       3.566   1.674   0.032  0.00  0.00    -0.174 NA
ATOM      8  C   UNL     1       2.446   1.023  -0.044  0.00  0.00    +0.139 C 
BRANCH   7   9
ATOM      9  N   UNL     1       4.782   0.980   0.010  0.00  0.00    -0.137 N 
ATOM     10  H   UNL     1       4.788   0.013  -0.062  0.00  0.00    +0.197 HD
BRANCH   9  11
ATOM     11  S   UNL     1       6.211   1.811   0.107  0.00  0.00    +0.086 S 
ATOM     12  O   UNL     1       7.242   0.837   0.206  0.00  0.00    -0.149 OA
ATOM     13  O   UNL     1       6.183   2.789  -0.924  0.00  0.00    -0.149 OA
BRANCH  11  18
ATOM     14  C   UNL     1       6.175   4.819   5.338  0.00  0.00    +0.044 C 
ATOM     15  C   UNL     1       6.185   4.068   4.031  0.00  0.00    -0.050 A 
ATOM     16  C   UNL     1       6.697   2.785   3.975  0.00  0.00    +0.005 A 
ATOM     17  C   UNL     1       6.705   2.096   2.776  0.00  0.00    +0.029 A 
ATOM     18  C   UNL     1       6.201   2.689   1.635  0.00  0.00    +0.110 A 
ATOM     19  C   UNL     1       5.693   3.974   1.690  0.00  0.00    +0.029 A 
ATOM     20  C   UNL     1       5.681   4.661   2.889  0.00  0.00    +0.005 A 
ENDBRANCH  11  18
ENDBRANCH   9  11
ENDBRANCH   7   9
ENDBRANCH   1   8
BRANCH   4  21
ATOM     21  O   UNL     1      -2.422   3.799   0.047  0.00  0.00    -0.422 OA
BRANCH  21  22
ATOM     22  C   UNL     1      -3.193   3.646   1.142  0.00  0.00    +0.345 C 
ATOM     23  O   UNL     1      -2.776   3.018   2.095  0.00  0.00    -0.245 OA
BRANCH  22  24
ATOM     24  C   UNL     1      -4.541   4.242   1.183  0.00  0.00    +0.063 A 
ATOM     25  C   UNL     1      -5.019   4.970   0.090  0.00  0.00    +0.019 A 
ATOM     26  C   UNL     1      -6.282   5.520   0.128  0.00  0.00    +0.050 A 
ATOM     27  C   UNL     1      -7.077   5.365   1.256  0.00  0.00    +0.162 A 
ATOM     28  C   UNL     1      -6.604   4.645   2.352  0.00  0.00    +0.162 A 
ATOM     29  C   UNL     1      -5.342   4.085   2.319  0.00  0.00    +0.064 A 
BRANCH  28  30
ATOM     30  O   UNL     1      -7.385   4.495   3.455  0.00  0.00    -0.491 OA
ATOM     31  C   UNL     1      -6.837   3.745   4.541  0.00  0.00    +0.277 C 
ENDBRANCH  28  30
BRANCH  27  32
ATOM     32  O   UNL     1      -8.318   5.915   1.290  0.00  0.00    -0.491 OA
ATOM     33  C   UNL     1      -8.739   6.638   0.133  0.00  0.00    +0.277 C 
ENDBRANCH  27  32
ENDBRANCH  22  24
ENDBRANCH  21  22
ENDBRANCH   4  21
TORSDOF 9
