REMARK  Name = ZINC06474296
REMARK  8 active torsions:
REMARK  status: ('A' for Active; 'I' for Inactive)
REMARK    1  A    between atoms: C_4  and  C_7
REMARK    2  A    between atoms: C_9  and  C_30
REMARK    3  A    between atoms: C_11  and  S_15
REMARK    4  A    between atoms: C_12  and  C_13
REMARK    5  A    between atoms: S_15  and  C_16
REMARK    6  A    between atoms: C_16  and  C_17
REMARK    7  A    between atoms: N_19  and  C_20
REMARK    8  A    between atoms: C_24  and  N_26
REMARK                            x       y       z     vdW  Elec       q    Type
REMARK                         _______ _______ _______ _____ _____    ______ ____
ROOT
ATOM      1  C   UNL     1       1.264  -2.164  -0.006  0.00  0.00    +0.004 A 
ATOM      2  C   UNL     1       0.529  -2.898   0.923  0.00  0.00    +0.038 A 
ATOM      3  C   UNL     1       0.574  -4.288   0.881  0.00  0.00    +0.073 A 
ATOM      4  N   UNL     1       1.313  -4.925  -0.020  0.00  0.00    -0.239 NA
ATOM      5  C   UNL     1       2.033  -4.275  -0.919  0.00  0.00    +0.116 A 
ATOM      6  C   UNL     1       2.040  -2.869  -0.951  0.00  0.00    +0.091 A 
ENDROOT
BRANCH   1  10
ATOM      7  C   UNL     1       1.187   2.086   0.018  0.00  0.00    +0.000 A 
ATOM      8  C   UNL     1       0.001   1.376   0.034  0.00  0.00    +0.001 A 
ATOM      9  C   UNL     1       0.019  -0.004   0.026  0.00  0.00    +0.008 A 
ATOM     10  C   UNL     1       1.237  -0.682   0.002  0.00  0.00    -0.017 A 
ATOM     11  C   UNL     1       2.430   0.040  -0.015  0.00  0.00    +0.008 A 
ATOM     12  C   UNL     1       2.399   1.419  -0.007  0.00  0.00    +0.001 A 
ENDBRANCH   1  10
BRANCH   3  13
ATOM     13  C   UNL     1      -0.212  -5.072   1.864  0.00  0.00    +0.000 A 
ATOM     14  C   UNL     1      -0.988  -4.418   2.820  0.00  0.00    +0.010 A 
ATOM     15  C   UNL     1      -1.722  -5.154   3.729  0.00  0.00    +0.001 A 
ATOM     16  C   UNL     1      -1.679  -6.536   3.700  0.00  0.00    +0.000 A 
ATOM     17  C   UNL     1      -0.906  -7.190   2.757  0.00  0.00    +0.001 A 
ATOM     18  C   UNL     1      -0.173  -6.465   1.839  0.00  0.00    +0.010 A 
ENDBRANCH   3  13
BRANCH   6  19
ATOM     19  C   UNL     1       2.820  -2.166  -1.925  0.00  0.00    +0.102 C 
ATOM     20  N   UNL     1       3.438  -1.608  -2.697  0.00  0.00    -0.191 NA
ENDBRANCH   6  19
BRANCH   5  21
ATOM     21  S   UNL     1       2.993  -5.180  -2.088  0.00  0.00    -0.095 S 
BRANCH  21  22
ATOM     22  C   UNL     1       2.600  -6.871  -1.575  0.00  0.00    +0.172 C 
BRANCH  22  23
ATOM     23  C   UNL     1       3.332  -7.846  -2.461  0.00  0.00    +0.227 C 
ATOM     24  O   UNL     1       4.048  -7.439  -3.351  0.00  0.00    -0.275 OA
ATOM     25  N   UNL     1       3.190  -9.172  -2.264  0.00  0.00    -0.285 N 
ATOM     26  H   UNL     1       2.672  -9.498  -1.511  0.00  0.00    +0.155 HD
BRANCH  25  27
ATOM     27  C   UNL     1       3.791 -10.079  -3.145  0.00  0.00    +0.036 A 
ATOM     28  C   UNL     1       3.159 -11.279  -3.446  0.00  0.00    +0.025 A 
ATOM     29  C   UNL     1       3.752 -12.169  -4.319  0.00  0.00    +0.024 A 
ATOM     30  C   UNL     1       4.979 -11.872  -4.887  0.00  0.00    +0.071 A 
ATOM     31  C   UNL     1       5.612 -10.680  -4.584  0.00  0.00    +0.146 A 
ATOM     32  C   UNL     1       5.022  -9.783  -3.715  0.00  0.00    +0.057 A 
ATOM     33 CL   UNL     1       5.723 -12.996  -5.980  0.00  0.00    -0.081 Cl
BRANCH  31  34
ATOM     34  N   UNL     1       6.925 -10.365  -5.192  0.00  0.00    +0.058 N 
ATOM     35  O   UNL     1       7.483  -9.315  -4.927  0.00  0.00    -0.126 OA
ATOM     36  O   UNL     1       7.446 -11.155  -5.958  0.00  0.00    -0.126 OA
ENDBRANCH  31  34
ENDBRANCH  25  27
ENDBRANCH  22  23
ENDBRANCH  21  22
ENDBRANCH   5  21
TORSDOF 8
