REMARK  Name = ZINC46653090
REMARK  8 active torsions:
REMARK  status: ('A' for Active; 'I' for Inactive)
REMARK    1  A    between atoms: C_1  and  C_2
REMARK    2  A    between atoms: C_2  and  C_4
REMARK    3  A    between atoms: C_2  and  N_15
REMARK    4  A    between atoms: C_16  and  C_18
REMARK    5  A    between atoms: C_18  and  C_19
REMARK    6  A    between atoms: C_19  and  C_21
REMARK    7  A    between atoms: C_19  and  N_27
REMARK    8  A    between atoms: C_28  and  C_30
REMARK                            x       y       z     vdW  Elec       q    Type
REMARK                         _______ _______ _______ _____ _____    ______ ____
ROOT
ATOM      1  N   UNL     1       0.711  -0.489   1.189  0.00  0.00    -0.309 N 
ATOM      2  C   UNL     1       0.051  -0.633   2.355  0.00  0.00    +0.216 C 
ATOM      3  O   UNL     1      -1.129  -0.361   2.423  0.00  0.00    -0.276 OA
ATOM      4  H   UNL     1       1.654  -0.707   1.135  0.00  0.00    +0.149 HD
ENDROOT
BRANCH   1   6
ATOM      5  C   UNL     1      -0.019   1.526   0.010  0.00  0.00    +0.033 C 
ATOM      6  C   UNL     1       0.002  -0.004   0.002  0.00  0.00    +0.100 C 
BRANCH   6   7
ATOM      7  C   UNL     1       0.707  -0.490  -1.238  0.00  0.00    -0.026 A 
ATOM      8  C   UNL     1       2.089  -0.510  -1.282  0.00  0.00    +0.009 A 
ATOM      9  C   UNL     1       2.744  -0.956  -2.415  0.00  0.00    +0.048 A 
ATOM     10  C   UNL     1       2.014  -1.383  -3.510  0.00  0.00    +0.142 A 
ATOM     11  C   UNL     1       0.621  -1.362  -3.467  0.00  0.00    +0.076 A 
ATOM     12  C   UNL     1      -0.029  -0.920  -2.326  0.00  0.00    +0.032 A 
ATOM     13  N   UNL     1      -0.107  -1.795  -4.584  0.00  0.00    -0.280 N 
ATOM     14  C   UNL     1       0.526  -2.508  -5.541  0.00  0.00    +0.255 C 
ATOM     15  O   UNL     1      -0.076  -2.866  -6.532  0.00  0.00    -0.272 OA
ATOM     16  C   UNL     1       1.983  -2.856  -5.374  0.00  0.00    +0.325 C 
ATOM     17  O   UNL     1       2.641  -1.825  -4.633  0.00  0.00    -0.481 OA
ATOM     18  H   UNL     1      -1.050  -1.586  -4.668  0.00  0.00    +0.155 HD
ENDBRANCH   6   7
ENDBRANCH   1   6
BRANCH   2  19
ATOM     19  C   UNL     1       0.780  -1.133   3.576  0.00  0.00    +0.122 C 
BRANCH  19  20
ATOM     20  C   UNL     1      -0.191  -1.204   4.756  0.00  0.00    +0.112 C 
BRANCH  20  21
ATOM     21  C   UNL     1       0.505  -1.818   5.944  0.00  0.00    -0.027 A 
ATOM     22  C   UNL     1       1.341  -1.047   6.729  0.00  0.00    +0.005 A 
ATOM     23  C   UNL     1       1.980  -1.610   7.818  0.00  0.00    +0.000 A 
ATOM     24  C   UNL     1       1.782  -2.944   8.122  0.00  0.00    +0.000 A 
ATOM     25  C   UNL     1       0.946  -3.715   7.337  0.00  0.00    +0.000 A 
ATOM     26  C   UNL     1       0.303  -3.151   6.250  0.00  0.00    +0.005 A 
ENDBRANCH  20  21
BRANCH  20  27
ATOM     27  N   UNL     1      -0.642   0.147   5.100  0.00  0.00    -0.304 N 
ATOM     28  C   UNL     1      -1.825   0.325   5.722  0.00  0.00    +0.245 C 
ATOM     29  O   UNL     1      -2.517  -0.635   5.998  0.00  0.00    -0.270 OA
ATOM     30  H   UNL     1      -0.090   0.913   4.879  0.00  0.00    +0.150 HD
BRANCH  28  31
ATOM     31  C   UNL     1      -2.280   1.688   6.068  0.00  0.00    +0.037 A 
ATOM     32  C   UNL     1      -1.490   2.794   5.747  0.00  0.00    +0.013 A 
ATOM     33  C   UNL     1      -1.921   4.063   6.073  0.00  0.00    +0.001 A 
ATOM     34  C   UNL     1      -3.133   4.242   6.717  0.00  0.00    +0.000 A 
ATOM     35  C   UNL     1      -3.920   3.150   7.038  0.00  0.00    +0.001 A 
ATOM     36  C   UNL     1      -3.504   1.876   6.713  0.00  0.00    +0.013 A 
ENDBRANCH  28  31
ENDBRANCH  20  27
ENDBRANCH  19  20
ENDBRANCH   2  19
TORSDOF 7
