REMARK  Name = ZINC37605863
REMARK  4 active torsions:
REMARK  status: ('A' for Active; 'I' for Inactive)
REMARK    1  A    between atoms: C_3  and  N_19
REMARK    2  A    between atoms: C_4  and  O_18
REMARK    3  A    between atoms: C_6  and  C_7
REMARK    4  A    between atoms: C_9  and  C_12
REMARK                            x       y       z     vdW  Elec       q    Type
REMARK                         _______ _______ _______ _____ _____    ______ ____
ROOT
ATOM      1  C   UNL     1      -0.017   1.392   0.010  0.00  0.00    +0.015 A 
ATOM      2  C   UNL     1       1.167   2.098   0.002  0.00  0.00    +0.027 A 
ATOM      3  C   UNL     1       2.381   1.423  -0.013  0.00  0.00    +0.067 A 
ATOM      4  C   UNL     1       2.406   0.027  -0.021  0.00  0.00    +0.138 A 
ATOM      5  C   UNL     1       1.223  -0.684  -0.013  0.00  0.00    +0.060 A 
ATOM      6  C   UNL     1       0.002  -0.004   0.002  0.00  0.00    +0.043 A 
ENDROOT
BRANCH   6   7
ATOM      7  C   UNL     1      -1.266  -0.761   0.011  0.00  0.00    +0.259 A 
ATOM      8  N   UNL     1      -2.472  -0.242   0.020  0.00  0.00    -0.184 NA
ATOM      9  C   UNL     1      -3.391  -1.220   0.026  0.00  0.00    +0.241 A 
ATOM     10  N   UNL     1      -2.776  -2.378   0.020  0.00  0.00    -0.052 NA
ATOM     11  O   UNL     1      -1.384  -2.100   0.004  0.00  0.00    -0.332 OA
BRANCH   9  12
ATOM     12  C   UNL     1      -4.862  -1.023   0.038  0.00  0.00    +0.222 A 
ATOM     13  N   UNL     1      -5.780  -1.999   0.043  0.00  0.00    -0.212 NA
ATOM     14  H   UNL     1      -7.578   0.510   0.062  0.00  0.00    +0.190 HD
ATOM     15  C   UNL     1      -6.979  -1.478   0.054  0.00  0.00    +0.216 A 
ATOM     16  N   UNL     1      -6.857  -0.138   0.056  0.00  0.00    -0.265 N 
ATOM     17  N   UNL     1      -5.480   0.137   0.050  0.00  0.00    -0.149 NA
ENDBRANCH   9  12
ENDBRANCH   6   7
BRANCH   3  18
ATOM     18  N   UNL     1       3.577   2.141  -0.021  0.00  0.00    -0.355 N 
ATOM     19  H   UNL     1       3.561   3.111  -0.016  0.00  0.00    +0.142 HD
ATOM     20  H   UNL     1       4.426   1.670  -0.032  0.00  0.00    +0.142 HD
ENDBRANCH   3  18
BRANCH   4  21
ATOM     21  O   UNL     1       3.596  -0.632  -0.036  0.00  0.00    -0.505 OA
ATOM     22  H   UNL     1       3.949  -0.827   0.843  0.00  0.00    +0.292 HD
ENDBRANCH   4  21
TORSDOF 4
