REMARK  Name = ZINC19771064
REMARK  5 active torsions:
REMARK  status: ('A' for Active; 'I' for Inactive)
REMARK    1  A    between atoms: C_1  and  C_2
REMARK    2  A    between atoms: C_3  and  C_24
REMARK    3  A    between atoms: C_9  and  C_12
REMARK    4  A    between atoms: C_14  and  C_17
REMARK    5  A    between atoms: C_17  and  C_18
REMARK                            x       y       z     vdW  Elec       q    Type
REMARK                         _______ _______ _______ _____ _____    ______ ____
ROOT
ATOM      1  C   UNL     1      -4.416   3.920   7.594  0.00  0.00    +0.046 C 
ATOM      2  C   UNL     1      -3.351   4.861   7.094  0.00  0.00    -0.022 A 
ATOM      3  C   UNL     1      -3.002   6.036   7.640  0.00  0.00    +0.017 A 
ATOM      4  N   UNL     1      -1.997   6.611   6.911  0.00  0.00    -0.358 N 
ATOM      5  H   UNL     1      -1.584   7.584   7.215  0.00  0.00    +0.166 HD
ATOM      6  C   UNL     1      -1.665   5.801   5.850  0.00  0.00    +0.047 A 
ATOM      7  C   UNL     1      -2.499   4.668   5.917  0.00  0.00    +0.004 A 
ATOM      8  C   UNL     1      -2.387   3.663   4.958  0.00  0.00    +0.023 A 
ATOM      9  C   UNL     1      -1.447   3.792   3.940  0.00  0.00    +0.040 A 
ATOM     10  C   UNL     1      -0.620   4.922   3.888  0.00  0.00    +0.015 A 
ATOM     11  C   UNL     1      -0.732   5.910   4.822  0.00  0.00    +0.027 A 
ATOM     12  C   UNL     1      -3.624   6.634   8.876  0.00  0.00    +0.063 C 
ENDROOT
BRANCH   9  13
ATOM     13  C   UNL     1      -1.318   2.735   2.917  0.00  0.00    +0.258 A 
ATOM     14  N   UNL     1      -0.472   2.718   1.902  0.00  0.00    -0.191 NA
ATOM     15  C   UNL     1      -0.718   1.572   1.248  0.00  0.00    +0.178 A 
ATOM     16  N   UNL     1      -1.671   0.954   1.881  0.00  0.00    -0.060 NA
ATOM     17  O   UNL     1      -2.032   1.601   2.841  0.00  0.00    -0.333 OA
BRANCH  15  18
ATOM     18  C   UNL     1      -0.013   1.086   0.008  0.00  0.00    +0.135 C 
BRANCH  18  19
ATOM     19  C   UNL     1      -0.742   1.585  -1.213  0.00  0.00    +0.049 A 
ATOM     20  C   UNL     1      -0.055   2.306  -2.171  0.00  0.00    +0.024 A 
ATOM     21  C   UNL     1      -0.734   2.760  -3.291  0.00  0.00    +0.003 A 
ATOM     22  C   UNL     1      -2.086   2.471  -3.405  0.00  0.00    +0.020 A 
ATOM     23  C   UNL     1      -2.705   1.745  -2.406  0.00  0.00    +0.111 A 
ATOM     24  N   UNL     1      -2.026   1.324  -1.357  0.00  0.00    -0.259 NA
ENDBRANCH  18  19
ENDBRANCH  15  18
ENDBRANCH   9  13
TORSDOF 3
