REMARK  Name = ZINC08582752
REMARK  13 active torsions:
REMARK  status: ('A' for Active; 'I' for Inactive)
REMARK    1  A    between atoms: C_1  and  C_2
REMARK    2  A    between atoms: C_9  and  C_13
REMARK    3  A    between atoms: C_10  and  O_12
REMARK    4  A    between atoms: C_13  and  C_15
REMARK    5  A    between atoms: C_13  and  N_67
REMARK    6  A    between atoms: N_19  and  C_20
REMARK    7  A    between atoms: C_20  and  C_21
REMARK    8  A    between atoms: C_20  and  C_22
REMARK    9  A    between atoms: C_20  and  C_23
REMARK   10  A    between atoms: C_24  and  C_25
REMARK   11  A    between atoms: C_24  and  N_67
REMARK   12  A    between atoms: C_30  and  C_31
REMARK   13  A    between atoms: C_30  and  N_67
REMARK                            x       y       z     vdW  Elec       q    Type
REMARK                         _______ _______ _______ _____ _____    ______ ____
ROOT
ATOM      1  C   UNL     1       0.069   7.094  -0.027  0.00  0.00    +0.039 C 
ENDROOT
BRANCH   1  10
ATOM      2  C   UNL     1      -2.629   0.227  -0.799  0.00  0.00    +0.044 C 
ATOM      3  C   UNL     1      -1.472   1.182  -0.666  0.00  0.00    -0.050 A 
ATOM      4  C   UNL     1      -0.169   0.689  -0.674  0.00  0.00    +0.005 A 
ATOM      5  C   UNL     1       0.899   1.526  -0.561  0.00  0.00    +0.029 A 
ATOM      6  C   UNL     1       0.690   2.909  -0.428  0.00  0.00    +0.075 A 
ATOM      7  C   UNL     1      -0.635   3.408  -0.415  0.00  0.00    +0.001 A 
ATOM      8  C   UNL     1      -1.713   2.516  -0.533  0.00  0.00    +0.013 A 
ATOM      9  C   UNL     1      -0.845   4.795  -0.281  0.00  0.00    +0.017 A 
ATOM     10  C   UNL     1       0.246   5.605  -0.171  0.00  0.00    +0.008 A 
ATOM     11  C   UNL     1       1.532   5.050  -0.191  0.00  0.00    +0.215 A 
ATOM     12  N   UNL     1       1.721   3.754  -0.315  0.00  0.00    -0.213 NA
BRANCH  11  13
ATOM     13  O   UNL     1       2.607   5.868  -0.080  0.00  0.00    -0.492 OA
ATOM     14  H   UNL     1       2.942   5.957   0.823  0.00  0.00    +0.294 HD
ENDBRANCH  11  13
ENDBRANCH   1  10
BRANCH   1  15
ATOM     15  C   UNL     1       0.590   7.783  -1.262  0.00  0.00    +0.143 A 
ATOM     16  N   UNL     1       1.498   8.727  -1.308  0.00  0.00    -0.115 NA
ATOM     17  N   UNL     1       1.671   9.054  -2.542  0.00  0.00    -0.023 NA
ATOM     18  N   UNL     1       0.890   8.349  -3.284  0.00  0.00    -0.043 NA
ATOM     19  N   UNL     1       0.207   7.554  -2.532  0.00  0.00    -0.225 N 
BRANCH  19  20
ATOM     20  C   UNL     1      -0.796   6.583  -2.977  0.00  0.00    +0.059 C 
ATOM     21  C   UNL     1      -2.083   6.775  -2.173  0.00  0.00    +0.036 C 
ATOM     22  C   UNL     1      -1.087   6.795  -4.464  0.00  0.00    +0.036 C 
ATOM     23  C   UNL     1      -0.265   5.165  -2.758  0.00  0.00    +0.036 C 
ENDBRANCH  19  20
ENDBRANCH   1  15
BRANCH   1  24
ATOM     24  N   UNL     1      -1.371   7.395   0.119  0.00  0.00    +0.396 N 
ATOM     25  H   UNL     1      -1.863   7.087  -0.728  0.00  0.00    -0.080 HD
BRANCH  24  26
ATOM     26  C   UNL     1      -1.922   6.673   1.285  0.00  0.00    -0.002 C 
BRANCH  26  27
ATOM     27  C   UNL     1      -3.421   6.606   1.146  0.00  0.00    +0.089 A 
ATOM     28  C   UNL     1      -4.115   5.598   0.588  0.00  0.00    +0.042 A 
ATOM     29  C   UNL     1      -5.482   5.946   0.671  0.00  0.00    +0.041 A 
ATOM     30  C   UNL     1      -5.542   7.150   1.268  0.00  0.00    +0.195 A 
ATOM     31  O   UNL     1      -4.290   7.545   1.553  0.00  0.00    -0.470 OA
ENDBRANCH  26  27
ENDBRANCH  24  26
BRANCH  24  32
ATOM     32  C   UNL     1      -1.568   8.850   0.286  0.00  0.00    -0.045 C 
BRANCH  32  33
ATOM     33  C   UNL     1      -0.842   9.350   1.536  0.00  0.00    +0.102 C 
ATOM     34  C   UNL     1      -1.141  10.848   1.769  0.00  0.00    +0.032 C 
ATOM     35  C   UNL     1       0.195  11.420   2.294  0.00  0.00    +0.030 C 
ATOM     36  C   UNL     1       1.143  10.200   2.316  0.00  0.00    +0.160 C 
ATOM     37  O   UNL     1       0.589   9.284   1.347  0.00  0.00    -0.378 OA
ENDBRANCH  32  33
ENDBRANCH  24  32
ENDBRANCH   1  24
TORSDOF 9
