REMARK  Name = ZINC63480018
REMARK  4 active torsions:
REMARK  status: ('A' for Active; 'I' for Inactive)
REMARK    1  A    between atoms: C_1  and  C_2
REMARK    2  A    between atoms: C_16  and  C_19
REMARK    3  A    between atoms: C_19  and  C_20
REMARK    4  A    between atoms: N_31  and  C_34
REMARK                            x       y       z     vdW  Elec       q    Type
REMARK                         _______ _______ _______ _____ _____    ______ ____
ROOT
ATOM      1  C   UNL     1      -1.296   1.135   0.080  0.00  0.00    +0.045 C 
ATOM      2  C   UNL     1      -1.059  -0.353   0.107  0.00  0.00    -0.029 A 
ATOM      3  C   UNL     1      -1.138  -1.083  -1.061  0.00  0.00    +0.005 A 
ATOM      4  C   UNL     1      -0.921  -2.449  -1.047  0.00  0.00    +0.001 A 
ATOM      5  C   UNL     1      -0.625  -3.086   0.145  0.00  0.00    +0.008 A 
ATOM      6  C   UNL     1      -0.546  -2.362   1.313  0.00  0.00    +0.004 A 
ATOM      7  C   UNL     1      -0.756  -0.986   1.309  0.00  0.00    +0.042 A 
ATOM      8  N   UNL     1      -0.616  -0.473   2.601  0.00  0.00    -0.283 N 
ATOM      9  C   UNL     1      -0.316  -1.432   3.498  0.00  0.00    +0.243 C 
ATOM     10  O   UNL     1      -0.139  -1.280   4.689  0.00  0.00    -0.273 OA
ATOM     11  C   UNL     1      -0.253  -2.729   2.740  0.00  0.00    +0.136 C 
ATOM     12  C   UNL     1       1.128  -3.381   2.881  0.00  0.00    +0.123 C 
ATOM     13  C   UNL     1       0.944  -4.452   3.991  0.00  0.00    +0.107 C 
ATOM     14  C   UNL     1      -0.529  -4.318   4.432  0.00  0.00    +0.072 C 
ATOM     15  N   UNL     1      -1.221  -3.716   3.253  0.00  0.00    -0.295 NA
ATOM     16  C   UNL     1       1.144  -5.757   3.253  0.00  0.00    +0.232 C 
ATOM     17  O   UNL     1       1.073  -6.860   3.750  0.00  0.00    -0.274 OA
ATOM     18  N   UNL     1       1.411  -5.504   1.967  0.00  0.00    -0.210 N 
ATOM     19  C   UNL     1       1.436  -4.191   1.641  0.00  0.00    +0.233 C 
ATOM     20  O   UNL     1       1.663  -3.731   0.543  0.00  0.00    -0.274 OA
ATOM     21  H   UNL     1      -0.722   0.465   2.826  0.00  0.00    +0.155 HD
ATOM     22  H   UNL     1      -2.080  -3.268   3.534  0.00  0.00    +0.124 HD
ENDROOT
BRANCH  18  23
ATOM     23  C   UNL     1       1.652  -6.518   1.028  0.00  0.00    +0.044 A 
ATOM     24  C   UNL     1       0.628  -7.379   0.658  0.00  0.00    +0.027 A 
ATOM     25  C   UNL     1       0.867  -8.378  -0.266  0.00  0.00    +0.040 A 
ATOM     26  C   UNL     1       2.127  -8.519  -0.823  0.00  0.00    +0.124 A 
ATOM     27  C   UNL     1       3.149  -7.661  -0.455  0.00  0.00    +0.040 A 
ATOM     28  C   UNL     1       2.913  -6.658   0.465  0.00  0.00    +0.027 A 
ATOM     29  F   UNL     1       2.359  -9.497  -1.726  0.00  0.00    -0.205 F 
ENDBRANCH  18  23
BRANCH  14  30
ATOM     30  C   UNL     1      -1.122  -5.696   4.734  0.00  0.00    +0.052 C 
BRANCH  30  31
ATOM     31  C   UNL     1      -2.517  -5.534   5.279  0.00  0.00    -0.040 C 
ATOM     32  C   UNL     1      -3.675  -5.594   4.581  0.00  0.00    -0.001 A 
ATOM     33  C   UNL     1      -3.969  -5.819   3.161  0.00  0.00    +0.010 A 
ATOM     34  C   UNL     1      -5.258  -5.824   2.751  0.00  0.00    +0.001 A 
ATOM     35  C   UNL     1      -6.317  -5.619   3.646  0.00  0.00    +0.002 A 
ATOM     36  C   UNL     1      -6.126  -5.406   4.965  0.00  0.00    +0.026 A 
ATOM     37  C   UNL     1      -4.811  -5.381   5.506  0.00  0.00    +0.043 A 
ATOM     38  N   UNL     1      -4.373  -5.196   6.728  0.00  0.00    -0.380 N 
ATOM     39  C   UNL     1      -2.908  -5.277   6.717  0.00  0.00    +0.144 C 
ATOM     40  H   UNL     1      -4.925  -5.037   7.509  0.00  0.00    +0.160 HD
ENDBRANCH  30  31
ENDBRANCH  14  30
TORSDOF 3
