REMARK  Name = ZINC60525768
REMARK  4 active torsions:
REMARK  status: ('A' for Active; 'I' for Inactive)
REMARK    1  A    between atoms: C_4  and  N_7
REMARK    2  A    between atoms: C_8  and  C_10
REMARK    3  A    between atoms: C_15  and  N_16
REMARK    4  A    between atoms: C_17  and  C_19
REMARK                            x       y       z     vdW  Elec       q    Type
REMARK                         _______ _______ _______ _____ _____    ______ ____
ROOT
ATOM      1  C   UNL     1       4.943  -2.710   0.155  0.00  0.00    +0.058 A 
ATOM      2  C   UNL     1       6.139  -1.997   0.267  0.00  0.00    +0.015 A 
ATOM      3  C   UNL     1       7.335  -2.672   0.372  0.00  0.00    +0.001 A 
ATOM      4  C   UNL     1       7.359  -4.058   0.365  0.00  0.00    +0.002 A 
ATOM      5  C   UNL     1       6.187  -4.777   0.254  0.00  0.00    +0.024 A 
ATOM      6  C   UNL     1       4.971  -4.113   0.154  0.00  0.00    +0.046 A 
ENDROOT
BRANCH   1   8
ATOM      7  N   UNL     1       3.644  -0.650  -0.057  0.00  0.00    -0.281 N 
ATOM      8  C   UNL     1       3.659  -1.994   0.043  0.00  0.00    +0.250 C 
ATOM      9  O   UNL     1       2.614  -2.615   0.040  0.00  0.00    -0.270 OA
ATOM     10  H   UNL     1       4.478  -0.159  -0.122  0.00  0.00    +0.155 HD
BRANCH   7  14
ATOM     11  C   UNL     1       0.016   1.396  -0.086  0.00  0.00    +0.000 A 
ATOM     12  C   UNL     1       1.120   1.959   0.526  0.00  0.00    +0.002 A 
ATOM     13  C   UNL     1       2.325   1.284   0.538  0.00  0.00    +0.023 A 
ATOM     14  C   UNL     1       2.426   0.037  -0.067  0.00  0.00    +0.034 A 
ATOM     15  C   UNL     1       1.314  -0.526  -0.681  0.00  0.00    +0.023 A 
ATOM     16  C   UNL     1       0.113   0.155  -0.689  0.00  0.00    +0.002 A 
ENDBRANCH   7  14
ENDBRANCH   1   8
BRANCH   6  17
ATOM     17  N   UNL     1       3.786  -4.836   0.049  0.00  0.00    -0.281 N 
ATOM     18  C   UNL     1       3.763  -5.996  -0.638  0.00  0.00    +0.255 C 
ATOM     19  O   UNL     1       4.794  -6.452  -1.096  0.00  0.00    -0.270 OA
ATOM     20  H   UNL     1       2.977  -4.505   0.469  0.00  0.00    +0.155 HD
BRANCH  18  21
ATOM     21  C   UNL     1       2.491  -6.711  -0.833  0.00  0.00    +0.122 A 
ATOM     22  C   UNL     1       2.437  -7.910  -1.531  0.00  0.00    +0.031 A 
ATOM     23  C   UNL     1       1.170  -8.524  -1.706  0.00  0.00    +0.018 A 
ATOM     24  C   UNL     1       1.075  -9.825  -2.221  0.00  0.00    +0.011 A 
ATOM     25  C   UNL     1      -0.149 -10.417  -2.344  0.00  0.00    +0.001 A 
ATOM     26  C   UNL     1      -1.302  -9.741  -1.970  0.00  0.00    +0.004 A 
ATOM     27  C   UNL     1      -1.233  -8.454  -1.478  0.00  0.00    +0.047 A 
ATOM     28  C   UNL     1      -0.001  -7.828  -1.352  0.00  0.00    +0.139 A 
ATOM     29  O   UNL     1       0.077  -6.549  -0.911  0.00  0.00    -0.422 OA
ATOM     30  C   UNL     1       1.225  -6.184  -0.291  0.00  0.00    +0.350 A 
ATOM     31  O   UNL     1       1.214  -5.446   0.676  0.00  0.00    -0.244 OA
ENDBRANCH  18  21
ENDBRANCH   6  17
TORSDOF 4
