REMARK  Name = ZINC63221831
REMARK  8 active torsions:
REMARK  status: ('A' for Active; 'I' for Inactive)
REMARK    1  A    between atoms: C_1  and  N_2
REMARK    2  A    between atoms: N_2  and  C_3
REMARK    3  A    between atoms: N_2  and  C_4
REMARK    4  A    between atoms: C_7  and  C_10
REMARK    5  A    between atoms: C_10  and  C_12
REMARK    6  A    between atoms: C_10  and  C_22
REMARK    7  A    between atoms: C_12  and  N_13
REMARK    8  A    between atoms: C_14  and  C_16
REMARK                            x       y       z     vdW  Elec       q    Type
REMARK                         _______ _______ _______ _____ _____    ______ ____
ROOT
ATOM      1  C   UNL     1      -4.870  -2.906   0.033  0.00  0.00    +0.064 C 
ENDROOT
BRANCH   1   2
ATOM      2  C   UNL     1      -5.673  -2.551  -1.191  0.00  0.00    -0.033 C 
ATOM      3  C   UNL     1      -6.091  -3.394  -2.163  0.00  0.00    -0.000 A 
ATOM      4  C   UNL     1      -5.926  -4.839  -2.364  0.00  0.00    +0.010 A 
ATOM      5  C   UNL     1      -6.470  -5.415  -3.460  0.00  0.00    +0.001 A 
ATOM      6  C   UNL     1      -7.184  -4.668  -4.407  0.00  0.00    +0.002 A 
ATOM      7  C   UNL     1      -7.377  -3.337  -4.292  0.00  0.00    +0.026 A 
ATOM      8  C   UNL     1      -6.849  -2.628  -3.178  0.00  0.00    +0.043 A 
ATOM      9  N   UNL     1      -6.899  -1.361  -2.846  0.00  0.00    -0.380 N 
ATOM     10  C   UNL     1      -6.182  -1.180  -1.579  0.00  0.00    +0.145 C 
ATOM     11  H   UNL     1      -7.340  -0.661  -3.352  0.00  0.00    +0.160 HD
ENDBRANCH   1   2
BRANCH   1  15
ATOM     12  C   UNL     1      -1.198  -0.719   0.010  0.00  0.00    +0.029 A 
ATOM     13  C   UNL     1      -1.181  -2.108   0.008  0.00  0.00    +0.023 A 
ATOM     14  C   UNL     1      -2.369  -2.812   0.016  0.00  0.00    +0.006 A 
ATOM     15  C   UNL     1      -3.575  -2.135   0.025  0.00  0.00    -0.039 A 
ATOM     16  C   UNL     1      -3.596  -0.752   0.027  0.00  0.00    +0.006 A 
ATOM     17  C   UNL     1      -2.411  -0.042   0.025  0.00  0.00    +0.023 A 
BRANCH  12  19
ATOM     18  C   UNL     1      -0.018   1.461   0.010  0.00  0.00    +0.129 C 
ATOM     19  N   UNL     1       0.002  -0.004   0.002  0.00  0.00    -0.336 N 
ATOM     20  C   UNL     1       1.281  -0.719  -0.014  0.00  0.00    +0.129 C 
ENDBRANCH  12  19
ENDBRANCH   1  15
BRANCH   1  21
ATOM     21  C   UNL     1      -5.668  -2.549   1.288  0.00  0.00    +0.117 C 
BRANCH  21  22
ATOM     22  N   UNL     1      -6.869  -3.385   1.357  0.00  0.00    -0.308 N 
ATOM     23  C   UNL     1      -7.730  -3.246   2.385  0.00  0.00    +0.279 C 
ATOM     24  O   UNL     1      -7.509  -2.425   3.256  0.00  0.00    -0.267 OA
ATOM     25  H   UNL     1      -7.045  -4.039   0.663  0.00  0.00    +0.149 HD
BRANCH  23  26
ATOM     26  C   UNL     1      -8.931  -4.082   2.454  0.00  0.00    +0.191 A 
ATOM     27  C   UNL     1      -9.883  -4.040   3.432  0.00  0.00    +0.056 A 
ATOM     28  C   UNL     1     -10.846  -5.005   3.101  0.00  0.00    +0.058 A 
ATOM     29  C   UNL     1     -10.445  -5.588   1.948  0.00  0.00    +0.171 A 
ATOM     30  O   UNL     1      -9.293  -5.025   1.558  0.00  0.00    -0.444 OA
ATOM     31 BR   UNL     1     -11.362  -6.965   1.032  0.00  0.00    -0.008 Br
ENDBRANCH  23  26
ENDBRANCH  21  22
ENDBRANCH   1  21
TORSDOF 6
