REMARK  Name = ZINC08763386
REMARK  11 active torsions:
REMARK  status: ('A' for Active; 'I' for Inactive)
REMARK    1  A    between atoms: C_1  and  C_2
REMARK    2  A    between atoms: C_3  and  C_37
REMARK    3  A    between atoms: C_5  and  N_29
REMARK    4  A    between atoms: C_6  and  C_7
REMARK    5  A    between atoms: C_7  and  C_9
REMARK    6  A    between atoms: C_7  and  N_71
REMARK    7  A    between atoms: C_12  and  S_15
REMARK    8  A    between atoms: S_15  and  C_16
REMARK    9  A    between atoms: C_19  and  C_22
REMARK   10  A    between atoms: C_22  and  C_23
REMARK   11  A    between atoms: C_30  and  C_32
REMARK                            x       y       z     vdW  Elec       q    Type
REMARK                         _______ _______ _______ _____ _____    ______ ____
ROOT
ATOM      1  C   UNL     1       1.290   3.542   0.179  0.00  0.00    -0.004 C 
ENDROOT
BRANCH   1   7
ATOM      2  C   UNL     1       1.916   5.083   2.571  0.00  0.00    +0.045 C 
ATOM      3  C   UNL     1       3.003   4.710   1.596  0.00  0.00    -0.037 A 
ATOM      4  C   UNL     1       4.285   5.085   1.819  0.00  0.00    -0.008 A 
ATOM      5  S   UNL     1       5.126   4.402   0.401  0.00  0.00    -0.078 S 
ATOM      6  C   UNL     1       3.714   3.655  -0.396  0.00  0.00    +0.074 A 
ATOM      7  C   UNL     1       2.704   3.978   0.461  0.00  0.00    -0.025 A 
ATOM      8  C   UNL     1       4.854   5.877   2.969  0.00  0.00    +0.052 C 
BRANCH   6   9
ATOM      9  N   UNL     1       3.658   2.929  -1.587  0.00  0.00    -0.273 N 
ATOM     10  C   UNL     1       4.758   2.811  -2.357  0.00  0.00    +0.284 C 
ATOM     11  O   UNL     1       5.800   3.338  -2.013  0.00  0.00    -0.266 OA
ATOM     12  H   UNL     1       2.828   2.509  -1.860  0.00  0.00    +0.156 HD
BRANCH  10  13
ATOM     13  C   UNL     1       4.699   2.049  -3.607  0.00  0.00    +0.189 A 
ATOM     14  C   UNL     1       5.734   1.852  -4.477  0.00  0.00    +0.054 A 
ATOM     15  C   UNL     1       5.234   1.070  -5.530  0.00  0.00    +0.042 A 
ATOM     16  C   UNL     1       3.932   0.827  -5.261  0.00  0.00    +0.196 A 
ATOM     17  O   UNL     1       3.615   1.414  -4.099  0.00  0.00    -0.458 OA
ENDBRANCH  10  13
ENDBRANCH   6   9
ENDBRANCH   1   7
BRANCH   1  23
ATOM     18  C   UNL     1       1.970   1.273   0.678  0.00  0.00    -0.077 C 
ATOM     19  C   UNL     1       2.080  -0.139   0.097  0.00  0.00    -0.015 C 
ATOM     20  C   UNL     1       0.677  -0.672  -0.205  0.00  0.00    -0.010 C 
ATOM     21  C   UNL     1      -0.026   0.283  -1.173  0.00  0.00    -0.015 C 
ATOM     22  C   UNL     1      -0.075   1.683  -0.555  0.00  0.00    -0.077 C 
ATOM     23  N   UNL     1       1.306   2.148  -0.312  0.00  0.00    +0.387 N 
ATOM     24  H   UNL     1       1.830   2.112  -1.194  0.00  0.00    -0.080 HD
BRANCH  20  25
ATOM     25  C   UNL     1       0.783  -2.059  -0.842  0.00  0.00    +0.038 C 
BRANCH  25  26
ATOM     26  C   UNL     1      -0.597  -2.635  -1.025  0.00  0.00    -0.047 A 
ATOM     27  C   UNL     1      -1.167  -3.398  -0.024  0.00  0.00    +0.003 A 
ATOM     28  C   UNL     1      -2.435  -3.922  -0.191  0.00  0.00    +0.000 A 
ATOM     29  C   UNL     1      -3.130  -3.691  -1.363  0.00  0.00    +0.000 A 
ATOM     30  C   UNL     1      -2.558  -2.932  -2.367  0.00  0.00    +0.000 A 
ATOM     31  C   UNL     1      -1.291  -2.405  -2.198  0.00  0.00    +0.003 A 
ENDBRANCH  25  26
ENDBRANCH  20  25
ENDBRANCH   1  23
BRANCH   1  32
ATOM     32  C   UNL     1       0.694   4.426  -0.886  0.00  0.00    -0.057 A 
ATOM     33  C   UNL     1       0.873   4.114  -2.221  0.00  0.00    +0.003 A 
ATOM     34  C   UNL     1       0.325   4.920  -3.200  0.00  0.00    +0.015 A 
ATOM     35  C   UNL     1      -0.399   6.051  -2.841  0.00  0.00    +0.008 A 
ATOM     36  C   UNL     1      -0.573   6.364  -1.498  0.00  0.00    +0.015 A 
ATOM     37  C   UNL     1      -0.026   5.551  -0.525  0.00  0.00    +0.003 A 
BRANCH  35  38
ATOM     38  S   UNL     1      -1.095   7.085  -4.086  0.00  0.00    -0.129 S 
ATOM     39  C   UNL     1      -0.612   6.286  -5.641  0.00  0.00    +0.090 C 
ENDBRANCH  35  38
ENDBRANCH   1  32
TORSDOF 8
