REMARK  Name = ZINC07006098
REMARK  6 active torsions:
REMARK  status: ('A' for Active; 'I' for Inactive)
REMARK    1  A    between atoms: C_1  and  C_2
REMARK    2  A    between atoms: C_2  and  N_59
REMARK    3  A    between atoms: C_17  and  C_18
REMARK    4  A    between atoms: N_20  and  C_21
REMARK    5  A    between atoms: C_21  and  C_22
REMARK    6  A    between atoms: C_22  and  C_23
REMARK                            x       y       z     vdW  Elec       q    Type
REMARK                         _______ _______ _______ _____ _____    ______ ____
ROOT
ATOM      1  C   UNL     1       9.776   0.016   0.101  0.00  0.00    -0.060 C 
ATOM      2  C   UNL     1       8.288  -0.322  -0.024  0.00  0.00    +0.088 C 
ATOM      3  N   UNL     1       7.498   0.913   0.078  0.00  0.00    -0.312 N 
ATOM      4  C   UNL     1       7.872   1.863  -0.979  0.00  0.00    +0.088 C 
ATOM      5  C   UNL     1       9.359   2.201  -0.855  0.00  0.00    -0.060 C 
ATOM      6  C   UNL     1       6.138   0.637   0.042  0.00  0.00    +0.186 A 
ATOM      7  N   UNL     1       5.506  -0.523  -0.066  0.00  0.00    -0.124 NA
ATOM      8  N   UNL     1       4.247  -0.597  -0.077  0.00  0.00    -0.121 NA
ATOM      9  C   UNL     1       3.480   0.477   0.004  0.00  0.00    +0.202 A 
ATOM     10  S   UNL     1       4.736   1.748   0.127  0.00  0.00    -0.013 S 
ATOM     11  N   UNL     1       2.090   0.588   0.002  0.00  0.00    -0.290 N 
ATOM     12  C   UNL     1       1.388   1.750  -0.006  0.00  0.00    +0.094 A 
ATOM     13  C   UNL     1       0.064   1.462  -0.005  0.00  0.00    +0.020 A 
ATOM     14  C   UNL     1      -0.073   0.070   0.004  0.00  0.00    +0.033 A 
ATOM     15  C   UNL     1       1.199  -0.464   0.008  0.00  0.00    +0.110 A 
ATOM     16  N   UNL     1      10.143   0.954  -0.981  0.00  0.00    +0.382 N 
ATOM     17  H   UNL     1       9.933   0.518  -1.887  0.00  0.00    -0.082 HD
ENDROOT
BRANCH  15  18
ATOM     18  C   UNL     1       1.540  -1.889   0.018  0.00  0.00    +0.261 C 
ATOM     19  O   UNL     1       2.702  -2.237  -0.082  0.00  0.00    -0.269 OA
ATOM     20  N   UNL     1       0.568  -2.815   0.137  0.00  0.00    -0.310 N 
ATOM     21  H   UNL     1      -0.363  -2.542   0.143  0.00  0.00    +0.149 HD
BRANCH  20  22
ATOM     22  C   UNL     1       0.916  -4.232   0.258  0.00  0.00    +0.109 C 
BRANCH  22  23
ATOM     23  C   UNL     1      -0.363  -5.063   0.379  0.00  0.00    +0.049 C 
BRANCH  23  24
ATOM     24  C   UNL     1      -0.004  -6.522   0.503  0.00  0.00    -0.072 C 
ATOM     25  C   UNL     1       0.082  -7.026   1.692  0.00  0.00    -0.028 C 
ATOM     26  C   UNL     1       0.438  -8.456   1.975  0.00  0.00    +0.027 C 
ATOM     27  C   UNL     1       0.264  -9.303   0.712  0.00  0.00    +0.004 C 
ATOM     28  C   UNL     1       0.979  -8.597  -0.447  0.00  0.00    +0.005 C 
ATOM     29  C   UNL     1       0.226  -7.300  -0.759  0.00  0.00    +0.030 C 
ENDBRANCH  23  24
ENDBRANCH  22  23
ENDBRANCH  20  22
ENDBRANCH  15  18
BRANCH  16  31
ATOM     30  C   UNL     1      11.984   2.043  -2.170  0.00  0.00    -0.017 C 
ATOM     31  C   UNL     1      11.589   1.258  -0.918  0.00  0.00    -0.082 C 
ENDBRANCH  16  31
TORSDOF 5
