REMARK  Name = ZINC40062754
REMARK  7 active torsions:
REMARK  status: ('A' for Active; 'I' for Inactive)
REMARK    1  A    between atoms: C_1  and  C_2
REMARK    2  A    between atoms: C_4  and  N_15
REMARK    3  A    between atoms: N_5  and  C_7
REMARK    4  A    between atoms: C_16  and  C_18
REMARK    5  A    between atoms: C_19  and  C_20
REMARK    6  A    between atoms: C_23  and  S_26
REMARK    7  A    between atoms: S_26  and  C_27
REMARK                            x       y       z     vdW  Elec       q    Type
REMARK                         _______ _______ _______ _____ _____    ______ ____
ROOT
ATOM      1  N   UNL     1       0.039  -3.238  -1.546  0.00  0.00    -0.267 N 
ATOM      2  C   UNL     1       0.031  -3.094  -2.886  0.00  0.00    +0.242 C 
ATOM      3  O   UNL     1       0.014  -1.981  -3.379  0.00  0.00    -0.270 OA
ATOM      4  H   UNL     1       0.053  -4.125  -1.153  0.00  0.00    +0.157 HD
ENDROOT
BRANCH   1   8
ATOM      5  C   UNL     1      -0.018   1.503   0.010  0.00  0.00    +0.067 C 
ATOM      6  C   UNL     1       0.002  -0.004   0.002  0.00  0.00    +0.062 A 
ATOM      7  C   UNL     1       0.008  -0.815  -1.136  0.00  0.00    +0.068 A 
ATOM      8  C   UNL     1       0.028  -2.112  -0.724  0.00  0.00    +0.124 A 
ATOM      9  N   UNL     1       0.034  -2.109   0.634  0.00  0.00    -0.246 N 
ATOM     10  N   UNL     1       0.023  -0.775   1.059  0.00  0.00    -0.175 NA
BRANCH   9  11
ATOM     11  C   UNL     1       0.055  -3.291   1.500  0.00  0.00    +0.132 C 
ATOM     12  C   UNL     1      -1.177  -3.282   2.420  0.00  0.00    +0.051 C 
ATOM     13  C   UNL     1      -1.005  -4.333   3.543  0.00  0.00    +0.168 C 
ATOM     14  S   UNL     1       0.822  -4.425   3.733  0.00  0.00    -0.029 S 
ATOM     15  O   UNL     1       1.185  -3.868   4.989  0.00  0.00    -0.174 OA
ATOM     16  O   UNL     1       1.257  -5.736   3.398  0.00  0.00    -0.174 OA
ATOM     17  C   UNL     1       1.327  -3.265   2.394  0.00  0.00    +0.192 C 
ENDBRANCH   9  11
ENDBRANCH   1   8
BRANCH   2  18
ATOM     18  C   UNL     1       0.043  -4.274  -3.748  0.00  0.00    +0.068 C 
ATOM     19  C   UNL     1       0.035  -4.130  -5.091  0.00  0.00    +0.013 C 
BRANCH  19  20
ATOM     20  C   UNL     1       0.046  -5.316  -5.957  0.00  0.00    -0.025 A 
ATOM     21  C   UNL     1       0.061  -6.598  -5.392  0.00  0.00    +0.009 A 
ATOM     22  C   UNL     1       0.071  -7.698  -6.201  0.00  0.00    +0.015 A 
ATOM     23  C   UNL     1       0.069  -7.547  -7.586  0.00  0.00    +0.016 A 
ATOM     24  C   UNL     1       0.054  -6.274  -8.152  0.00  0.00    +0.015 A 
ATOM     25  C   UNL     1       0.038  -5.169  -7.350  0.00  0.00    +0.009 A 
BRANCH  23  26
ATOM     26  S   UNL     1       0.083  -8.970  -8.625  0.00  0.00    -0.016 S 
BRANCH  26  27
ATOM     27  C   UNL     1       0.074  -8.287 -10.305  0.00  0.00    +0.448 C 
ATOM     28  F   UNL     1       1.208  -7.488 -10.490  0.00  0.00    -0.160 F 
ATOM     29  F   UNL     1       0.085  -9.333 -11.234  0.00  0.00    -0.160 F 
ATOM     30  F   UNL     1      -1.077  -7.513 -10.488  0.00  0.00    -0.160 F 
ENDBRANCH  26  27
ENDBRANCH  23  26
ENDBRANCH  19  20
ENDBRANCH   2  18
TORSDOF 6
