REMARK  Name = ZINC19521487
REMARK  6 active torsions:
REMARK  status: ('A' for Active; 'I' for Inactive)
REMARK    1  A    between atoms: C_1  and  C_2
REMARK    2  A    between atoms: C_2  and  C_3
REMARK    3  A    between atoms: C_4  and  C_27
REMARK    4  A    between atoms: C_6  and  C_11
REMARK    5  A    between atoms: C_17  and  C_19
REMARK    6  A    between atoms: C_19  and  C_20
REMARK                            x       y       z     vdW  Elec       q    Type
REMARK                         _______ _______ _______ _____ _____    ______ ____
ROOT
ATOM      1  C   UNL     1      -5.373  -1.984   0.074  0.00  0.00    +0.255 C 
ATOM      2  O   UNL     1      -5.968  -2.195  -0.966  0.00  0.00    -0.270 OA
ATOM      3  N   UNL     1      -5.979  -2.211   1.256  0.00  0.00    -0.261 N 
ATOM      4  C   UNL     1      -7.243  -2.787   1.289  0.00  0.00    +0.165 A 
ATOM      5  N   UNL     1      -7.990  -3.177   0.279  0.00  0.00    -0.233 NA
ATOM      6  C   UNL     1      -9.181  -3.711   0.477  0.00  0.00    +0.124 A 
ATOM      7  C   UNL     1      -9.593  -3.837   1.763  0.00  0.00    +0.015 A 
ATOM      8  S   UNL     1      -8.187  -3.162   2.631  0.00  0.00    -0.057 S 
ATOM      9  H   UNL     1      -5.533  -1.973   2.084  0.00  0.00    +0.157 HD
ENDROOT
BRANCH   1  13
ATOM     10  C   UNL     1      -1.408  -0.535   0.013  0.00  0.00    +0.022 A 
ATOM     11  C   UNL     1      -2.002  -0.874  -1.160  0.00  0.00    -0.030 A 
ATOM     12  C   UNL     1      -3.311  -1.356  -1.168  0.00  0.00    +0.023 A 
ATOM     13  C   UNL     1      -3.992  -1.481   0.041  0.00  0.00    +0.101 A 
ATOM     14  C   UNL     1      -3.328  -1.113   1.241  0.00  0.00    +0.261 A 
ATOM     15  O   UNL     1      -3.902  -1.213   2.312  0.00  0.00    -0.267 OA
ATOM     16  N   UNL     1      -2.062  -0.659   1.192  0.00  0.00    -0.325 N 
ATOM     17  H   UNL     1      -1.611  -0.413   2.016  0.00  0.00    +0.169 HD
ATOM     18  C   UNL     1      -1.246  -0.730  -2.455  0.00  0.00    +0.045 C 
BRANCH  10  20
ATOM     19  C   UNL     1      -0.011   1.513  -0.009  0.00  0.00    +0.010 C 
ATOM     20  C   UNL     1       0.007  -0.017   0.002  0.00  0.00    +0.050 C 
ENDBRANCH  10  20
ENDBRANCH   1  13
BRANCH   7  21
ATOM     21  C   UNL     1     -10.881  -4.399   2.309  0.00  0.00    +0.080 C 
BRANCH  21  22
ATOM     22  C   UNL     1     -10.720  -5.878   2.553  0.00  0.00    -0.024 A 
ATOM     23  C   UNL     1     -11.113  -6.785   1.586  0.00  0.00    +0.005 A 
ATOM     24  C   UNL     1     -10.965  -8.140   1.810  0.00  0.00    +0.000 A 
ATOM     25  C   UNL     1     -10.425  -8.591   3.000  0.00  0.00    +0.001 A 
ATOM     26  C   UNL     1     -10.032  -7.685   3.967  0.00  0.00    +0.020 A 
ATOM     27  C   UNL     1     -10.174  -6.327   3.742  0.00  0.00    +0.044 A 
ATOM     28 CL   UNL     1      -9.675  -5.189   4.953  0.00  0.00    -0.083 Cl
ENDBRANCH  21  22
ENDBRANCH   7  21
TORSDOF 4
