REMARK  Name = ZINC35246643
REMARK  10 active torsions:
REMARK  status: ('A' for Active; 'I' for Inactive)
REMARK    1  A    between atoms: C_1  and  C_2
REMARK    2  A    between atoms: C_5  and  C_8
REMARK    3  A    between atoms: C_22  and  C_24
REMARK    4  A    between atoms: C_24  and  N_25
REMARK    5  A    between atoms: N_25  and  C_26
REMARK    6  A    between atoms: C_26  and  C_27
REMARK    7  A    between atoms: C_26  and  C_28
REMARK    8  A    between atoms: N_31  and  C_32
REMARK    9  A    between atoms: C_35  and  C_39
REMARK   10  A    between atoms: C_37  and  C_38
REMARK                            x       y       z     vdW  Elec       q    Type
REMARK                         _______ _______ _______ _____ _____    ______ ____
ROOT
ATOM      1  C   UNL     1      -0.619  -5.218   3.439  0.00  0.00    +0.159 C 
ATOM      2  C   UNL     1       0.170  -4.066   4.014  0.00  0.00    +0.049 A 
ATOM      3  C   UNL     1       0.304  -3.677   5.287  0.00  0.00    +0.025 A 
ATOM      4  C   UNL     1       1.153  -2.548   5.295  0.00  0.00    +0.020 A 
ATOM      5  C   UNL     1       1.502  -2.291   4.014  0.00  0.00    +0.092 A 
ATOM      6  N   UNL     1       0.903  -3.211   3.221  0.00  0.00    -0.316 N 
ATOM      7  C   UNL     1       0.943  -3.366   1.827  0.00  0.00    +0.068 A 
ATOM      8  C   UNL     1       1.861  -2.695   1.045  0.00  0.00    +0.028 A 
ATOM      9  C   UNL     1       1.867  -2.888  -0.326  0.00  0.00    +0.002 A 
ATOM     10  C   UNL     1       0.957  -3.751  -0.909  0.00  0.00    +0.002 A 
ATOM     11  C   UNL     1       0.034  -4.424  -0.132  0.00  0.00    +0.025 A 
ATOM     12  C   UNL     1       0.015  -4.234   1.241  0.00  0.00    +0.061 A 
ATOM     13  N   UNL     1      -0.933  -4.893   2.038  0.00  0.00    -0.255 N 
ATOM     14  C   UNL     1      -2.132  -5.228   1.522  0.00  0.00    +0.238 C 
ATOM     15  O   UNL     1      -2.428  -4.878   0.399  0.00  0.00    -0.273 OA
ENDROOT
BRANCH   1  20
ATOM     16  C   UNL     1       2.532 -10.057   3.666  0.00  0.00    +0.044 C 
ATOM     17  C   UNL     1       1.711  -8.795   3.607  0.00  0.00    -0.050 A 
ATOM     18  C   UNL     1       0.729  -8.564   4.553  0.00  0.00    +0.004 A 
ATOM     19  C   UNL     1      -0.024  -7.407   4.499  0.00  0.00    +0.006 A 
ATOM     20  C   UNL     1       0.204  -6.480   3.499  0.00  0.00    -0.021 A 
ATOM     21  C   UNL     1       1.186  -6.710   2.554  0.00  0.00    +0.006 A 
ATOM     22  C   UNL     1       1.942  -7.865   2.611  0.00  0.00    +0.004 A 
ENDBRANCH   1  20
BRANCH  14  23
ATOM     23  C   UNL     1      -3.105  -6.036   2.341  0.00  0.00    +0.205 C 
BRANCH  23  24
ATOM     24  N   UNL     1      -4.262  -6.389   1.515  0.00  0.00    -0.274 N 
ATOM     25  C   UNL     1      -5.331  -5.570   1.467  0.00  0.00    +0.307 C 
ATOM     26  O   UNL     1      -5.375  -4.585   2.179  0.00  0.00    -0.252 OA
ATOM     27  N   UNL     1      -6.353  -5.843   0.631  0.00  0.00    -0.269 N 
ATOM     28  H   UNL     1      -6.349  -6.663   0.113  0.00  0.00    +0.156 HD
BRANCH  27  29
ATOM     29  C   UNL     1      -7.417  -4.942   0.509  0.00  0.00    +0.038 A 
ATOM     30  C   UNL     1      -7.267  -3.627   0.930  0.00  0.00    +0.024 A 
ATOM     31  C   UNL     1      -8.319  -2.741   0.808  0.00  0.00    +0.005 A 
ATOM     32  C   UNL     1      -9.521  -3.162   0.269  0.00  0.00    -0.050 A 
ATOM     33  C   UNL     1      -9.674  -4.471  -0.150  0.00  0.00    +0.008 A 
ATOM     34  C   UNL     1      -8.623  -5.361  -0.037  0.00  0.00    -0.029 A 
ATOM     35  C   UNL     1      -8.788  -6.785  -0.499  0.00  0.00    +0.045 C 
ATOM     36  C   UNL     1     -10.668  -2.193   0.138  0.00  0.00    +0.044 C 
ENDBRANCH  27  29
BRANCH  24  37
ATOM     37  C   UNL     1      -4.258  -7.633   0.741  0.00  0.00    +0.072 C 
ATOM     38  C   UNL     1      -3.014  -7.676  -0.149  0.00  0.00    +0.028 C 
ATOM     39  C   UNL     1      -4.242  -8.828   1.697  0.00  0.00    +0.028 C 
ENDBRANCH  24  37
ENDBRANCH  23  24
ENDBRANCH  14  23
TORSDOF 5
