REMARK  Name = ZINC50910340
REMARK  6 active torsions:
REMARK  status: ('A' for Active; 'I' for Inactive)
REMARK    1  A    between atoms: C_1  and  C_2
REMARK    2  A    between atoms: C_2  and  C_3
REMARK    3  A    between atoms: C_3  and  C_5
REMARK    4  A    between atoms: C_3  and  N_23
REMARK    5  A    between atoms: C_5  and  C_7
REMARK    6  A    between atoms: C_5  and  N_14
REMARK                            x       y       z     vdW  Elec       q    Type
REMARK                         _______ _______ _______ _____ _____    ______ ____
ROOT
ATOM      1  C   UNL     1      -1.413  -2.063   0.004  0.00  0.00    +0.074 C 
ENDROOT
BRANCH   1   2
ATOM      2  N   UNL     1      -2.851  -2.357   0.070  0.00  0.00    -0.289 NA
ATOM      3  C   UNL     1      -3.408  -1.987   1.390  0.00  0.00    +0.120 C 
ATOM      4  C   UNL     1      -4.504  -2.991   1.666  0.00  0.00    -0.029 A 
ATOM      5  C   UNL     1      -5.562  -2.978   2.556  0.00  0.00    +0.005 A 
ATOM      6  C   UNL     1      -6.436  -4.047   2.606  0.00  0.00    +0.000 A 
ATOM      7  C   UNL     1      -6.254  -5.130   1.766  0.00  0.00    +0.000 A 
ATOM      8  C   UNL     1      -5.197  -5.143   0.876  0.00  0.00    +0.005 A 
ATOM      9  C   UNL     1      -4.322  -4.075   0.825  0.00  0.00    -0.029 A 
ATOM     10  C   UNL     1      -3.100  -3.813  -0.027  0.00  0.00    +0.120 C 
ENDBRANCH   1   2
BRANCH   1  11
ATOM     11  C   UNL     1      -0.697  -2.812   1.100  0.00  0.00    -0.018 A 
ATOM     12  C   UNL     1      -0.566  -2.244   2.353  0.00  0.00    +0.006 A 
ATOM     13  C   UNL     1       0.089  -2.930   3.358  0.00  0.00    +0.000 A 
ATOM     14  C   UNL     1       0.614  -4.185   3.110  0.00  0.00    +0.001 A 
ATOM     15  C   UNL     1       0.484  -4.754   1.857  0.00  0.00    +0.015 A 
ATOM     16  C   UNL     1      -0.177  -4.069   0.853  0.00  0.00    +0.022 A 
ATOM     17 BR   UNL     1      -0.362  -4.849  -0.860  0.00  0.00    -0.050 Br
ENDBRANCH   1  11
BRANCH   1  18
ATOM     18  C   UNL     1      -1.190  -0.560   0.184  0.00  0.00    -0.053 C 
BRANCH  18  19
ATOM     19  N   UNL     1      -1.986   0.175  -0.808  0.00  0.00    +0.381 N 
ATOM     20  H   UNL     1      -1.702  -0.099  -1.736  0.00  0.00    -0.090 HD
ATOM     21  H   UNL     1      -2.964  -0.038  -0.678  0.00  0.00    -0.090 HD
ATOM     22  H   UNL     1      -1.839   1.166  -0.689  0.00  0.00    -0.090 HD
ENDBRANCH  18  19
BRANCH  18  24
ATOM     23  C   UNL     1       0.538   1.241   0.296  0.00  0.00    +0.002 C 
ATOM     24  C   UNL     1       0.293  -0.238  -0.012  0.00  0.00    -0.018 C 
ENDBRANCH  18  24
ENDBRANCH   1  18
TORSDOF 5
