REMARK  Name = ZINC41587703
REMARK  5 active torsions:
REMARK  status: ('A' for Active; 'I' for Inactive)
REMARK    1  A    between atoms: C_1  and  C_2
REMARK    2  A    between atoms: C_5  and  C_8
REMARK    3  A    between atoms: C_8  and  N_9
REMARK    4  A    between atoms: C_15  and  C_19
REMARK    5  A    between atoms: C_22  and  C_23
REMARK                            x       y       z     vdW  Elec       q    Type
REMARK                         _______ _______ _______ _____ _____    ______ ____
ROOT
ATOM      1  N   UNL     1       1.403  -4.810  -0.152  0.00  0.00    -0.262 NA
ATOM      2  C   UNL     1       1.479  -6.260   0.075  0.00  0.00    +0.126 C 
ATOM      3  C   UNL     1       2.903  -6.724  -0.101  0.00  0.00    +0.010 A 
ATOM      4  C   UNL     1       3.276  -7.940   0.405  0.00  0.00    +0.024 A 
ATOM      5  C   UNL     1       4.587  -8.388   0.251  0.00  0.00    +0.068 A 
ATOM      6  C   UNL     1       5.533  -7.600  -0.423  0.00  0.00    +0.146 A 
ATOM      7  C   UNL     1       5.140  -6.369  -0.930  0.00  0.00    +0.034 A 
ATOM      8  C   UNL     1       3.832  -5.933  -0.769  0.00  0.00    +0.133 A 
ATOM      9  O   UNL     1       3.476  -4.720  -1.269  0.00  0.00    -0.476 OA
ATOM     10  C   UNL     1       2.078  -4.458  -1.411  0.00  0.00    +0.319 C 
ATOM     11  C   UNL     1       6.136  -5.503  -1.658  0.00  0.00    +0.051 C 
ATOM     12  O   UNL     1       6.724  -8.238  -0.449  0.00  0.00    -0.451 OA
ATOM     13  C   UNL     1       6.666  -9.437   0.176  0.00  0.00    +0.176 C 
ATOM     14  C   UNL     1       7.689 -10.314   0.324  0.00  0.00    +0.058 C 
ATOM     15  C   UNL     1       5.290  -9.615   0.668  0.00  0.00    +0.231 C 
ATOM     16  O   UNL     1       4.834 -10.564   1.282  0.00  0.00    -0.283 OA
ENDROOT
BRANCH  14  17
ATOM     17  C   UNL     1       8.983 -10.048  -0.321  0.00  0.00    -0.020 A 
ATOM     18  C   UNL     1       9.207  -8.831  -0.974  0.00  0.00    +0.008 A 
ATOM     19  C   UNL     1      10.423  -8.589  -1.577  0.00  0.00    +0.002 A 
ATOM     20  C   UNL     1      11.423  -9.546  -1.537  0.00  0.00    +0.020 A 
ATOM     21  C   UNL     1      11.210 -10.754  -0.892  0.00  0.00    +0.042 A 
ATOM     22  C   UNL     1      10.000 -11.009  -0.280  0.00  0.00    +0.028 A 
ATOM     23 CL   UNL     1      12.471 -11.946  -0.850  0.00  0.00    -0.084 Cl
ENDBRANCH  14  17
BRANCH   1  24
ATOM     24  C   UNL     1       0.007  -4.351  -0.157  0.00  0.00    +0.123 C 
BRANCH  24  29
ATOM     25  C   UNL     1      -0.123   1.426  -0.215  0.00  0.00    +0.044 C 
ATOM     26  C   UNL     1      -0.089  -0.081  -0.200  0.00  0.00    -0.050 A 
ATOM     27  C   UNL     1      -0.072  -0.784  -1.390  0.00  0.00    +0.003 A 
ATOM     28  C   UNL     1      -0.041  -2.166  -1.376  0.00  0.00    +0.005 A 
ATOM     29  C   UNL     1      -0.026  -2.845  -0.172  0.00  0.00    -0.033 A 
ATOM     30  C   UNL     1      -0.042  -2.142   1.018  0.00  0.00    +0.005 A 
ATOM     31  C   UNL     1      -0.069  -0.760   1.004  0.00  0.00    +0.003 A 
ENDBRANCH  24  29
ENDBRANCH   1  24
TORSDOF 3
