REMARK  Name = ZINC03624844
REMARK  10 active torsions:
REMARK  status: ('A' for Active; 'I' for Inactive)
REMARK    1  A    between atoms: C_1  and  C_2
REMARK    2  A    between atoms: C_2  and  C_3
REMARK    3  A    between atoms: C_3  and  C_4
REMARK    4  A    between atoms: C_4  and  C_5
REMARK    5  A    between atoms: C_5  and  C_6
REMARK    6  A    between atoms: C_6  and  N_7
REMARK    7  A    between atoms: C_13  and  C_27
REMARK    8  A    between atoms: C_15  and  O_26
REMARK    9  A    between atoms: C_17  and  O_24
REMARK   10  A    between atoms: C_17  and  O_25
REMARK                            x       y       z     vdW  Elec       q    Type
REMARK                         _______ _______ _______ _____ _____    ______ ____
ROOT
ATOM      1  N   UNL     1      -0.149   3.546   0.381  0.00  0.00    -0.274 N 
ATOM      2  C   UNL     1      -0.798   3.900  -0.757  0.00  0.00    +0.288 C 
ATOM      3  O   UNL     1      -1.994   4.083  -0.853  0.00  0.00    -0.266 OA
ATOM      4  C   UNL     1       0.186   4.029  -1.874  0.00  0.00    +0.249 C 
ATOM      5  O   UNL     1      -0.066   4.372  -3.015  0.00  0.00    -0.282 OA
ATOM      6  C   UNL     1       1.445   3.688  -1.376  0.00  0.00    +0.082 C 
ATOM      7  C   UNL     1       2.814   3.793  -1.444  0.00  0.00    +0.141 C 
ATOM      8  O   UNL     1       3.402   3.503  -0.261  0.00  0.00    -0.453 OA
ATOM      9  C   UNL     1       2.399   3.542   0.791  0.00  0.00    +0.269 C 
ATOM     10  C   UNL     1       1.161   3.110  -0.005  0.00  0.00    +0.198 C 
ATOM     11  C   UNL     1       1.286   1.575  -0.017  0.00  0.00    +0.226 C 
ATOM     12  C   UNL     1       2.042   1.244   1.254  0.00  0.00    +0.023 A 
ATOM     13  C   UNL     1       2.680   2.378   1.725  0.00  0.00    +0.034 A 
ATOM     14  C   UNL     1       3.429   2.317   2.886  0.00  0.00    +0.010 A 
ATOM     15  C   UNL     1       3.545   1.125   3.575  0.00  0.00    +0.000 A 
ATOM     16  C   UNL     1       2.912  -0.009   3.103  0.00  0.00    +0.000 A 
ATOM     17  C   UNL     1       2.161   0.051   1.945  0.00  0.00    +0.009 A 
ENDROOT
BRANCH   7  18
ATOM     18  C   UNL     1       3.552   4.174  -2.660  0.00  0.00    +0.017 A 
ATOM     19  C   UNL     1       2.860   4.451  -3.844  0.00  0.00    +0.014 A 
ATOM     20  C   UNL     1       3.556   4.811  -4.977  0.00  0.00    +0.039 A 
ATOM     21  C   UNL     1       4.940   4.890  -4.948  0.00  0.00    +0.123 A 
ATOM     22  C   UNL     1       5.633   4.612  -3.779  0.00  0.00    +0.039 A 
ATOM     23  C   UNL     1       4.948   4.255  -2.638  0.00  0.00    +0.014 A 
ATOM     24  F   UNL     1       5.617   5.239  -6.064  0.00  0.00    -0.205 F 
ENDBRANCH   7  18
BRANCH  11  25
ATOM     25  O   UNL     1      -0.008   0.969   0.000  0.00  0.00    -0.359 OA
ATOM     26  H   UNL     1       0.011   0.002  -0.006  0.00  0.00    +0.213 HD
ENDBRANCH  11  25
BRANCH  11  27
ATOM     27  O   UNL     1       2.022   1.144  -1.164  0.00  0.00    -0.359 OA
ATOM     28  H   UNL     1       2.154   0.187  -1.210  0.00  0.00    +0.213 HD
ENDBRANCH  11  27
BRANCH   9  29
ATOM     29  O   UNL     1       2.273   4.811   1.435  0.00  0.00    -0.350 OA
ATOM     30  H   UNL     1       3.057   5.077   1.936  0.00  0.00    +0.214 HD
ENDBRANCH   9  29
BRANCH   1  31
ATOM     31  C   UNL     1      -0.685   3.599   1.744  0.00  0.00    +0.109 C 
BRANCH  31  32
ATOM     32  C   UNL     1      -1.479   2.322   2.029  0.00  0.00    +0.019 C 
BRANCH  32  33
ATOM     33  C   UNL     1      -2.150   2.435   3.399  0.00  0.00    +0.002 C 
BRANCH  33  34
ATOM     34  C   UNL     1      -2.944   1.159   3.685  0.00  0.00    -0.000 C 
BRANCH  34  36
ATOM     35  C   UNL     1      -4.409  -0.005   5.341  0.00  0.00    +0.004 C 
ATOM     36  C   UNL     1      -3.616   1.272   5.055  0.00  0.00    -0.003 C 
ENDBRANCH  34  36
ENDBRANCH  33  34
ENDBRANCH  32  33
ENDBRANCH  31  32
ENDBRANCH   1  31
TORSDOF 9
