REMARK  Name = ZINC39646715
REMARK  8 active torsions:
REMARK  status: ('A' for Active; 'I' for Inactive)
REMARK    1  A    between atoms: C_1  and  C_2
REMARK    2  A    between atoms: C_6  and  C_10
REMARK    3  A    between atoms: C_10  and  O_11
REMARK    4  A    between atoms: O_11  and  C_12
REMARK    5  A    between atoms: C_15  and  S_21
REMARK    6  A    between atoms: C_17  and  C_18
REMARK    7  A    between atoms: S_21  and  N_24
REMARK    8  A    between atoms: C_30  and  C_32
REMARK                            x       y       z     vdW  Elec       q    Type
REMARK                         _______ _______ _______ _____ _____    ______ ____
ROOT
ATOM      1  C   UNL     1       0.005  -3.108  -6.939  0.00  0.00    +0.135 A 
ATOM      2  C   UNL     1       0.018  -4.495  -6.961  0.00  0.00    +0.048 A 
ATOM      3  C   UNL     1       0.020  -5.168  -8.166  0.00  0.00    +0.032 A 
ATOM      4  C   UNL     1       0.009  -4.467  -9.362  0.00  0.00    +0.106 A 
ATOM      5  C   UNL     1      -0.003  -3.090  -9.360  0.00  0.00    +0.047 A 
ATOM      6  C   UNL     1      -0.011  -2.394  -8.146  0.00  0.00    +0.107 A 
ENDROOT
BRANCH   6   7
ATOM      7  C   UNL     1      -0.030  -0.922  -8.137  0.00  0.00    +0.390 C 
ATOM      8  O   UNL     1      -0.045  -0.304  -9.192  0.00  0.00    -0.240 OA
ATOM      9  O   UNL     1      -0.032  -0.318  -7.073  0.00  0.00    -0.240 OA
ENDBRANCH   6   7
BRANCH   4  10
ATOM     10  S   UNL     1       0.013  -5.341 -10.891  0.00  0.00    +0.061 S 
ATOM     11  O   UNL     1       0.552  -4.457 -11.864  0.00  0.00    -0.153 OA
ATOM     12  O   UNL     1       0.577  -6.619 -10.627  0.00  0.00    -0.153 OA
BRANCH  10  13
ATOM     13  N   UNL     1      -1.568  -5.600 -11.311  0.00  0.00    -0.177 NA
ATOM     14  C   UNL     1      -2.376  -6.767 -10.930  0.00  0.00    +0.109 C 
ATOM     15  C   UNL     1      -3.770  -6.587 -11.566  0.00  0.00    +0.018 C 
ATOM     16  C   UNL     1      -3.494  -5.607 -12.737  0.00  0.00    +0.018 C 
ATOM     17  C   UNL     1      -2.400  -4.694 -12.124  0.00  0.00    +0.109 C 
ENDBRANCH  10  13
ENDBRANCH   4  10
BRANCH   1  18
ATOM     18  O   UNL     1       0.003  -2.445  -5.755  0.00  0.00    -0.484 OA
BRANCH  18  19
ATOM     19  C   UNL     1       0.021  -3.239  -4.567  0.00  0.00    +0.302 C 
BRANCH  19  25
ATOM     20  C   UNL     1      -0.018   1.503   0.010  0.00  0.00    +0.041 C 
ATOM     21  C   UNL     1       0.002  -0.004   0.002  0.00  0.00    -0.034 C 
ATOM     22  C   UNL     1       0.006  -0.691  -1.150  0.00  0.00    +0.071 C 
ATOM     23  C   UNL     1       0.026  -2.167  -1.069  0.00  0.00    +0.112 C 
ATOM     24  N   UNL     1       0.030  -2.895  -2.160  0.00  0.00    -0.224 NA
ATOM     25  C   UNL     1       0.016  -2.337  -3.360  0.00  0.00    +0.161 C 
ATOM     26  N   UNL     1      -0.003  -1.040  -3.554  0.00  0.00    -0.158 NA
ATOM     27  C   UNL     1      -0.008  -0.158  -2.549  0.00  0.00    +0.271 C 
ATOM     28  O   UNL     1      -0.026   1.042  -2.765  0.00  0.00    -0.268 OA
ATOM     29  S   UNL     1       0.040  -2.523   0.670  0.00  0.00    -0.086 S 
ATOM     30  C   UNL     1       0.025  -0.793   1.292  0.00  0.00    +0.192 C 
BRANCH  30  31
ATOM     31  C   UNL     1       1.270  -0.492   2.086  0.00  0.00    +0.373 C 
ATOM     32  O   UNL     1       1.193  -0.287   3.285  0.00  0.00    -0.245 OA
ATOM     33  O   UNL     1       2.354  -0.453   1.529  0.00  0.00    -0.245 OA
ENDBRANCH  30  31
ENDBRANCH  19  25
ENDBRANCH  18  19
ENDBRANCH   1  18
TORSDOF 7
