REMARK  Name = ZINC40750222
REMARK  7 active torsions:
REMARK  status: ('A' for Active; 'I' for Inactive)
REMARK    1  A    between atoms: C_1  and  C_2
REMARK    2  A    between atoms: C_2  and  C_3
REMARK    3  A    between atoms: C_2  and  C_4
REMARK    4  A    between atoms: C_2  and  C_5
REMARK    5  A    between atoms: C_8  and  C_10
REMARK    6  A    between atoms: C_10  and  N_11
REMARK    7  A    between atoms: C_19  and  N_21
REMARK                            x       y       z     vdW  Elec       q    Type
REMARK                         _______ _______ _______ _____ _____    ______ ____
ROOT
ATOM      1  N   UNL     1       3.356  -3.398  -3.078  0.00  0.00    +0.389 N 
ATOM      2  C   UNL     1       4.370  -2.425  -3.566  0.00  0.00    -0.066 C 
ATOM      3  C   UNL     1       4.549  -2.781  -5.060  0.00  0.00    -0.017 C 
ATOM      4  C   UNL     1       4.148  -4.267  -5.163  0.00  0.00    -0.017 C 
ATOM      5  C   UNL     1       3.763  -4.675  -3.723  0.00  0.00    -0.066 C 
ATOM      6  C   UNL     1       5.039  -5.157  -3.014  0.00  0.00    +0.003 C 
ATOM      7  C   UNL     1       6.158  -4.141  -3.262  0.00  0.00    +0.048 C 
ATOM      8  C   UNL     1       5.686  -2.734  -2.834  0.00  0.00    +0.003 C 
ATOM      9  H   UNL     1       3.393  -3.480  -2.073  0.00  0.00    -0.080 HD
ENDROOT
BRANCH   7  10
ATOM     10  N   UNL     1       6.503  -4.135  -4.690  0.00  0.00    -0.327 NA
ATOM     11  H   UNL     1       7.240  -3.472  -4.881  0.00  0.00    +0.118 HD
ATOM     12  H   UNL     1       6.758  -5.059  -5.005  0.00  0.00    +0.118 HD
ENDBRANCH   7  10
BRANCH   1  13
ATOM     13  C   UNL     1       2.010  -3.004  -3.515  0.00  0.00    +0.020 C 
BRANCH  13  17
ATOM     14  C   UNL     1       0.707  -0.490  -1.238  0.00  0.00    +0.130 A 
ATOM     15  C   UNL     1       1.249   0.276  -2.200  0.00  0.00    +0.156 A 
ATOM     16  N   UNL     1       1.778  -0.545  -3.125  0.00  0.00    -0.223 NA
ATOM     17  C   UNL     1       1.574  -1.777  -2.756  0.00  0.00    +0.179 A 
ATOM     18  O   UNL     1       0.918  -1.774  -1.587  0.00  0.00    -0.446 OA
BRANCH  14  20
ATOM     19  C   UNL     1      -0.019   1.526   0.010  0.00  0.00    +0.019 C 
ATOM     20  C   UNL     1       0.002  -0.004   0.002  0.00  0.00    +0.022 C 
ATOM     21  C   UNL     1       0.742  -0.511   1.242  0.00  0.00    +0.019 C 
ATOM     22  C   UNL     1      -1.433  -0.534   0.013  0.00  0.00    +0.019 C 
ENDBRANCH  14  20
ENDBRANCH  13  17
ENDBRANCH   1  13
TORSDOF 4
