REMARK  Name = ZINC41586582
REMARK  13 active torsions:
REMARK  status: ('A' for Active; 'I' for Inactive)
REMARK    1  A    between atoms: C_1  and  C_2
REMARK    2  A    between atoms: C_2  and  O_3
REMARK    3  A    between atoms: O_3  and  C_4
REMARK    4  A    between atoms: C_4  and  C_6
REMARK    5  A    between atoms: N_11  and  C_13
REMARK    6  A    between atoms: C_13  and  C_14
REMARK    7  A    between atoms: C_15  and  O_36
REMARK    8  A    between atoms: C_23  and  C_26
REMARK    9  A    between atoms: C_24  and  C_25
REMARK   10  A    between atoms: C_29  and  O_34
REMARK   11  A    between atoms: C_30  and  O_32
REMARK   12  A    between atoms: O_32  and  C_33
REMARK   13  A    between atoms: O_34  and  C_35
REMARK                            x       y       z     vdW  Elec       q    Type
REMARK                         _______ _______ _______ _____ _____    ______ ____
ROOT
ATOM      1  C   UNL     1      -5.406  -6.592   0.218  0.00  0.00    +0.020 A 
ATOM      2  C   UNL     1      -5.949  -6.800   1.477  0.00  0.00    +0.122 A 
ATOM      3  C   UNL     1      -7.225  -7.341   1.615  0.00  0.00    +0.046 A 
ATOM      4  C   UNL     1      -7.953  -7.687   0.514  0.00  0.00    +0.015 A 
ATOM      5  C   UNL     1      -7.412  -7.507  -0.766  0.00  0.00    +0.022 A 
ATOM      6  C   UNL     1      -6.137  -6.926  -0.910  0.00  0.00    +0.144 A 
ATOM      7  O   UNL     1      -5.639  -6.683  -2.147  0.00  0.00    -0.421 OA
ATOM      8  C   UNL     1      -6.088  -7.474  -3.149  0.00  0.00    +0.345 A 
ATOM      9  O   UNL     1      -5.342  -7.853  -4.034  0.00  0.00    -0.244 OA
ATOM     10  C   UNL     1      -7.508  -7.862  -3.135  0.00  0.00    +0.070 A 
ATOM     11  C   UNL     1      -8.144  -7.893  -1.920  0.00  0.00    -0.025 A 
ATOM     12  C   UNL     1      -9.588  -8.310  -1.815  0.00  0.00    +0.045 C 
ENDROOT
BRANCH  10  13
ATOM     13  C   UNL     1      -8.221  -8.214  -4.385  0.00  0.00    -0.007 A 
ATOM     14  C   UNL     1      -8.702  -9.510  -4.572  0.00  0.00    +0.012 A 
ATOM     15  C   UNL     1      -9.365  -9.838  -5.737  0.00  0.00    +0.050 A 
ATOM     16  C   UNL     1      -9.555  -8.881  -6.723  0.00  0.00    +0.162 A 
ATOM     17  C   UNL     1      -9.078  -7.586  -6.541  0.00  0.00    +0.162 A 
ATOM     18  C   UNL     1      -8.417  -7.250  -5.373  0.00  0.00    +0.058 A 
BRANCH  17  19
ATOM     19  O   UNL     1      -9.266  -6.649  -7.509  0.00  0.00    -0.491 OA
ATOM     20  C   UNL     1      -8.750  -5.341  -7.255  0.00  0.00    +0.277 C 
ENDBRANCH  17  19
BRANCH  16  21
ATOM     21  O   UNL     1     -10.209  -9.209  -7.869  0.00  0.00    -0.491 OA
ATOM     22  C   UNL     1     -10.672 -10.556  -7.990  0.00  0.00    +0.277 C 
ENDBRANCH  16  21
ENDBRANCH  10  13
BRANCH   2  23
ATOM     23  O   UNL     1      -5.232  -6.473   2.582  0.00  0.00    -0.506 OA
ATOM     24  H   UNL     1      -5.370  -5.566   2.887  0.00  0.00    +0.292 HD
ENDBRANCH   2  23
BRANCH   1  25
ATOM     25  C   UNL     1      -4.028  -6.000   0.078  0.00  0.00    -0.036 C 
BRANCH  25  30
ATOM     26  C   UNL     1      -2.881  -2.427   0.017  0.00  0.00    +0.081 C 
ATOM     27  C   UNL     1      -3.647  -1.960  -1.225  0.00  0.00    +0.011 C 
ATOM     28  C   UNL     1      -5.023  -2.632  -1.246  0.00  0.00    -0.018 C 
ATOM     29  C   UNL     1      -4.844  -4.151  -1.211  0.00  0.00    -0.078 C 
ATOM     30  N   UNL     1      -4.129  -4.535   0.011  0.00  0.00    +0.383 N 
ATOM     31  C   UNL     1      -2.781  -3.954   0.005  0.00  0.00    -0.064 C 
ATOM     32  H   UNL     1      -4.635  -4.198   0.816  0.00  0.00    -0.081 HD
BRANCH  26  33
ATOM     33  C   UNL     1      -1.496  -1.832   0.006  0.00  0.00    +0.308 C 
ATOM     34  O   UNL     1      -0.528  -2.555  -0.007  0.00  0.00    -0.251 OA
BRANCH  33  35
ATOM     35  O   UNL     1      -1.339  -0.499   0.012  0.00  0.00    -0.465 OA
BRANCH  35  37
ATOM     36  C   UNL     1      -0.019   1.526   0.010  0.00  0.00    +0.048 C 
ATOM     37  C   UNL     1       0.002  -0.004   0.002  0.00  0.00    +0.229 C 
ENDBRANCH  35  37
ENDBRANCH  33  35
ENDBRANCH  26  33
ENDBRANCH  25  30
ENDBRANCH   1  25
TORSDOF 9
