REMARK  Name = ZINC39580258
REMARK  14 active torsions:
REMARK  status: ('A' for Active; 'I' for Inactive)
REMARK    1  A    between atoms: C_1  and  C_2
REMARK    2  A    between atoms: C_4  and  C_14
REMARK    3  A    between atoms: C_5  and  C_13
REMARK    4  A    between atoms: N_6  and  C_7
REMARK    5  A    between atoms: C_7  and  C_8
REMARK    6  A    between atoms: C_14  and  C_16
REMARK    7  A    between atoms: C_16  and  C_18
REMARK    8  A    between atoms: C_16  and  O_19
REMARK    9  A    between atoms: O_19  and  C_20
REMARK   10  A    between atoms: C_20  and  C_22
REMARK   11  A    between atoms: C_22  and  N_23
REMARK   12  A    between atoms: C_28  and  C_35
REMARK   13  A    between atoms: C_31  and  C_33
REMARK   14  A    between atoms: C_31  and  C_34
REMARK                            x       y       z     vdW  Elec       q    Type
REMARK                         _______ _______ _______ _____ _____    ______ ____
ROOT
ATOM      1  C   UNL     1      -1.085  -3.523  -4.928  0.00  0.00    +0.326 C 
ATOM      2  O   UNL     1      -1.341  -2.538  -5.580  0.00  0.00    -0.249 OA
ENDROOT
BRANCH   1   3
ATOM      3  O   UNL     1      -0.424  -3.405  -3.765  0.00  0.00    -0.452 OA
BRANCH   3   4
ATOM      4  C   UNL     1      -0.056  -2.085  -3.359  0.00  0.00    +0.244 C 
ATOM      5  C   UNL     1       1.331  -1.750  -3.913  0.00  0.00    +0.061 C 
BRANCH   4   6
ATOM      6  C   UNL     1      -0.027  -2.012  -1.854  0.00  0.00    +0.205 C 
ATOM      7  O   UNL     1       0.068  -3.029  -1.199  0.00  0.00    -0.288 OA
BRANCH   6  11
ATOM      8  C   UNL     1      -0.397   2.996  -0.991  0.00  0.00    +0.063 C 
ATOM      9  C   UNL     1      -0.277   1.503  -0.819  0.00  0.00    +0.017 A 
ATOM     10  C   UNL     1      -0.230   0.606  -1.817  0.00  0.00    +0.034 A 
ATOM     11  C   UNL     1      -0.112  -0.714  -1.183  0.00  0.00    +0.042 A 
ATOM     12  C   UNL     1      -0.099  -0.478   0.179  0.00  0.00    +0.027 A 
ATOM     13  N   UNL     1      -0.193   0.849   0.376  0.00  0.00    -0.340 N 
ATOM     14  C   UNL     1       0.008  -1.526   1.257  0.00  0.00    +0.064 C 
BRANCH  13  15
ATOM     15  C   UNL     1      -0.207   1.501   1.688  0.00  0.00    +0.196 C 
BRANCH  15  16
ATOM     16  C   UNL     1      -1.627   1.614   2.178  0.00  0.00    +0.124 A 
ATOM     17  C   UNL     1      -2.278   0.701   2.922  0.00  0.00    +0.046 A 
ATOM     18  C   UNL     1      -3.577   1.210   3.151  0.00  0.00    +0.041 A 
ATOM     19  C   UNL     1      -3.643   2.403   2.533  0.00  0.00    +0.195 A 
ATOM     20  O   UNL     1      -2.457   2.645   1.950  0.00  0.00    -0.466 OA
ENDBRANCH  15  16
ENDBRANCH  13  15
ENDBRANCH   6  11
ENDBRANCH   4   6
ENDBRANCH   3   4
ENDBRANCH   1   3
BRANCH   1  21
ATOM     21  C   UNL     1      -1.506  -4.883  -5.421  0.00  0.00    +0.238 C 
BRANCH  21  22
ATOM     22  N   UNL     1      -2.204  -4.744  -6.701  0.00  0.00    -0.213 N 
ATOM     23  C   UNL     1      -3.535  -4.561  -6.824  0.00  0.00    +0.247 C 
ATOM     24  O   UNL     1      -4.350  -4.485  -5.930  0.00  0.00    -0.273 OA
ATOM     25  C   UNL     1      -3.796  -4.473  -8.310  0.00  0.00    +0.113 C 
ATOM     26  C   UNL     1      -4.389  -3.114  -8.666  0.00  0.00    +0.038 C 
ATOM     27  C   UNL     1      -4.616  -3.034 -10.177  0.00  0.00    -0.011 C 
ATOM     28  C   UNL     1      -5.566  -4.154 -10.609  0.00  0.00    +0.009 C 
ATOM     29  C   UNL     1      -4.947  -5.510 -10.267  0.00  0.00    -0.032 C 
ATOM     30  C   UNL     1      -4.721  -5.600  -8.755  0.00  0.00    +0.041 C 
ATOM     31  C   UNL     1      -3.608  -5.658 -10.992  0.00  0.00    +0.011 C 
ATOM     32  C   UNL     1      -5.893  -6.629 -10.708  0.00  0.00    +0.011 C 
ATOM     33  C   UNL     1      -5.232  -1.679 -10.530  0.00  0.00    +0.007 C 
ATOM     34  N   UNL     1      -2.467  -4.629  -8.915  0.00  0.00    -0.285 N 
ATOM     35  C   UNL     1      -1.599  -4.776  -7.895  0.00  0.00    +0.310 C 
ATOM     36  O   UNL     1      -0.402  -4.926  -8.042  0.00  0.00    -0.252 OA
ATOM     37  H   UNL     1      -2.255  -4.623  -9.861  0.00  0.00    +0.151 HD
ENDBRANCH  21  22
ENDBRANCH   1  21
TORSDOF 8
