REMARK  Name = ZINC42397578
REMARK  4 active torsions:
REMARK  status: ('A' for Active; 'I' for Inactive)
REMARK    1  A    between atoms: C_3  and  C_11
REMARK    2  A    between atoms: C_6  and  N_7
REMARK    3  A    between atoms: C_11  and  C_12
REMARK    4  A    between atoms: C_17  and  N_19
REMARK                            x       y       z     vdW  Elec       q    Type
REMARK                         _______ _______ _______ _____ _____    ______ ____
ROOT
ATOM      1  C   UNL     1       1.349  -0.775  -0.351  0.00  0.00    +0.033 A 
ATOM      2  C   UNL     1       2.495  -0.000  -0.351  0.00  0.00    +0.007 A 
ATOM      3  C   UNL     1       2.423   1.340  -0.022  0.00  0.00    -0.033 A 
ATOM      4  C   UNL     1       1.205   1.907   0.307  0.00  0.00    +0.023 A 
ATOM      5  C   UNL     1       0.059   1.132   0.307  0.00  0.00    +0.048 A 
ATOM      6  C   UNL     1       0.132  -0.208  -0.022  0.00  0.00    +0.127 A 
ATOM      7 BR   UNL     1       1.106   3.741   0.757  0.00  0.00    -0.050 Br
ENDROOT
BRANCH   6   8
ATOM      8  N   UNL     1      -1.094  -1.038  -0.022  0.00  0.00    +0.056 N 
ATOM      9  O   UNL     1      -1.030  -2.210  -0.310  0.00  0.00    -0.126 OA
ATOM     10  O   UNL     1      -2.159  -0.543   0.265  0.00  0.00    -0.126 OA
ENDBRANCH   6   8
BRANCH   3  11
ATOM     11  C   UNL     1       3.672   2.184  -0.022  0.00  0.00    +0.038 C 
BRANCH  11  12
ATOM     12  C   UNL     1       4.188   2.330   1.411  0.00  0.00    -0.021 C 
ATOM     13  C   UNL     1       4.716   0.974   1.923  0.00  0.00    +0.002 C 
ATOM     14  C   UNL     1       6.240   1.034   1.655  0.00  0.00    -0.001 C 
ATOM     15  C   UNL     1       6.586   2.509   1.978  0.00  0.00    -0.016 C 
ATOM     16  C   UNL     1       5.376   3.307   1.446  0.00  0.00    -0.072 C 
BRANCH  16  17
ATOM     17  N   UNL     1       5.078   4.429   2.345  0.00  0.00    +0.380 N 
ATOM     18  H   UNL     1       4.909   4.079   3.276  0.00  0.00    -0.090 HD
ATOM     19  H   UNL     1       5.862   5.064   2.362  0.00  0.00    -0.090 HD
ATOM     20  H   UNL     1       4.258   4.916   2.015  0.00  0.00    -0.090 HD
ENDBRANCH  16  17
ENDBRANCH  11  12
ENDBRANCH   3  11
TORSDOF 4
