REMARK  Name = ZINC20849418
REMARK  6 active torsions:
REMARK  status: ('A' for Active; 'I' for Inactive)
REMARK    1  A    between atoms: C_1  and  C_2
REMARK    2  A    between atoms: C_6  and  C_17
REMARK    3  A    between atoms: N_8  and  C_9
REMARK    4  A    between atoms: C_19  and  C_22
REMARK    5  A    between atoms: C_29  and  C_32
REMARK    6  A    between atoms: C_32  and  O_33
REMARK                            x       y       z     vdW  Elec       q    Type
REMARK                         _______ _______ _______ _____ _____    ______ ____
ROOT
ATOM      1  C   UNL     1      -0.018   1.503   0.010  0.00  0.00    +0.069 C 
ATOM      2  C   UNL     1       0.002  -0.004   0.002  0.00  0.00    +0.081 A 
ATOM      3  C   UNL     1       0.006  -0.686  -1.204  0.00  0.00    +0.159 A 
ATOM      4  C   UNL     1       0.028  -2.094  -1.187  0.00  0.00    +0.027 A 
ATOM      5  C   UNL     1       0.038  -2.834  -2.450  0.00  0.00    +0.027 A 
ATOM      6  C   UNL     1       0.293  -2.119  -3.598  0.00  0.00    +0.068 A 
ATOM      7  C   UNL     1       0.537  -0.669  -3.453  0.00  0.00    +0.209 A 
ATOM      8  N   UNL     1       1.266  -0.016  -4.331  0.00  0.00    -0.325 N 
ATOM      9  O   UNL     1      -0.012  -0.030  -2.389  0.00  0.00    -0.437 OA
ATOM     10  C   UNL     1       0.041  -2.749   0.051  0.00  0.00    +0.007 A 
ATOM     11  C   UNL     1       0.035  -1.985   1.199  0.00  0.00    +0.117 A 
ATOM     12  N   UNL     1       0.022  -0.666   1.143  0.00  0.00    -0.256 NA
ATOM     13  H   UNL     1       1.652  -0.486  -5.086  0.00  0.00    +0.169 HD
ENDROOT
BRANCH   8  14
ATOM     14  C   UNL     1       1.480   1.326  -4.179  0.00  0.00    +0.042 A 
ATOM     15  C   UNL     1       0.420   2.171  -3.842  0.00  0.00    +0.028 A 
ATOM     16  C   UNL     1       0.642   3.524  -3.689  0.00  0.00    +0.040 A 
ATOM     17  C   UNL     1       1.913   4.045  -3.871  0.00  0.00    +0.124 A 
ATOM     18  C   UNL     1       2.968   3.212  -4.205  0.00  0.00    +0.040 A 
ATOM     19  C   UNL     1       2.760   1.856  -4.354  0.00  0.00    +0.028 A 
ATOM     20  F   UNL     1       2.124   5.371  -3.721  0.00  0.00    -0.205 F 
ENDBRANCH   8  14
BRANCH   6  21
ATOM     21  C   UNL     1       0.323  -2.775  -4.920  0.00  0.00    +0.114 A 
ATOM     22  N   UNL     1       0.124  -4.047  -5.229  0.00  0.00    -0.239 NA
ATOM     23  C   UNL     1       0.188  -4.467  -6.478  0.00  0.00    +0.079 A 
ATOM     24  C   UNL     1       0.466  -3.569  -7.476  0.00  0.00    +0.075 A 
ATOM     25  S   UNL     1       0.629  -2.061  -6.529  0.00  0.00    -0.075 S 
BRANCH  23  26
ATOM     26  C   UNL     1      -0.038  -5.897  -6.799  0.00  0.00    +0.001 A 
ATOM     27  C   UNL     1       0.036  -6.338  -8.119  0.00  0.00    +0.011 A 
ATOM     28  C   UNL     1      -0.175  -7.669  -8.413  0.00  0.00    +0.020 A 
ATOM     29  C   UNL     1      -0.461  -8.567  -7.399  0.00  0.00    +0.041 A 
ATOM     30  C   UNL     1      -0.536  -8.135  -6.086  0.00  0.00    +0.020 A 
ATOM     31  C   UNL     1      -0.320  -6.807  -5.781  0.00  0.00    +0.011 A 
ATOM     32 CL   UNL     1      -0.726 -10.241  -7.775  0.00  0.00    -0.084 Cl
ENDBRANCH  23  26
ENDBRANCH   6  21
BRANCH  10  33
ATOM     33  C   UNL     1       0.061  -4.254   0.126  0.00  0.00    +0.193 C 
BRANCH  33  34
ATOM     34  O   UNL     1       0.072  -4.662   1.495  0.00  0.00    -0.390 OA
ATOM     35  H   UNL     1       0.085  -5.621   1.620  0.00  0.00    +0.210 HD
ENDBRANCH  33  34
ENDBRANCH  10  33
TORSDOF 5
