REMARK  Name = ZINC03633787
REMARK  6 active torsions:
REMARK  status: ('A' for Active; 'I' for Inactive)
REMARK    1  A    between atoms: C_1  and  O_2
REMARK    2  A    between atoms: O_2  and  C_3
REMARK    3  A    between atoms: C_5  and  C_19
REMARK    4  A    between atoms: C_8  and  O_9
REMARK    5  A    between atoms: O_9  and  C_10
REMARK    6  A    between atoms: C_10  and  C_12
REMARK                            x       y       z     vdW  Elec       q    Type
REMARK                         _______ _______ _______ _____ _____    ______ ____
ROOT
ATOM      1  C   UNL     1       4.713   3.761  -3.341  0.00  0.00    +0.163 A 
ATOM      2  C   UNL     1       4.302   3.613  -2.026  0.00  0.00    +0.053 A 
ATOM      3  C   UNL     1       4.161   2.349  -1.484  0.00  0.00    -0.036 A 
ATOM      4  C   UNL     1       4.418   1.230  -2.255  0.00  0.00    +0.008 A 
ATOM      5  C   UNL     1       4.823   1.371  -3.569  0.00  0.00    +0.050 A 
ATOM      6  C   UNL     1       4.972   2.635  -4.117  0.00  0.00    +0.173 A 
ENDROOT
BRANCH   3   7
ATOM      7  C   UNL     1       3.720   2.190  -0.052  0.00  0.00    +0.060 C 
ATOM      8  C   UNL     1       4.798   1.439   0.731  0.00  0.00    +0.109 C 
ATOM      9  C   UNL     1       4.809  -0.008   0.314  0.00  0.00    +0.218 C 
ATOM     10  O   UNL     1       5.863  -0.602   0.226  0.00  0.00    -0.275 OA
ATOM     11  N   UNL     1       3.659  -0.647   0.037  0.00  0.00    -0.285 N 
ATOM     12  C   UNL     1       2.441   0.040   0.023  0.00  0.00    +0.038 A 
ATOM     13  C   UNL     1       2.428   1.417  -0.009  0.00  0.00    -0.011 A 
ATOM     14  C   UNL     1       1.202   2.101  -0.004  0.00  0.00    -0.012 A 
ATOM     15  C   UNL     1       1.152   3.506  -0.012  0.00  0.00    +0.009 A 
ATOM     16  C   UNL     1      -0.053   4.137  -0.008  0.00  0.00    +0.001 A 
ATOM     17  C   UNL     1      -1.243   3.411   0.002  0.00  0.00    +0.001 A 
ATOM     18  C   UNL     1      -1.234   2.050   0.017  0.00  0.00    +0.008 A 
ATOM     19  C   UNL     1      -0.008   1.363   0.009  0.00  0.00    -0.017 A 
ATOM     20  C   UNL     1       0.039  -0.042   0.019  0.00  0.00    +0.010 A 
ATOM     21  C   UNL     1       1.239  -0.679   0.026  0.00  0.00    +0.024 A 
ATOM     22  H   UNL     1       3.674  -1.597  -0.156  0.00  0.00    +0.155 HD
ENDBRANCH   3   7
BRANCH   1  24
ATOM     23  C   UNL     1       4.574   6.113  -3.019  0.00  0.00    +0.277 C 
ATOM     24  O   UNL     1       4.857   5.003  -3.874  0.00  0.00    -0.491 OA
ENDBRANCH   1  24
BRANCH   6  25
ATOM     25  O   UNL     1       5.370   2.775  -5.410  0.00  0.00    -0.419 OA
BRANCH  25  26
ATOM     26  C   UNL     1       6.673   3.040  -5.623  0.00  0.00    +0.345 C 
ATOM     27  O   UNL     1       7.452   3.047  -4.690  0.00  0.00    -0.245 OA
BRANCH  26  28
ATOM     28  C   UNL     1       7.156   3.323  -6.989  0.00  0.00    +0.059 A 
ATOM     29  C   UNL     1       6.264   3.311  -8.064  0.00  0.00    +0.016 A 
ATOM     30  C   UNL     1       6.719   3.583  -9.337  0.00  0.00    +0.016 A 
ATOM     31  C   UNL     1       8.060   3.855  -9.553  0.00  0.00    +0.018 A 
ATOM     32  C   UNL     1       8.950   3.863  -8.492  0.00  0.00    +0.016 A 
ATOM     33  C   UNL     1       8.506   3.599  -7.213  0.00  0.00    +0.016 A 
ATOM     34 BR   UNL     1       8.677   4.218 -11.303  0.00  0.00    -0.050 Br
ENDBRANCH  26  28
ENDBRANCH  25  26
ENDBRANCH   6  25
TORSDOF 5
