REMARK  Name = ZINC09638222
REMARK  9 active torsions:
REMARK  status: ('A' for Active; 'I' for Inactive)
REMARK    1  A    between atoms: C_1  and  C_2
REMARK    2  A    between atoms: C_2  and  C_3
REMARK    3  A    between atoms: C_2  and  C_4
REMARK    4  A    between atoms: C_4  and  C_6
REMARK    5  A    between atoms: C_4  and  N_17
REMARK    6  A    between atoms: C_18  and  C_20
REMARK    7  A    between atoms: C_20  and  N_67
REMARK    8  A    between atoms: N_23  and  S_26
REMARK    9  A    between atoms: S_26  and  C_29
REMARK                            x       y       z     vdW  Elec       q    Type
REMARK                         _______ _______ _______ _____ _____    ______ ____
ROOT
ATOM      1  N   UNL     1      -1.203   3.134   4.865  0.00  0.00    -0.310 N 
ATOM      2  C   UNL     1      -0.789   2.876   3.608  0.00  0.00    +0.197 C 
ATOM      3  O   UNL     1       0.102   2.076   3.416  0.00  0.00    -0.278 OA
ATOM      4  H   UNL     1      -1.916   3.773   5.019  0.00  0.00    +0.149 HD
ENDROOT
BRANCH   1   5
ATOM      5  C   UNL     1      -0.576   2.448   5.998  0.00  0.00    +0.106 C 
BRANCH   5   6
ATOM      6  C   UNL     1      -1.541   2.404   7.154  0.00  0.00    -0.023 A 
ATOM      7  C   UNL     1      -2.328   3.505   7.438  0.00  0.00    +0.009 A 
ATOM      8  C   UNL     1      -3.220   3.470   8.494  0.00  0.00    +0.050 A 
ATOM      9  C   UNL     1      -3.314   2.331   9.275  0.00  0.00    +0.162 A 
ATOM     10  C   UNL     1      -2.521   1.228   8.995  0.00  0.00    +0.162 A 
ATOM     11  C   UNL     1      -1.633   1.264   7.933  0.00  0.00    +0.055 A 
ATOM     12  O   UNL     1      -2.622   0.110   9.770  0.00  0.00    -0.488 OA
ATOM     13  C   UNL     1      -2.152   0.236  11.114  0.00  0.00    +0.232 C 
ATOM     14  C   UNL     1      -3.234   0.820  12.010  0.00  0.00    +0.082 C 
ATOM     15  C   UNL     1      -3.597   2.245  11.626  0.00  0.00    +0.232 C 
ATOM     16  O   UNL     1      -4.186   2.285  10.324  0.00  0.00    -0.488 OA
ENDBRANCH   5   6
BRANCH   5  18
ATOM     17  C   UNL     1       1.341   2.489   7.599  0.00  0.00    +0.009 C 
ATOM     18  C   UNL     1       0.686   3.204   6.415  0.00  0.00    +0.008 C 
ATOM     19  C   UNL     1       1.666   3.249   5.241  0.00  0.00    +0.009 C 
ENDBRANCH   5  18
ENDBRANCH   1   5
BRANCH   2  20
ATOM     20  C   UNL     1      -1.434   3.580   2.443  0.00  0.00    +0.019 C 
BRANCH  20  26
ATOM     21  C   UNL     1       0.691   3.632   1.283  0.00  0.00    -0.061 C 
ATOM     22  C   UNL     1       1.353   3.416  -0.082  0.00  0.00    +0.091 C 
ATOM     23  N   UNL     1       1.117   2.028  -0.506  0.00  0.00    -0.180 NA
ATOM     24  C   UNL     1      -0.262   1.517  -0.480  0.00  0.00    +0.091 C 
ATOM     25  C   UNL     1      -0.860   1.803   0.902  0.00  0.00    -0.061 C 
ATOM     26  N   UNL     1      -0.736   3.250   1.183  0.00  0.00    +0.387 N 
ATOM     27  H   UNL     1      -1.168   3.777   0.415  0.00  0.00    -0.081 HD
BRANCH  23  28
ATOM     28  S   UNL     1       2.371   1.066  -1.001  0.00  0.00    +0.061 S 
ATOM     29  O   UNL     1       1.808   0.064  -1.837  0.00  0.00    -0.153 OA
ATOM     30  O   UNL     1       3.401   1.938  -1.445  0.00  0.00    -0.153 OA
BRANCH  28  31
ATOM     31  C   UNL     1       2.990   0.241   0.427  0.00  0.00    +0.105 A 
ATOM     32  C   UNL     1       4.002   0.815   1.173  0.00  0.00    +0.028 A 
ATOM     33  C   UNL     1       4.484   0.170   2.296  0.00  0.00    +0.002 A 
ATOM     34  C   UNL     1       3.961  -1.054   2.669  0.00  0.00    +0.000 A 
ATOM     35  C   UNL     1       2.952  -1.631   1.920  0.00  0.00    +0.002 A 
ATOM     36  C   UNL     1       2.467  -0.984   0.799  0.00  0.00    +0.028 A 
ENDBRANCH  28  31
ENDBRANCH  23  28
ENDBRANCH  20  26
ENDBRANCH   2  20
TORSDOF 7
