REMARK  Name = ZINC13065112
REMARK  11 active torsions:
REMARK  status: ('A' for Active; 'I' for Inactive)
REMARK    1  A    between atoms: C_1  and  C_2
REMARK    2  A    between atoms: C_2  and  C_3
REMARK    3  A    between atoms: C_3  and  C_5
REMARK    4  A    between atoms: C_3  and  N_69
REMARK    5  A    between atoms: N_9  and  C_10
REMARK    6  A    between atoms: C_10  and  C_11
REMARK    7  A    between atoms: C_18  and  C_19
REMARK    8  A    between atoms: C_18  and  N_69
REMARK    9  A    between atoms: C_24  and  C_32
REMARK   10  A    between atoms: C_25  and  C_31
REMARK   11  A    between atoms: C_33  and  N_69
REMARK                            x       y       z     vdW  Elec       q    Type
REMARK                         _______ _______ _______ _____ _____    ______ ____
ROOT
ATOM      1  N   UNL     1      -1.150   0.755   2.338  0.00  0.00    +0.391 N 
ATOM      2  H   UNL     1      -1.216   1.423   3.115  0.00  0.00    -0.080 HD
ENDROOT
BRANCH   1   3
ATOM      3  C   UNL     1      -0.089   1.200   1.411  0.00  0.00    -0.067 C 
ATOM      4  C   UNL     1      -0.538   2.476   0.656  0.00  0.00    -0.015 C 
ATOM      5  C   UNL     1       0.809   3.135   0.268  0.00  0.00    -0.002 C 
ATOM      6  C   UNL     1       1.720   2.881   1.487  0.00  0.00    -0.002 C 
ATOM      7  C   UNL     1       1.149   1.651   2.214  0.00  0.00    -0.015 C 
ENDBRANCH   1   3
BRANCH   1   8
ATOM      8  C   UNL     1      -2.449   0.707   1.635  0.00  0.00    +0.003 C 
BRANCH   8   9
ATOM      9  C   UNL     1      -2.379  -0.233   0.459  0.00  0.00    +0.138 A 
ATOM     10  N   UNL     1      -1.549  -1.236   0.307  0.00  0.00    -0.115 NA
ATOM     11  N   UNL     1      -1.804  -1.796  -0.824  0.00  0.00    -0.023 NA
ATOM     12  N   UNL     1      -2.776  -1.177  -1.398  0.00  0.00    -0.044 NA
ATOM     13  N   UNL     1      -3.162  -0.211  -0.636  0.00  0.00    -0.226 N 
BRANCH  13  14
ATOM     14  C   UNL     1      -4.245   0.736  -0.912  0.00  0.00    +0.182 C 
BRANCH  14  15
ATOM     15  C   UNL     1      -3.722   1.863  -1.764  0.00  0.00    -0.026 A 
ATOM     16  C   UNL     1      -3.300   3.039  -1.171  0.00  0.00    +0.008 A 
ATOM     17  C   UNL     1      -2.816   4.072  -1.951  0.00  0.00    +0.038 A 
ATOM     18  C   UNL     1      -2.763   3.933  -3.328  0.00  0.00    +0.123 A 
ATOM     19  C   UNL     1      -3.191   2.757  -3.921  0.00  0.00    +0.038 A 
ATOM     20  C   UNL     1      -3.670   1.724  -3.138  0.00  0.00    +0.008 A 
ATOM     21  F   UNL     1      -2.294   4.944  -4.092  0.00  0.00    -0.205 F 
ENDBRANCH  14  15
ENDBRANCH  13  14
ENDBRANCH   8   9
BRANCH   8  23
ATOM     22  C   UNL     1      -3.598   1.182   3.802  0.00  0.00    +0.002 C 
ATOM     23  C   UNL     1      -3.526   0.226   2.609  0.00  0.00    -0.011 C 
ENDBRANCH   8  23
ENDBRANCH   1   8
BRANCH   1  24
ATOM     24  C   UNL     1      -0.820  -0.580   2.880  0.00  0.00    -0.036 C 
BRANCH  24  25
ATOM     25  C   UNL     1       0.209  -0.418   3.969  0.00  0.00    +0.001 A 
ATOM     26  C   UNL     1      -0.164   0.048   5.186  0.00  0.00    +0.017 A 
ATOM     27  C   UNL     1       0.860   0.194   6.223  0.00  0.00    -0.001 A 
ATOM     28  C   UNL     1       0.536   0.669   7.498  0.00  0.00    +0.010 A 
ATOM     29  C   UNL     1       1.515   0.793   8.443  0.00  0.00    +0.004 A 
ATOM     30  C   UNL     1       2.828   0.452   8.149  0.00  0.00    -0.046 A 
ATOM     31  C   UNL     1       3.170  -0.018   6.900  0.00  0.00    -0.024 A 
ATOM     32  C   UNL     1       2.190  -0.153   5.921  0.00  0.00    +0.052 A 
ATOM     33  N   UNL     1       2.504  -0.622   4.663  0.00  0.00    -0.322 N 
ATOM     34  H   UNL     1       3.421  -0.861   4.457  0.00  0.00    +0.169 HD
ATOM     35  C   UNL     1       1.556  -0.758   3.720  0.00  0.00    +0.251 A 
ATOM     36  O   UNL     1       1.869  -1.180   2.620  0.00  0.00    -0.268 OA
ATOM     37  C   UNL     1       4.600  -0.384   6.594  0.00  0.00    +0.046 C 
ATOM     38  C   UNL     1       3.891   0.598   9.208  0.00  0.00    +0.044 C 
ENDBRANCH  24  25
ENDBRANCH   1  24
TORSDOF 8
