REMARK  Name = ZINC12157894
REMARK  8 active torsions:
REMARK  status: ('A' for Active; 'I' for Inactive)
REMARK    1  A    between atoms: C_5  and  N_7
REMARK    2  A    between atoms: C_12  and  C_13
REMARK    3  A    between atoms: C_12  and  N_70
REMARK    4  A    between atoms: C_17  and  O_19
REMARK    5  A    between atoms: O_19  and  C_20
REMARK    6  A    between atoms: C_20  and  C_21
REMARK    7  A    between atoms: C_28  and  C_30
REMARK    8  A    between atoms: C_30  and  C_31
REMARK                            x       y       z     vdW  Elec       q    Type
REMARK                         _______ _______ _______ _____ _____    ______ ____
ROOT
ATOM      1  C   UNL     1      -0.204   1.223   4.776  0.00  0.00    -0.060 A 
ATOM      2  C   UNL     1       0.935   0.440   4.814  0.00  0.00    +0.002 A 
ATOM      3  C   UNL     1       1.533   0.027   3.638  0.00  0.00    +0.004 A 
ATOM      4  C   UNL     1       0.991   0.392   2.421  0.00  0.00    +0.045 A 
ATOM      5  C   UNL     1      -0.149   1.182   2.380  0.00  0.00    +0.121 A 
ATOM      6  C   UNL     1      -0.747   1.595   3.562  0.00  0.00    +0.047 A 
ENDROOT
BRANCH   1   7
ATOM      7  C   UNL     1      -0.853   1.670   6.060  0.00  0.00    -0.043 C 
BRANCH   7  13
ATOM      8  N   UNL     1      -4.422  -0.209   7.315  0.00  0.00    -0.331 N 
ATOM      9  C   UNL     1      -3.304  -0.150   8.266  0.00  0.00    +0.086 C 
ATOM     10  C   UNL     1      -2.331   0.952   7.838  0.00  0.00    -0.059 C 
ATOM     11  C   UNL     1      -2.967   0.615   5.527  0.00  0.00    -0.059 C 
ATOM     12  C   UNL     1      -3.939  -0.487   5.955  0.00  0.00    +0.086 C 
ATOM     13  N   UNL     1      -1.836   0.649   6.479  0.00  0.00    +0.384 N 
ATOM     14  H   UNL     1      -1.379  -0.271   6.487  0.00  0.00    -0.081 HD
BRANCH   8  19
ATOM     15  C   UNL     1      -5.944  -3.425   8.241  0.00  0.00    +0.002 A 
ATOM     16  C   UNL     1      -7.245  -3.036   8.501  0.00  0.00    +0.003 A 
ATOM     17  C   UNL     1      -7.612  -1.709   8.368  0.00  0.00    +0.040 A 
ATOM     18  C   UNL     1      -6.679  -0.768   7.974  0.00  0.00    +0.144 A 
ATOM     19  C   UNL     1      -5.370  -1.158   7.713  0.00  0.00    +0.065 A 
ATOM     20  C   UNL     1      -5.007  -2.491   7.843  0.00  0.00    +0.026 A 
ATOM     21  F   UNL     1      -7.038   0.528   7.844  0.00  0.00    -0.204 F 
ENDBRANCH   8  19
ENDBRANCH   7  13
ENDBRANCH   1   7
BRANCH   5  22
ATOM     22  O   UNL     1      -0.682   1.547   1.184  0.00  0.00    -0.492 OA
BRANCH  22  23
ATOM     23  C   UNL     1      -0.013   1.086   0.008  0.00  0.00    +0.234 C 
BRANCH  23  24
ATOM     24  C   UNL     1      -0.753   1.593  -1.232  0.00  0.00    +0.044 C 
ATOM     25  C   UNL     1       0.031   1.206  -2.488  0.00  0.00    +0.010 C 
ATOM     26  C   UNL     1      -0.692   1.740  -3.727  0.00  0.00    +0.019 C 
ATOM     27  C   UNL     1      -2.085   1.110  -3.812  0.00  0.00    +0.108 C 
ATOM     28  N   UNL     1      -2.793   1.354  -2.548  0.00  0.00    -0.301 N 
ATOM     29  C   UNL     1      -2.147   0.960  -1.289  0.00  0.00    +0.114 C 
ATOM     30  C   UNL     1      -4.012   1.929  -2.544  0.00  0.00    +0.220 C 
ATOM     31  O   UNL     1      -4.587   2.125  -1.494  0.00  0.00    -0.275 OA
BRANCH  30  32
ATOM     32  C   UNL     1      -4.662   2.328  -3.844  0.00  0.00    +0.131 C 
BRANCH  32  33
ATOM     33  C   UNL     1      -6.009   2.943  -3.564  0.00  0.00    -0.032 A 
ATOM     34  C   UNL     1      -6.129   4.304  -3.358  0.00  0.00    +0.011 A 
ATOM     35  C   UNL     1      -7.355   4.826  -3.109  0.00  0.00    +0.045 A 
ATOM     36  S   UNL     1      -8.392   3.374  -3.161  0.00  0.00    -0.105 S 
ATOM     37  C   UNL     1      -7.122   2.170  -3.517  0.00  0.00    +0.049 A 
ENDBRANCH  32  33
ENDBRANCH  30  32
ENDBRANCH  23  24
ENDBRANCH  22  23
ENDBRANCH   5  22
TORSDOF 8
