REMARK  Name = ZINC12243892
REMARK  10 active torsions:
REMARK  status: ('A' for Active; 'I' for Inactive)
REMARK    1  A    between atoms: C_1  and  C_2
REMARK    2  A    between atoms: C_2  and  C_28
REMARK    3  A    between atoms: C_4  and  N_61
REMARK    4  A    between atoms: C_9  and  N_61
REMARK    5  A    between atoms: N_12  and  C_15
REMARK    6  A    between atoms: C_18  and  N_21
REMARK    7  A    between atoms: N_21  and  S_22
REMARK    8  A    between atoms: S_22  and  N_25
REMARK    9  A    between atoms: N_25  and  C_26
REMARK   10  A    between atoms: N_25  and  C_27
REMARK                            x       y       z     vdW  Elec       q    Type
REMARK                         _______ _______ _______ _____ _____    ______ ____
ROOT
ATOM      1  C   UNL     1      -2.226   0.970  -0.446  0.00  0.00    -0.069 C 
ATOM      2  C   UNL     1      -2.857  -0.402  -0.700  0.00  0.00    +0.003 C 
ATOM      3  C   UNL     1      -4.381  -0.270  -0.670  0.00  0.00    +0.103 C 
ATOM      4  N   UNL     1      -4.811   0.685  -1.699  0.00  0.00    -0.330 N 
ATOM      5  C   UNL     1      -4.256   2.021  -1.450  0.00  0.00    +0.103 C 
ATOM      6  C   UNL     1      -2.728   1.958  -1.503  0.00  0.00    +0.003 C 
ENDROOT
BRANCH   4   7
ATOM      7  C   UNL     1      -6.208   0.731  -1.789  0.00  0.00    +0.030 A 
ATOM      8  C   UNL     1      -6.874   1.940  -1.638  0.00  0.00    +0.025 A 
ATOM      9  C   UNL     1      -8.251   1.986  -1.732  0.00  0.00    +0.026 A 
ATOM     10  C   UNL     1      -8.970   0.822  -1.966  0.00  0.00    +0.049 A 
ATOM     11  C   UNL     1      -8.305  -0.388  -2.112  0.00  0.00    +0.026 A 
ATOM     12  C   UNL     1      -6.927  -0.433  -2.023  0.00  0.00    +0.025 A 
BRANCH  10  13
ATOM     13  N   UNL     1     -10.367   0.868  -2.057  0.00  0.00    -0.206 N 
ATOM     14  H   UNL     1     -10.822   0.395  -2.770  0.00  0.00    +0.175 HD
BRANCH  13  15
ATOM     15  S   UNL     1     -11.240   1.732  -0.946  0.00  0.00    +0.111 S 
ATOM     16  O   UNL     1     -10.675   3.035  -0.910  0.00  0.00    -0.138 OA
ATOM     17  O   UNL     1     -12.611   1.503  -1.241  0.00  0.00    -0.138 OA
BRANCH  15  18
ATOM     18  N   UNL     1     -10.956   1.051   0.536  0.00  0.00    -0.170 NA
ATOM     19  C   UNL     1      -9.936   1.621   1.421  0.00  0.00    +0.132 C 
ATOM     20  C   UNL     1     -11.723  -0.121   0.964  0.00  0.00    +0.132 C 
ENDBRANCH  15  18
ENDBRANCH  13  15
ENDBRANCH  10  13
ENDBRANCH   4   7
BRANCH   1  21
ATOM     21  N   UNL     1      -0.757   0.863  -0.540  0.00  0.00    +0.383 N 
ATOM     22  H   UNL     1      -0.513   0.189  -1.275  0.00  0.00    -0.085 HD
ATOM     23  H   UNL     1      -0.365   1.782  -0.774  0.00  0.00    -0.085 HD
BRANCH  21  27
ATOM     24  C   UNL     1      -0.221   0.191   3.688  0.00  0.00    +0.041 C 
ATOM     25  C   UNL     1       0.724   1.140   2.947  0.00  0.00    +0.063 C 
ATOM     26  C   UNL     1       0.058   1.614   1.652  0.00  0.00    +0.019 C 
ATOM     27  C   UNL     1      -0.194   0.406   0.745  0.00  0.00    -0.067 C 
ATOM     28  C   UNL     1       1.135  -0.311   0.486  0.00  0.00    +0.012 C 
ATOM     29  C   UNL     1       1.758  -0.711   1.826  0.00  0.00    +0.159 C 
ATOM     30  O   UNL     1       1.938   0.455   2.633  0.00  0.00    -0.374 OA
ATOM     31  C   UNL     1       1.033   2.348   3.834  0.00  0.00    +0.041 C 
ENDBRANCH  21  27
ENDBRANCH   1  21
TORSDOF 6
