REMARK  Name = ZINC08790374
REMARK  7 active torsions:
REMARK  status: ('A' for Active; 'I' for Inactive)
REMARK    1  A    between atoms: C_1  and  C_2
REMARK    2  A    between atoms: C_2  and  C_3
REMARK    3  A    between atoms: C_14  and  C_16
REMARK    4  A    between atoms: C_16  and  C_17
REMARK    5  A    between atoms: C_17  and  C_18
REMARK    6  A    between atoms: N_23  and  C_26
REMARK    7  A    between atoms: C_26  and  C_27
REMARK                            x       y       z     vdW  Elec       q    Type
REMARK                         _______ _______ _______ _____ _____    ______ ____
ROOT
ATOM      1  C   UNL     1       3.805  -1.196  -0.845  0.00  0.00    -0.047 A 
ATOM      2  C   UNL     1       4.385  -0.593  -1.946  0.00  0.00    +0.005 A 
ATOM      3  C   UNL     1       3.982   0.665  -2.343  0.00  0.00    +0.024 A 
ATOM      4  C   UNL     1       2.988   1.338  -1.637  0.00  0.00    +0.036 A 
ATOM      5  C   UNL     1       2.412   0.722  -0.530  0.00  0.00    -0.027 A 
ATOM      6  C   UNL     1       2.817  -0.535  -0.138  0.00  0.00    +0.008 A 
ATOM      7  C   UNL     1       1.395   1.693  -0.002  0.00  0.00    +0.050 C 
ATOM      8  C   UNL     1      -0.013   1.086   0.008  0.00  0.00    +0.088 C 
ATOM      9  C   UNL     1      -0.683   1.671   1.282  0.00  0.00    +0.073 C 
ATOM     10  C   UNL     1       0.387   2.594   1.903  0.00  0.00    -0.057 C 
ATOM     11  C   UNL     1      -1.815   2.506   0.727  0.00  0.00    +0.224 C 
ATOM     12  O   UNL     1      -2.604   3.145   1.390  0.00  0.00    -0.275 OA
ATOM     13  N   UNL     1      -1.810   2.431  -0.609  0.00  0.00    -0.237 N 
ATOM     14  C   UNL     1      -0.827   1.662  -1.128  0.00  0.00    +0.225 C 
ATOM     15  O   UNL     1      -0.627   1.458  -2.307  0.00  0.00    -0.275 OA
ATOM     16  C   UNL     1       1.475   2.881  -0.921  0.00  0.00    +0.211 C 
ATOM     17  O   UNL     1       0.817   3.897  -0.850  0.00  0.00    -0.277 OA
ATOM     18  N   UNL     1       2.419   2.598  -1.839  0.00  0.00    -0.286 N 
ATOM     19  H   UNL     1       2.675   3.199  -2.556  0.00  0.00    +0.155 HD
ATOM     20  N   UNL     1       1.651   2.075   1.376  0.00  0.00    +0.394 N 
ATOM     21  H   UNL     1       2.376   2.800   1.414  0.00  0.00    -0.083 HD
ATOM     22  H   UNL     1       1.954   1.259   1.920  0.00  0.00    -0.083 HD
ENDROOT
BRANCH   1  24
ATOM     23  C   UNL     1       5.402  -2.447   0.581  0.00  0.00    +0.009 C 
ATOM     24  C   UNL     1       4.248  -2.571  -0.416  0.00  0.00    +0.032 C 
ENDBRANCH   1  24
BRANCH  10  25
ATOM     25  C   UNL     1       0.344   2.511   3.431  0.00  0.00    -0.006 C 
BRANCH  25  26
ATOM     26  C   UNL     1       1.379   3.469   4.023  0.00  0.00    +0.094 C 
BRANCH  26  27
ATOM     27  C   UNL     1       1.336   3.387   5.527  0.00  0.00    +0.210 C 
ATOM     28  O   UNL     1       0.554   2.636   6.072  0.00  0.00    -0.276 OA
ATOM     29  N   UNL     1       2.167   4.147   6.268  0.00  0.00    -0.329 N 
ATOM     30  H   UNL     1       2.792   4.748   5.832  0.00  0.00    +0.145 HD
ATOM     31  H   UNL     1       2.139   4.095   7.236  0.00  0.00    +0.145 HD
ENDBRANCH  26  27
ENDBRANCH  25  26
ENDBRANCH  10  25
BRANCH  13  32
ATOM     32  C   UNL     1      -2.787   3.133  -1.445  0.00  0.00    +0.151 C 
BRANCH  32  33
ATOM     33  C   UNL     1      -2.259   4.501  -1.792  0.00  0.00    -0.026 A 
ATOM     34  C   UNL     1      -2.540   5.578  -0.972  0.00  0.00    +0.009 A 
ATOM     35  C   UNL     1      -2.054   6.834  -1.284  0.00  0.00    +0.050 A 
ATOM     36  C   UNL     1      -1.292   7.019  -2.426  0.00  0.00    +0.166 A 
ATOM     37  C   UNL     1      -1.012   5.935  -3.255  0.00  0.00    +0.167 A 
ATOM     38  C   UNL     1      -1.498   4.678  -2.933  0.00  0.00    +0.054 A 
ATOM     39  O   UNL     1      -0.253   6.371  -4.302  0.00  0.00    -0.453 OA
ATOM     40  C   UNL     1       0.271   7.648  -3.891  0.00  0.00    +0.466 C 
ATOM     41  O   UNL     1      -0.708   8.134  -2.954  0.00  0.00    -0.453 OA
ENDBRANCH  32  33
ENDBRANCH  13  32
TORSDOF 6
