REMARK  Name = ZINC34846993
REMARK  13 active torsions:
REMARK  status: ('A' for Active; 'I' for Inactive)
REMARK    1  A    between atoms: C_1  and  C_2
REMARK    2  A    between atoms: C_2  and  C_3
REMARK    3  A    between atoms: C_3  and  C_5
REMARK    4  A    between atoms: C_3  and  N_6
REMARK    5  A    between atoms: C_7  and  C_33
REMARK    6  A    between atoms: C_15  and  C_21
REMARK    7  A    between atoms: N_23  and  C_24
REMARK    8  A    between atoms: C_27  and  C_30
REMARK    9  A    between atoms: C_30  and  C_31
REMARK   10  A    between atoms: C_30  and  C_32
REMARK   11  A    between atoms: N_35  and  C_36
REMARK   12  A    between atoms: C_41  and  C_46
REMARK   13  A    between atoms: C_43  and  C_45
REMARK                            x       y       z     vdW  Elec       q    Type
REMARK                         _______ _______ _______ _____ _____    ______ ____
ROOT
ATOM      1  N   UNL     1      -2.102   0.707   1.198  0.00  0.00    -0.284 N 
ATOM      2  C   UNL     1      -3.367   1.454   1.488  0.00  0.00    +0.199 C 
ATOM      3  C   UNL     1      -3.111   1.970   2.869  0.00  0.00    +0.127 C 
ATOM      4  C   UNL     1      -2.079   3.083   2.901  0.00  0.00    +0.009 C 
ATOM      5  C   UNL     1      -1.970   3.436   4.173  0.00  0.00    +0.004 C 
ATOM      6  C   UNL     1      -2.903   2.484   4.931  0.00  0.00    +0.155 C 
ATOM      7  O   UNL     1      -3.985   2.278   3.930  0.00  0.00    -0.358 OA
ATOM      8  C   UNL     1      -2.107   1.123   4.873  0.00  0.00    +0.123 C 
ATOM      9  C   UNL     1      -2.456   0.657   3.459  0.00  0.00    +0.128 C 
ATOM     10  C   UNL     1      -1.513   0.322   2.378  0.00  0.00    +0.224 C 
ATOM     11  O   UNL     1      -0.423  -0.194   2.506  0.00  0.00    -0.275 OA
ENDROOT
BRANCH   8  12
ATOM     12  C   UNL     1      -0.627   1.355   5.036  0.00  0.00    +0.224 C 
ATOM     13  O   UNL     1       0.138   1.044   4.147  0.00  0.00    -0.275 OA
ATOM     14  N   UNL     1      -0.152   1.907   6.170  0.00  0.00    -0.285 N 
ATOM     15  H   UNL     1      -0.754   2.091   6.908  0.00  0.00    +0.155 HD
BRANCH  14  16
ATOM     16  C   UNL     1       1.209   2.213   6.283  0.00  0.00    +0.033 A 
ATOM     17  C   UNL     1       1.612   3.337   6.992  0.00  0.00    +0.023 A 
ATOM     18  C   UNL     1       2.956   3.637   7.102  0.00  0.00    +0.006 A 
ATOM     19  C   UNL     1       3.899   2.820   6.506  0.00  0.00    -0.045 A 
ATOM     20  C   UNL     1       3.500   1.700   5.798  0.00  0.00    +0.006 A 
ATOM     21  C   UNL     1       2.159   1.392   5.691  0.00  0.00    +0.023 A 
BRANCH  19  22
ATOM     22  C   UNL     1       5.364   3.150   6.627  0.00  0.00    +0.013 C 
ATOM     23  C   UNL     1       6.092   1.996   7.320  0.00  0.00    +0.012 C 
ATOM     24  C   UNL     1       5.957   3.362   5.233  0.00  0.00    +0.012 C 
ENDBRANCH  19  22
ENDBRANCH  14  16
ENDBRANCH   8  12
BRANCH   2  25
ATOM     25  C   UNL     1      -3.558   2.588   0.514  0.00  0.00    +0.237 C 
ATOM     26  O   UNL     1      -2.598   3.078  -0.042  0.00  0.00    -0.274 OA
ATOM     27  N   UNL     1      -4.796   3.057   0.261  0.00  0.00    -0.311 N 
ATOM     28  H   UNL     1      -5.564   2.665   0.706  0.00  0.00    +0.149 HD
BRANCH  27  29
ATOM     29  C   UNL     1      -4.981   4.160  -0.685  0.00  0.00    +0.076 C 
ATOM     30  C   UNL     1      -4.783   5.493   0.039  0.00  0.00    +0.022 C 
ATOM     31  C   UNL     1      -4.977   6.645  -0.949  0.00  0.00    +0.002 C 
ATOM     32  C   UNL     1      -6.391   6.586  -1.530  0.00  0.00    +0.003 C 
ATOM     33  C   UNL     1      -6.590   5.253  -2.255  0.00  0.00    -0.009 C 
ATOM     34  C   UNL     1      -6.396   4.101  -1.266  0.00  0.00    +0.009 C 
ATOM     35  C   UNL     1      -7.418   4.223  -0.134  0.00  0.00    +0.009 C 
ATOM     36  C   UNL     1      -8.004   5.194  -2.835  0.00  0.00    +0.008 C 
ENDBRANCH  27  29
ENDBRANCH   2  25
BRANCH   1  37
ATOM     37  C   UNL     1      -1.576   0.425  -0.140  0.00  0.00    +0.074 C 
ATOM     38  C   UNL     1      -1.632  -1.081  -0.402  0.00  0.00    +0.028 C 
BRANCH  37  40
ATOM     39  C   UNL     1      -0.086   2.430  -0.108  0.00  0.00    +0.005 C 
ATOM     40  C   UNL     1      -0.126   0.905  -0.229  0.00  0.00    +0.019 C 
ENDBRANCH  37  40
ENDBRANCH   1  37
TORSDOF 7
