REMARK  Name = ZINC64450809
REMARK  7 active torsions:
REMARK  status: ('A' for Active; 'I' for Inactive)
REMARK    1  A    between atoms: C_1  and  C_2
REMARK    2  A    between atoms: C_2  and  C_3
REMARK    3  A    between atoms: C_2  and  C_4
REMARK    4  A    between atoms: C_2  and  N_5
REMARK    5  A    between atoms: N_5  and  C_6
REMARK    6  A    between atoms: C_7  and  C_27
REMARK    7  A    between atoms: C_20  and  C_22
REMARK                            x       y       z     vdW  Elec       q    Type
REMARK                         _______ _______ _______ _____ _____    ______ ____
ROOT
ATOM      1  C   UNL     1      -1.488   2.645  -0.252  0.00  0.00    +0.150 A 
ATOM      2  C   UNL     1      -1.323   2.810  -1.594  0.00  0.00    +0.114 A 
ATOM      3  N   UNL     1      -0.151   3.469  -1.791  0.00  0.00    -0.218 NA
ATOM      4  C   UNL     1       0.393   3.706  -0.636  0.00  0.00    +0.199 A 
ATOM      5  N   UNL     1      -0.394   3.221   0.378  0.00  0.00    -0.190 N 
ATOM      6  N   UNL     1       0.075   3.417   1.674  0.00  0.00    -0.140 NA
ATOM      7  C   UNL     1       1.203   4.032   1.901  0.00  0.00    +0.184 A 
ATOM      8  S   UNL     1       1.764   4.414   0.248  0.00  0.00    -0.013 S 
ATOM      9  N   UNL     1       1.814   4.311   3.113  0.00  0.00    -0.305 N 
ATOM     10  C   UNL     1       1.191   3.896   4.377  0.00  0.00    +0.126 C 
ATOM     11  C   UNL     1       2.198   3.049   5.165  0.00  0.00    +0.126 C 
ATOM     12  N   UNL     1       3.481   3.766   5.209  0.00  0.00    -0.298 N 
ATOM     13  C   UNL     1       4.104   4.181   3.945  0.00  0.00    +0.126 C 
ATOM     14  C   UNL     1       3.099   5.023   3.157  0.00  0.00    +0.126 C 
ATOM     15  C   UNL     1       4.074   4.037   6.388  0.00  0.00    +0.219 C 
ATOM     16  O   UNL     1       5.088   4.703   6.418  0.00  0.00    -0.275 OA
ENDROOT
BRANCH   2  17
ATOM     17  C   UNL     1      -2.255   2.352  -2.651  0.00  0.00    +0.004 A 
ATOM     18  C   UNL     1      -2.967   1.163  -2.489  0.00  0.00    +0.013 A 
ATOM     19  C   UNL     1      -3.834   0.741  -3.475  0.00  0.00    +0.039 A 
ATOM     20  C   UNL     1      -3.998   1.496  -4.626  0.00  0.00    +0.123 A 
ATOM     21  C   UNL     1      -3.294   2.678  -4.791  0.00  0.00    +0.039 A 
ATOM     22  C   UNL     1      -2.429   3.112  -3.808  0.00  0.00    +0.013 A 
ATOM     23  F   UNL     1      -4.848   1.079  -5.589  0.00  0.00    -0.205 F 
ENDBRANCH   2  17
BRANCH  15  24
ATOM     24  C   UNL     1       3.480   3.513   7.670  0.00  0.00    +0.075 C 
ATOM     25  C   UNL     1       4.002   2.085   7.965  0.00  0.00    +0.013 C 
ATOM     26  C   UNL     1       3.818   1.964   9.499  0.00  0.00    +0.001 C 
ATOM     27  C   UNL     1       4.179   3.365  10.034  0.00  0.00    +0.001 C 
ATOM     28  C   UNL     1       3.964   4.350   8.872  0.00  0.00    +0.013 C 
ENDBRANCH  15  24
BRANCH   1  29
ATOM     29  N   UNL     1      -2.566   2.015   0.377  0.00  0.00    -0.323 N 
ATOM     30  H   UNL     1      -3.336   1.738  -0.143  0.00  0.00    +0.148 HD
BRANCH  29  32
ATOM     31  C   UNL     1      -2.556   3.114   2.562  0.00  0.00    +0.031 C 
ATOM     32  C   UNL     1      -2.533   1.775   1.822  0.00  0.00    +0.025 C 
ATOM     33  C   UNL     1      -1.256   1.014   2.183  0.00  0.00    +0.031 C 
ATOM     34  C   UNL     1      -3.753   0.946   2.229  0.00  0.00    +0.031 C 
ENDBRANCH  29  32
ENDBRANCH   1  29
TORSDOF 4
