REMARK  Name = ZINC35405234
REMARK  13 active torsions:
REMARK  status: ('A' for Active; 'I' for Inactive)
REMARK    1  A    between atoms: C_1  and  C_2
REMARK    2  A    between atoms: C_5  and  S_8
REMARK    3  A    between atoms: S_8  and  N_11
REMARK    4  A    between atoms: N_11  and  C_12
REMARK    5  A    between atoms: N_11  and  C_33
REMARK    6  A    between atoms: C_12  and  C_13
REMARK    7  A    between atoms: N_15  and  C_16
REMARK    8  A    between atoms: N_15  and  C_26
REMARK    9  A    between atoms: C_16  and  C_17
REMARK   10  A    between atoms: C_26  and  C_27
REMARK   11  A    between atoms: C_28  and  C_32
REMARK   12  A    between atoms: C_33  and  C_34
REMARK   13  A    between atoms: C_33  and  C_35
REMARK                            x       y       z     vdW  Elec       q    Type
REMARK                         _______ _______ _______ _____ _____    ______ ____
ROOT
ATOM      1  C   UNL     1       1.951  -6.597   2.038  0.00  0.00    +0.232 C 
ATOM      2  O   UNL     1       1.190  -7.318   1.429  0.00  0.00    -0.274 OA
ATOM      3  N   UNL     1       2.736  -7.110   3.006  0.00  0.00    -0.291 N 
ENDROOT
BRANCH   1   4
ATOM      4  C   UNL     1       2.019  -5.127   1.713  0.00  0.00    +0.205 C 
BRANCH   4   5
ATOM      5  N   UNL     1       1.076  -4.822   0.633  0.00  0.00    -0.165 NA
BRANCH   5   6
ATOM      6  S   UNL     1      -0.442  -4.268   0.993  0.00  0.00    +0.061 S 
ATOM      7  O   UNL     1      -0.734  -4.710   2.312  0.00  0.00    -0.153 OA
ATOM      8  O   UNL     1      -1.266  -4.591  -0.119  0.00  0.00    -0.153 OA
BRANCH   6  13
ATOM      9  C   UNL     1      -0.140   1.754   1.221  0.00  0.00    +0.044 C 
ATOM     10  C   UNL     1      -0.215   0.250   1.164  0.00  0.00    -0.050 A 
ATOM     11  C   UNL     1      -0.505  -0.383  -0.030  0.00  0.00    +0.005 A 
ATOM     12  C   UNL     1      -0.574  -1.762  -0.083  0.00  0.00    +0.029 A 
ATOM     13  C   UNL     1      -0.353  -2.509   1.060  0.00  0.00    +0.106 A 
ATOM     14  C   UNL     1      -0.063  -1.877   2.254  0.00  0.00    +0.029 A 
ATOM     15  C   UNL     1       0.010  -0.497   2.305  0.00  0.00    +0.005 A 
ENDBRANCH   6  13
ENDBRANCH   5   6
BRANCH   5  16
ATOM     16  C   UNL     1       1.477  -5.006  -0.763  0.00  0.00    +0.074 C 
ATOM     17  C   UNL     1       2.687  -4.121  -1.068  0.00  0.00    +0.025 C 
ATOM     18  C   UNL     1       1.846  -6.472  -0.999  0.00  0.00    +0.025 C 
ENDBRANCH   5  16
ENDBRANCH   4   5
ENDBRANCH   1   4
BRANCH   3  19
ATOM     19  C   UNL     1       2.669  -8.539   3.323  0.00  0.00    +0.143 C 
BRANCH  19  20
ATOM     20  C   UNL     1       3.748  -9.271   2.568  0.00  0.00    -0.026 A 
ATOM     21  C   UNL     1       3.490  -9.769   1.304  0.00  0.00    +0.009 A 
ATOM     22  C   UNL     1       4.477 -10.441   0.608  0.00  0.00    +0.050 A 
ATOM     23  C   UNL     1       5.728 -10.618   1.175  0.00  0.00    +0.166 A 
ATOM     24  C   UNL     1       5.989 -10.116   2.448  0.00  0.00    +0.167 A 
ATOM     25  C   UNL     1       4.996  -9.439   3.138  0.00  0.00    +0.054 A 
ATOM     26  O   UNL     1       7.278 -10.416   2.780  0.00  0.00    -0.453 OA
ATOM     27  C   UNL     1       7.677 -11.459   1.869  0.00  0.00    +0.466 C 
ATOM     28  O   UNL     1       6.855 -11.232   0.709  0.00  0.00    -0.453 OA
ENDBRANCH  19  20
ENDBRANCH   3  19
BRANCH   3  29
ATOM     29  C   UNL     1       3.655  -6.239   3.742  0.00  0.00    +0.150 C 
BRANCH  29  30
ATOM     30  C   UNL     1       3.000  -5.783   5.021  0.00  0.00    +0.010 A 
ATOM     31  C   UNL     1       3.118  -6.295   6.270  0.00  0.00    -0.039 A 
ATOM     32  C   UNL     1       2.415  -5.707   7.305  0.00  0.00    +0.011 A 
ATOM     33  C   UNL     1       1.629  -4.635   7.040  0.00  0.00    +0.046 A 
ATOM     34  S   UNL     1       1.873  -4.423   5.284  0.00  0.00    -0.100 S 
ATOM     35  C   UNL     1       4.002  -7.488   6.527  0.00  0.00    +0.044 C 
ENDBRANCH  29  30
ENDBRANCH   3  29
TORSDOF 9
