REMARK  Name = ZINC14668610
REMARK  13 active torsions:
REMARK  status: ('A' for Active; 'I' for Inactive)
REMARK    1  A    between atoms: C_1  and  C_2
REMARK    2  A    between atoms: C_5  and  O_9
REMARK    3  A    between atoms: C_6  and  C_8
REMARK    4  A    between atoms: O_9  and  C_10
REMARK    5  A    between atoms: C_10  and  C_11
REMARK    6  A    between atoms: N_13  and  N_14
REMARK    7  A    between atoms: N_14  and  C_15
REMARK    8  A    between atoms: C_15  and  N_17
REMARK    9  A    between atoms: C_18  and  C_20
REMARK   10  A    between atoms: C_25  and  O_26
REMARK   11  A    between atoms: O_26  and  C_27
REMARK   12  A    between atoms: C_27  and  C_28
REMARK   13  A    between atoms: C_27  and  C_29
REMARK                            x       y       z     vdW  Elec       q    Type
REMARK                         _______ _______ _______ _____ _____    ______ ____
ROOT
ATOM      1  C   UNL     1      -4.671  -0.443   0.486  0.00  0.00    +0.153 C 
ATOM      2  S   UNL     1      -4.844   1.260   0.485  0.00  0.00    -0.017 S 
ENDROOT
BRANCH   1   3
ATOM      3  N   UNL     1      -3.447  -0.996   0.371  0.00  0.00    -0.263 N 
ATOM      4  C   UNL     1      -2.360  -0.208   0.256  0.00  0.00    +0.253 C 
ATOM      5  O   UNL     1      -2.482   1.001   0.256  0.00  0.00    -0.270 OA
ATOM      6  H   UNL     1      -3.349  -1.961   0.372  0.00  0.00    +0.157 HD
BRANCH   4   7
ATOM      7  C   UNL     1      -1.021  -0.814   0.131  0.00  0.00    +0.080 A 
ATOM      8  C   UNL     1      -0.875  -2.203   0.126  0.00  0.00    +0.032 A 
ATOM      9  C   UNL     1       0.380  -2.763   0.014  0.00  0.00    +0.019 A 
ATOM     10  C   UNL     1       1.498  -1.952  -0.099  0.00  0.00    +0.019 A 
ATOM     11  C   UNL     1       1.368  -0.578  -0.101  0.00  0.00    +0.047 A 
ATOM     12  C   UNL     1       0.113   0.002   0.011  0.00  0.00    +0.133 A 
ATOM     13 BR   UNL     1       0.576  -4.643   0.015  0.00  0.00    -0.050 Br
BRANCH  12  14
ATOM     14  O   UNL     1      -0.016   1.352   0.009  0.00  0.00    -0.489 OA
BRANCH  14  15
ATOM     15  C   UNL     1       1.167   2.117  -0.231  0.00  0.00    +0.167 C 
ATOM     16  C   UNL     1       0.783   3.483  -0.805  0.00  0.00    +0.051 C 
ATOM     17  C   UNL     1       1.925   2.311   1.083  0.00  0.00    +0.051 C 
ENDBRANCH  14  15
ENDBRANCH  12  14
ENDBRANCH   4   7
ENDBRANCH   1   3
BRANCH   1  18
ATOM     18  N   UNL     1      -5.758  -1.231   0.601  0.00  0.00    -0.245 N 
ATOM     19  H   UNL     1      -6.639  -0.833   0.684  0.00  0.00    +0.172 HD
BRANCH  18  22
ATOM     20  C   UNL     1      -6.704  -3.412   0.717  0.00  0.00    +0.267 C 
ATOM     21  O   UNL     1      -7.805  -2.914   0.820  0.00  0.00    -0.271 OA
ATOM     22  N   UNL     1      -5.617  -2.624   0.602  0.00  0.00    -0.232 N 
ATOM     23  H   UNL     1      -4.736  -3.023   0.519  0.00  0.00    +0.173 HD
BRANCH  20  24
ATOM     24  C   UNL     1      -6.552  -4.912   0.718  0.00  0.00    +0.326 C 
BRANCH  24  25
ATOM     25  O   UNL     1      -7.838  -5.521   0.850  0.00  0.00    -0.482 OA
BRANCH  25  30
ATOM     26  C   UNL     1      -8.004 -11.150   0.926  0.00  0.00    +0.044 C 
ATOM     27  C   UNL     1      -7.960  -9.644   0.905  0.00  0.00    -0.050 A 
ATOM     28  C   UNL     1      -6.747  -8.991   0.779  0.00  0.00    +0.007 A 
ATOM     29  C   UNL     1      -6.704  -7.611   0.760  0.00  0.00    +0.046 A 
ATOM     30  C   UNL     1      -7.878  -6.879   0.868  0.00  0.00    +0.124 A 
ATOM     31  C   UNL     1      -9.092  -7.537   1.000  0.00  0.00    -0.009 A 
ATOM     32  C   UNL     1      -9.131  -8.918   1.014  0.00  0.00    +0.010 A 
ATOM     33  C   UNL     1     -10.369  -6.745   1.124  0.00  0.00    +0.047 C 
ENDBRANCH  25  30
ENDBRANCH  24  25
ENDBRANCH  20  24
ENDBRANCH  18  22
ENDBRANCH   1  18
TORSDOF 9
