REMARK  Name = ZINC29910100
REMARK  11 active torsions:
REMARK  status: ('A' for Active; 'I' for Inactive)
REMARK    1  A    between atoms: C_1  and  C_2
REMARK    2  A    between atoms: C_2  and  C_3
REMARK    3  A    between atoms: C_3  and  C_5
REMARK    4  A    between atoms: C_3  and  C_6
REMARK    5  A    between atoms: C_6  and  C_8
REMARK    6  A    between atoms: C_6  and  N_26
REMARK    7  A    between atoms: N_10  and  C_11
REMARK    8  A    between atoms: C_11  and  C_12
REMARK    9  A    between atoms: C_12  and  C_14
REMARK   10  A    between atoms: C_12  and  N_16
REMARK   11  A    between atoms: C_14  and  C_15
REMARK                            x       y       z     vdW  Elec       q    Type
REMARK                         _______ _______ _______ _____ _____    ______ ____
ROOT
ATOM      1  C   UNL     1      -7.251   4.748   1.179  0.00  0.00    +0.234 C 
ATOM      2  O   UNL     1      -7.180   3.759   1.877  0.00  0.00    -0.274 OA
ATOM      3  N   UNL     1      -8.438   5.358   0.992  0.00  0.00    -0.315 N 
ATOM      4  H   UNL     1      -8.518   6.204   0.293  0.00  0.00    +0.149 HD
ENDROOT
BRANCH   1   5
ATOM      5  C   UNL     1      -6.011   5.296   0.520  0.00  0.00    +0.161 C 
BRANCH   5   6
ATOM      6  N   UNL     1      -4.838   4.560   0.999  0.00  0.00    -0.316 N 
ATOM      7  C   UNL     1      -3.647   5.222   1.207  0.00  0.00    +0.150 C 
ATOM      8  N   UNL     1      -3.546   6.486   0.945  0.00  0.00    -0.113 NA
ATOM      9  S   UNL     1      -1.971   6.907   1.325  0.00  0.00    +0.101 S 
ATOM     10  O   UNL     1      -2.015   7.773   2.451  0.00  0.00    -0.146 OA
ATOM     11  O   UNL     1      -1.305   7.230   0.113  0.00  0.00    -0.146 OA
ATOM     12  C   UNL     1      -1.361   5.337   1.875  0.00  0.00    +0.123 A 
ATOM     13  C   UNL     1      -2.477   4.500   1.730  0.00  0.00    +0.043 A 
ATOM     14  C   UNL     1      -2.322   3.151   2.084  0.00  0.00    +0.013 A 
ATOM     15  C   UNL     1      -1.115   2.692   2.563  0.00  0.00    +0.001 A 
ATOM     16  C   UNL     1      -0.032   3.542   2.695  0.00  0.00    +0.002 A 
ATOM     17  C   UNL     1      -0.165   4.879   2.344  0.00  0.00    +0.030 A 
ATOM     18  H   UNL     1      -4.908   3.480   1.192  0.00  0.00    +0.148 HD
ENDBRANCH   5   6
BRANCH   5  19
ATOM     19  C   UNL     1      -6.127   5.139  -0.997  0.00  0.00    +0.015 C 
ATOM     20  C   UNL     1      -4.941   5.830  -1.674  0.00  0.00    +0.010 C 
BRANCH  19  22
ATOM     21  C   UNL     1      -7.479   3.038  -1.001  0.00  0.00    +0.004 C 
ATOM     22  C   UNL     1      -6.124   3.652  -1.357  0.00  0.00    +0.002 C 
ENDBRANCH  19  22
ENDBRANCH   5  19
ENDBRANCH   1   5
BRANCH   3  23
ATOM     23  C   UNL     1      -9.622   4.894   1.719  0.00  0.00    +0.089 C 
BRANCH  23  24
ATOM     24  C   UNL     1     -10.829   5.750   1.328  0.00  0.00    -0.051 C 
BRANCH  24  25
ATOM     25  N   UNL     1     -10.992   5.727  -0.132  0.00  0.00    +0.385 N 
ATOM     26  C   UNL     1     -11.781   6.881  -0.592  0.00  0.00    -0.073 C 
ATOM     27  C   UNL     1     -11.611   7.013  -2.106  0.00  0.00    +0.017 C 
ATOM     28  C   UNL     1     -11.874   5.686  -2.770  0.00  0.00    -0.048 A 
ATOM     29  C   UNL     1     -12.118   5.666  -4.135  0.00  0.00    +0.004 A 
ATOM     30  C   UNL     1     -12.355   4.471  -4.784  0.00  0.00    +0.000 A 
ATOM     31  C   UNL     1     -12.349   3.287  -4.069  0.00  0.00    +0.000 A 
ATOM     32  C   UNL     1     -12.108   3.306  -2.710  0.00  0.00    +0.002 A 
ATOM     33  C   UNL     1     -11.871   4.506  -2.056  0.00  0.00    -0.061 A 
ATOM     34  C   UNL     1     -11.618   4.476  -0.572  0.00  0.00    -0.042 C 
ATOM     35  H   UNL     1      -9.989   5.787  -0.581  0.00  0.00    -0.081 HD
ENDBRANCH  24  25
BRANCH  24  36
ATOM     36  C   UNL     1     -12.088   5.188   1.990  0.00  0.00    -0.017 C 
ATOM     37  C   UNL     1     -13.286   6.073   1.640  0.00  0.00    +0.002 C 
ENDBRANCH  24  36
ENDBRANCH  23  24
ENDBRANCH   3  23
TORSDOF 8
