REMARK  Name = ZINC63386335
REMARK  10 active torsions:
REMARK  status: ('A' for Active; 'I' for Inactive)
REMARK    1  A    between atoms: C_1  and  C_2
REMARK    2  A    between atoms: C_2  and  C_4
REMARK    3  A    between atoms: C_2  and  N_14
REMARK    4  A    between atoms: C_4  and  C_5
REMARK    5  A    between atoms: C_15  and  C_17
REMARK    6  A    between atoms: C_17  and  O_18
REMARK    7  A    between atoms: O_18  and  C_19
REMARK    8  A    between atoms: C_23  and  C_30
REMARK    9  A    between atoms: C_33  and  O_36
REMARK   10  A    between atoms: O_36  and  C_37
REMARK                            x       y       z     vdW  Elec       q    Type
REMARK                         _______ _______ _______ _____ _____    ______ ____
ROOT
ATOM      1  O   UNL     1       4.146  -1.103  -2.220  0.00  0.00    -0.483 OA
ENDROOT
BRANCH   1   2
ATOM      2  C   UNL     1       4.932  -1.521  -3.245  0.00  0.00    +0.125 A 
ATOM      3  C   UNL     1       4.351  -1.889  -4.456  0.00  0.00    +0.046 A 
ATOM      4  C   UNL     1       5.130  -2.311  -5.495  0.00  0.00    +0.016 A 
ATOM      5  C   UNL     1       6.518  -2.374  -5.343  0.00  0.00    +0.026 A 
ATOM      6  C   UNL     1       7.382  -2.825  -6.447  0.00  0.00    -0.000 A 
ATOM      7  C   UNL     1       8.747  -2.861  -6.225  0.00  0.00    +0.101 A 
ATOM      8  C   UNL     1       9.255  -2.473  -4.975  0.00  0.00    +0.338 A 
ATOM      9  O   UNL     1      10.459  -2.509  -4.788  0.00  0.00    -0.245 OA
ATOM     10  O   UNL     1       8.452  -2.065  -3.980  0.00  0.00    -0.422 OA
ATOM     11  C   UNL     1       7.111  -2.004  -4.124  0.00  0.00    +0.143 A 
ATOM     12  C   UNL     1       6.306  -1.573  -3.079  0.00  0.00    +0.092 A 
BRANCH   6  13
ATOM     13  C   UNL     1       6.810  -3.226  -7.749  0.00  0.00    -0.017 A 
ATOM     14  C   UNL     1       6.160  -2.283  -8.548  0.00  0.00    +0.012 A 
ATOM     15  C   UNL     1       5.628  -2.660  -9.762  0.00  0.00    +0.046 A 
ATOM     16  C   UNL     1       5.738  -3.977 -10.191  0.00  0.00    +0.120 A 
ATOM     17  C   UNL     1       6.384  -4.918  -9.399  0.00  0.00    +0.046 A 
ATOM     18  C   UNL     1       6.923  -4.547  -8.186  0.00  0.00    +0.012 A 
BRANCH  16  19
ATOM     19  O   UNL     1       5.213  -4.345 -11.388  0.00  0.00    -0.495 OA
ATOM     20  C   UNL     1       5.362  -5.715 -11.768  0.00  0.00    +0.277 C 
ENDBRANCH  16  19
ENDBRANCH   6  13
ENDBRANCH   1   2
BRANCH   1  21
ATOM     21  C   UNL     1       2.736  -1.073  -2.455  0.00  0.00    +0.324 C 
BRANCH  21  23
ATOM     22  N   UNL     1       0.688  -0.476  -1.203  0.00  0.00    -0.310 N 
ATOM     23  C   UNL     1       2.031  -0.587  -1.215  0.00  0.00    +0.251 C 
ATOM     24  O   UNL     1       2.672  -0.295  -0.228  0.00  0.00    -0.272 OA
ATOM     25  H   UNL     1       0.175  -0.710  -1.993  0.00  0.00    +0.149 HD
BRANCH  22  27
ATOM     26  C   UNL     1      -0.019   1.526   0.010  0.00  0.00    +0.028 C 
ATOM     27  C   UNL     1       0.002  -0.004   0.002  0.00  0.00    +0.074 C 
BRANCH  27  28
ATOM     28  C   UNL     1      -1.433  -0.534   0.013  0.00  0.00    +0.055 C 
BRANCH  28  29
ATOM     29  C   UNL     1      -1.414  -2.036   0.129  0.00  0.00    -0.040 C 
ATOM     30  C   UNL     1      -1.525  -2.766   1.262  0.00  0.00    -0.001 A 
ATOM     31  C   UNL     1      -1.690  -2.394   2.672  0.00  0.00    +0.010 A 
ATOM     32  C   UNL     1      -1.772  -3.371   3.603  0.00  0.00    +0.001 A 
ATOM     33  C   UNL     1      -1.704  -4.728   3.256  0.00  0.00    +0.002 A 
ATOM     34  C   UNL     1      -1.553  -5.147   1.982  0.00  0.00    +0.026 A 
ATOM     35  C   UNL     1      -1.456  -4.205   0.921  0.00  0.00    +0.043 A 
ATOM     36  N   UNL     1      -1.308  -4.359  -0.372  0.00  0.00    -0.380 N 
ATOM     37  C   UNL     1      -1.272  -3.033  -1.000  0.00  0.00    +0.144 C 
ATOM     38  H   UNL     1      -1.237  -5.207  -0.837  0.00  0.00    +0.160 HD
ENDBRANCH  28  29
ENDBRANCH  27  28
ENDBRANCH  22  27
ENDBRANCH  21  23
ENDBRANCH   1  21
TORSDOF 8
