REMARK  Name = ZINC33618310
REMARK  6 active torsions:
REMARK  status: ('A' for Active; 'I' for Inactive)
REMARK    1  A    between atoms: C_4  and  C_7
REMARK    2  A    between atoms: C_7  and  C_8
REMARK    3  A    between atoms: C_9  and  C_28
REMARK    4  A    between atoms: N_11  and  C_16
REMARK    5  A    between atoms: C_16  and  C_17
REMARK    6  A    between atoms: C_17  and  C_18
REMARK                            x       y       z     vdW  Elec       q    Type
REMARK                         _______ _______ _______ _____ _____    ______ ____
ROOT
ATOM      1  C   UNL     1       1.632   1.140  -4.173  0.00  0.00    +0.076 C 
ATOM      2  C   UNL     1       1.678   1.453  -2.696  0.00  0.00    +0.146 C 
ATOM      3  N   UNL     1       0.791   0.491  -2.035  0.00  0.00    -0.283 N 
ATOM      4  C   UNL     1       0.250  -0.315  -2.963  0.00  0.00    +0.288 C 
ATOM      5  O   UNL     1      -0.532  -1.215  -2.733  0.00  0.00    -0.266 OA
ATOM      6  C   UNL     1       0.749   0.056  -4.315  0.00  0.00    +0.249 C 
ATOM      7  O   UNL     1       0.446  -0.485  -5.363  0.00  0.00    -0.282 OA
ENDROOT
BRANCH   2   8
ATOM      8  C   UNL     1       3.085   1.295  -2.181  0.00  0.00    -0.004 A 
ATOM      9  C   UNL     1       3.981   0.486  -2.854  0.00  0.00    +0.008 A 
ATOM     10  C   UNL     1       5.272   0.341  -2.383  0.00  0.00    +0.020 A 
ATOM     11  C   UNL     1       5.669   1.006  -1.237  0.00  0.00    +0.042 A 
ATOM     12  C   UNL     1       4.773   1.816  -0.562  0.00  0.00    +0.040 A 
ATOM     13  C   UNL     1       3.482   1.965  -1.037  0.00  0.00    +0.048 A 
ATOM     14 CL   UNL     1       2.360   2.986  -0.195  0.00  0.00    -0.083 Cl
ATOM     15 CL   UNL     1       7.291   0.824  -0.644  0.00  0.00    -0.083 Cl
ENDBRANCH   2   8
BRANCH   1  16
ATOM     16  C   UNL     1       2.315   1.790  -5.180  0.00  0.00    +0.195 C 
ATOM     17  O   UNL     1       2.255   1.325  -6.446  0.00  0.00    -0.287 OA
BRANCH  16  21
ATOM     18  C   UNL     1       4.606   5.251  -4.297  0.00  0.00    +0.000 A 
ATOM     19  C   UNL     1       5.164   4.229  -5.045  0.00  0.00    +0.001 A 
ATOM     20  C   UNL     1       4.426   3.101  -5.336  0.00  0.00    +0.012 A 
ATOM     21  C   UNL     1       3.110   2.992  -4.873  0.00  0.00    +0.022 A 
ATOM     22  C   UNL     1       2.552   4.032  -4.124  0.00  0.00    +0.012 A 
ATOM     23  C   UNL     1       3.305   5.151  -3.836  0.00  0.00    +0.001 A 
ENDBRANCH  16  21
ENDBRANCH   1  16
BRANCH   3  24
ATOM     24  C   UNL     1       0.531   0.424  -0.594  0.00  0.00    +0.114 C 
BRANCH  24  25
ATOM     25  C   UNL     1       1.453  -0.619   0.042  0.00  0.00    +0.056 C 
BRANCH  25  26
ATOM     26  C   UNL     1       1.236  -0.637   1.533  0.00  0.00    -0.021 A 
ATOM     27  C   UNL     1       1.949   0.033   2.452  0.00  0.00    +0.087 A 
ATOM     28  N   UNL     1       1.461  -0.229   3.703  0.00  0.00    -0.360 N 
ATOM     29  H   UNL     1       1.926   0.238   4.584  0.00  0.00    +0.165 HD
ATOM     30  C   UNL     1       0.395  -1.097   3.618  0.00  0.00    +0.047 A 
ATOM     31  C   UNL     1       0.204  -1.386   2.254  0.00  0.00    +0.003 A 
ATOM     32  C   UNL     1      -0.816  -2.256   1.863  0.00  0.00    +0.010 A 
ATOM     33  C   UNL     1      -1.631  -2.813   2.807  0.00  0.00    +0.001 A 
ATOM     34  C   UNL     1      -1.451  -2.526   4.153  0.00  0.00    +0.002 A 
ATOM     35  C   UNL     1      -0.447  -1.675   4.562  0.00  0.00    +0.026 A 
ENDBRANCH  25  26
ENDBRANCH  24  25
ENDBRANCH   3  24
TORSDOF 6
