REMARK  Name = ZINC00901650
REMARK  7 active torsions:
REMARK  status: ('A' for Active; 'I' for Inactive)
REMARK    1  A    between atoms: N_9  and  C_10
REMARK    2  A    between atoms: C_10  and  C_11
REMARK    3  A    between atoms: N_13  and  C_14
REMARK    4  A    between atoms: N_13  and  C_21
REMARK    5  A    between atoms: C_21  and  C_23
REMARK    6  A    between atoms: C_21  and  C_28
REMARK    7  A    between atoms: N_30  and  C_31
REMARK                            x       y       z     vdW  Elec       q    Type
REMARK                         _______ _______ _______ _____ _____    ______ ____
ROOT
ATOM      1  C   UNL     1      -4.174   3.690  -1.359  0.00  0.00    +0.242 C 
ATOM      2  O   UNL     1      -3.482   4.146  -2.244  0.00  0.00    -0.273 OA
ATOM      3  N   UNL     1      -5.468   3.398  -1.598  0.00  0.00    -0.251 N 
ENDROOT
BRANCH   3   4
ATOM      4  C   UNL     1      -6.356   3.233  -0.530  0.00  0.00    +0.040 A 
ATOM      5  C   UNL     1      -7.654   2.797  -0.765  0.00  0.00    +0.024 A 
ATOM      6  C   UNL     1      -8.528   2.630   0.290  0.00  0.00    +0.005 A 
ATOM      7  C   UNL     1      -8.117   2.905   1.581  0.00  0.00    +0.038 A 
ATOM      8  C   UNL     1      -6.826   3.345   1.820  0.00  0.00    +0.125 A 
ATOM      9  C   UNL     1      -5.944   3.510   0.766  0.00  0.00    +0.062 A 
ATOM     10  F   UNL     1      -6.427   3.615   3.083  0.00  0.00    -0.205 F 
ENDBRANCH   3   4
BRANCH   1  11
ATOM     11  C   UNL     1      -3.587   3.451   0.008  0.00  0.00    +0.242 C 
BRANCH  11  20
ATOM     12  C   UNL     1       0.105  -0.255  -0.599  0.00  0.00    +0.002 A 
ATOM     13  C   UNL     1      -1.268  -0.452  -0.523  0.00  0.00    +0.002 A 
ATOM     14  C   UNL     1      -2.115   0.610  -0.369  0.00  0.00    +0.029 A 
ATOM     15  C   UNL     1      -1.599   1.898  -0.276  0.00  0.00    +0.090 A 
ATOM     16  C   UNL     1      -0.210   2.104  -0.353  0.00  0.00    +0.113 A 
ATOM     17  C   UNL     1       0.636   0.999  -0.516  0.00  0.00    +0.032 A 
ATOM     18  N   UNL     1       0.013   3.429  -0.242  0.00  0.00    -0.129 NA
ATOM     19  N   UNL     1      -1.099   4.060  -0.105  0.00  0.00    -0.064 NA
ATOM     20  N   UNL     1      -2.161   3.143  -0.119  0.00  0.00    -0.235 N 
ENDBRANCH  11  20
ENDBRANCH   1  11
BRANCH   3  21
ATOM     21  C   UNL     1      -5.943   3.253  -2.976  0.00  0.00    +0.233 C 
BRANCH  21  22
ATOM     22  C   UNL     1      -6.496   1.865  -3.173  0.00  0.00    +0.135 A 
ATOM     23  C   UNL     1      -6.333   1.102  -4.269  0.00  0.00    +0.047 A 
ATOM     24  C   UNL     1      -7.011  -0.115  -4.026  0.00  0.00    +0.041 A 
ATOM     25  C   UNL     1      -7.554  -0.020  -2.799  0.00  0.00    +0.195 A 
ATOM     26  O   UNL     1      -7.238   1.182  -2.287  0.00  0.00    -0.465 OA
ENDBRANCH  21  22
BRANCH  21  27
ATOM     27  C   UNL     1      -7.026   4.267  -3.243  0.00  0.00    +0.242 C 
ATOM     28  O   UNL     1      -7.366   5.035  -2.368  0.00  0.00    -0.273 OA
ATOM     29  N   UNL     1      -7.616   4.320  -4.453  0.00  0.00    -0.311 N 
ATOM     30  H   UNL     1      -7.343   3.706  -5.153  0.00  0.00    +0.149 HD
BRANCH  29  31
ATOM     31  C   UNL     1      -8.668   5.306  -4.713  0.00  0.00    +0.073 C 
ATOM     32  C   UNL     1     -10.042   4.731  -4.310  0.00  0.00    +0.022 C 
ATOM     33  C   UNL     1     -11.012   5.277  -5.387  0.00  0.00    +0.002 C 
ATOM     34  C   UNL     1     -10.161   5.212  -6.679  0.00  0.00    +0.002 C 
ATOM     35  C   UNL     1      -8.744   5.612  -6.219  0.00  0.00    +0.022 C 
ENDBRANCH  29  31
ENDBRANCH  21  27
ENDBRANCH   3  21
TORSDOF 7
