REMARK  Name = ZINC64966086
REMARK  10 active torsions:
REMARK  status: ('A' for Active; 'I' for Inactive)
REMARK    1  A    between atoms: C_1  and  C_2
REMARK    2  A    between atoms: C_2  and  N_3
REMARK    3  A    between atoms: C_5  and  C_30
REMARK    4  A    between atoms: C_7  and  C_21
REMARK    5  A    between atoms: N_10  and  C_13
REMARK    6  A    between atoms: C_16  and  C_20
REMARK    7  A    between atoms: C_17  and  C_19
REMARK    8  A    between atoms: C_26  and  O_27
REMARK    9  A    between atoms: O_27  and  C_28
REMARK   10  A    between atoms: C_28  and  C_29
REMARK                            x       y       z     vdW  Elec       q    Type
REMARK                         _______ _______ _______ _____ _____    ______ ____
ROOT
ATOM      1  N   UNL     1      -1.472  -0.254   0.052  0.00  0.00    -0.289 N 
ATOM      2  C   UNL     1      -2.137  -0.763   1.154  0.00  0.00    +0.120 A 
ATOM      3  C   UNL     1      -1.819  -0.918   2.503  0.00  0.00    +0.155 A 
ATOM      4  N   UNL     1      -2.726  -1.465   3.314  0.00  0.00    -0.220 NA
ATOM      5  C   UNL     1      -3.904  -1.854   2.853  0.00  0.00    +0.166 A 
ATOM      6  N   UNL     1      -4.243  -1.723   1.575  0.00  0.00    -0.207 NA
ATOM      7  C   UNL     1      -3.401  -1.190   0.706  0.00  0.00    +0.170 A 
ATOM      8  N   UNL     1      -3.451  -0.923  -0.651  0.00  0.00    -0.245 N 
ATOM      9  C   UNL     1      -2.285  -0.358  -1.018  0.00  0.00    +0.336 A 
ATOM     10  O   UNL     1      -2.007   0.003  -2.145  0.00  0.00    -0.246 OA
ENDROOT
BRANCH   8  11
ATOM     11  C   UNL     1      -4.534  -1.191  -1.498  0.00  0.00    +0.053 A 
ATOM     12  C   UNL     1      -5.689  -1.770  -0.990  0.00  0.00    +0.026 A 
ATOM     13  C   UNL     1      -6.755  -2.033  -1.827  0.00  0.00    +0.005 A 
ATOM     14  C   UNL     1      -6.673  -1.720  -3.172  0.00  0.00    -0.047 A 
ATOM     15  C   UNL     1      -5.524  -1.144  -3.682  0.00  0.00    -0.046 A 
ATOM     16  C   UNL     1      -4.457  -0.873  -2.847  0.00  0.00    +0.030 A 
ATOM     17  C   UNL     1      -5.439  -0.805  -5.148  0.00  0.00    +0.044 C 
ATOM     18  C   UNL     1      -7.838  -2.007  -4.084  0.00  0.00    +0.044 C 
ENDBRANCH   8  11
BRANCH   5  19
ATOM     19  C   UNL     1      -4.878  -2.457   3.793  0.00  0.00    +0.061 A 
ATOM     20  C   UNL     1      -6.124  -2.881   3.334  0.00  0.00    +0.015 A 
ATOM     21  C   UNL     1      -7.027  -3.442   4.214  0.00  0.00    +0.001 A 
ATOM     22  C   UNL     1      -6.700  -3.585   5.552  0.00  0.00    +0.004 A 
ATOM     23  C   UNL     1      -5.468  -3.168   6.017  0.00  0.00    +0.046 A 
ATOM     24  C   UNL     1      -4.549  -2.608   5.144  0.00  0.00    +0.131 A 
BRANCH  24  25
ATOM     25  O   UNL     1      -3.336  -2.203   5.599  0.00  0.00    -0.492 OA
BRANCH  25  26
ATOM     26  C   UNL     1      -3.070  -2.389   6.991  0.00  0.00    +0.226 C 
ATOM     27  C   UNL     1      -1.665  -1.876   7.315  0.00  0.00    +0.048 C 
ENDBRANCH  25  26
ENDBRANCH  24  25
ENDBRANCH   5  19
BRANCH   3  28
ATOM     28  C   UNL     1      -0.502  -0.484   3.025  0.00  0.00    +0.262 C 
ATOM     29  O   UNL     1       0.487  -1.159   2.813  0.00  0.00    -0.269 OA
ATOM     30  N   UNL     1      -0.401   0.657   3.734  0.00  0.00    -0.324 N 
ATOM     31  H   UNL     1      -1.190   1.195   3.902  0.00  0.00    +0.145 HD
ATOM     32  H   UNL     1       0.462   0.941   4.075  0.00  0.00    +0.145 HD
ENDBRANCH   3  28
BRANCH   1  34
ATOM     33  C   UNL     1      -0.181   1.791   0.412  0.00  0.00    +0.027 C 
ATOM     34  C   UNL     1      -0.119   0.306   0.050  0.00  0.00    +0.124 C 
ENDBRANCH   1  34
TORSDOF 6
