REMARK  Name = ZINC15809996
REMARK  6 active torsions:
REMARK  status: ('A' for Active; 'I' for Inactive)
REMARK    1  A    between atoms: C_4  and  O_7
REMARK    2  A    between atoms: O_7  and  C_8
REMARK    3  A    between atoms: C_8  and  C_9
REMARK    4  A    between atoms: C_12  and  C_14
REMARK    5  A    between atoms: N_16  and  N_17
REMARK    6  A    between atoms: C_18  and  C_20
REMARK                            x       y       z     vdW  Elec       q    Type
REMARK                         _______ _______ _______ _____ _____    ______ ____
ROOT
ATOM      1  N   UNL     1       1.608   6.801   0.024  0.00  0.00    -0.230 N 
ATOM      2  C   UNL     1       1.007   8.007   0.036  0.00  0.00    +0.260 C 
ATOM      3  O   UNL     1      -0.206   8.081   0.048  0.00  0.00    -0.269 OA
ATOM      4  H   UNL     1       2.576   6.742   0.015  0.00  0.00    +0.173 HD
ENDROOT
BRANCH   2   5
ATOM      5  C   UNL     1       1.825   9.243   0.035  0.00  0.00    +0.040 A 
ATOM      6  C   UNL     1       3.221   9.150   0.021  0.00  0.00    +0.014 A 
ATOM      7  C   UNL     1       3.992  10.278   0.029  0.00  0.00    +0.016 A 
ATOM      8  C   UNL     1       3.383  11.529   0.050  0.00  0.00    +0.065 A 
ATOM      9  C   UNL     1       1.974  11.641   0.051  0.00  0.00    +0.079 A 
ATOM     10  C   UNL     1       1.197  10.483   0.048  0.00  0.00    +0.041 A 
ATOM     11  N   UNL     1       1.446  12.882   0.068  0.00  0.00    -0.233 NA
ATOM     12  C   UNL     1       2.135  13.978   0.069  0.00  0.00    +0.113 A 
ATOM     13  N   UNL     1       3.482  13.965  -0.017  0.00  0.00    -0.296 N 
ATOM     14  C   UNL     1       4.154  12.775   0.066  0.00  0.00    +0.262 A 
ATOM     15  O   UNL     1       5.371  12.779   0.128  0.00  0.00    -0.267 OA
ATOM     16  C   UNL     1       4.342  15.111  -0.217  0.00  0.00    +0.126 C 
ATOM     17  C   UNL     1       3.709  16.499  -0.160  0.00  0.00    +0.022 C 
ATOM     18  C   UNL     1       3.219  16.903  -1.539  0.00  0.00    +0.002 C 
ATOM     19  C   UNL     1       1.881  16.457  -2.033  0.00  0.00    +0.000 C 
ATOM     20  C   UNL     1       0.876  15.634  -1.246  0.00  0.00    +0.008 C 
ATOM     21  C   UNL     1       1.356  15.279   0.161  0.00  0.00    +0.074 C 
ENDBRANCH   2   5
BRANCH   1  24
ATOM     22  C   UNL     1       1.436   4.427   0.013  0.00  0.00    +0.295 C 
ATOM     23  O   UNL     1       2.651   4.352   0.001  0.00  0.00    -0.265 OA
ATOM     24  N   UNL     1       0.835   5.633   0.025  0.00  0.00    -0.228 N 
ATOM     25  H   UNL     1      -0.133   5.692   0.034  0.00  0.00    +0.173 HD
BRANCH  22  29
ATOM     26  C   UNL     1      -1.110   1.864   0.017  0.00  0.00    +0.143 A 
ATOM     27  C   UNL     1      -0.013   1.076   0.008  0.00  0.00    +0.049 A 
ATOM     28  C   UNL     1       1.105   1.925   0.002  0.00  0.00    +0.055 A 
ATOM     29  C   UNL     1       0.627   3.204   0.013  0.00  0.00    +0.191 A 
ATOM     30  O   UNL     1      -0.721   3.145   0.026  0.00  0.00    -0.452 OA
BRANCH  26  31
ATOM     31  C   UNL     1      -2.538   1.380   0.020  0.00  0.00    +0.303 C 
BRANCH  31  32
ATOM     32  O   UNL     1      -2.983   1.220   1.368  0.00  0.00    -0.484 OA
BRANCH  32  36
ATOM     33  C   UNL     1      -6.855  -0.096   1.917  0.00  0.00    +0.000 A 
ATOM     34  C   UNL     1      -6.053   0.168   3.013  0.00  0.00    +0.004 A 
ATOM     35  C   UNL     1      -4.757   0.609   2.832  0.00  0.00    +0.045 A 
ATOM     36  C   UNL     1      -4.259   0.786   1.549  0.00  0.00    +0.121 A 
ATOM     37  C   UNL     1      -5.066   0.526   0.452  0.00  0.00    +0.045 A 
ATOM     38  C   UNL     1      -6.360   0.080   0.638  0.00  0.00    +0.004 A 
ENDBRANCH  32  36
ENDBRANCH  31  32
ENDBRANCH  26  31
ENDBRANCH  22  29
ENDBRANCH   1  24
TORSDOF 6
