REMARK  Name = ZINC11670063
REMARK  7 active torsions:
REMARK  status: ('A' for Active; 'I' for Inactive)
REMARK    1  A    between atoms: C_1  and  C_2
REMARK    2  A    between atoms: C_2  and  C_4
REMARK    3  A    between atoms: C_2  and  S_17
REMARK    4  A    between atoms: N_6  and  C_7
REMARK    5  A    between atoms: S_17  and  C_18
REMARK    6  A    between atoms: C_21  and  C_24
REMARK    7  A    between atoms: N_22  and  N_23
REMARK                            x       y       z     vdW  Elec       q    Type
REMARK                         _______ _______ _______ _____ _____    ______ ____
ROOT
ATOM      1  C   UNL     1      -0.959   1.511  -1.312  0.00  0.00    +0.029 C 
ATOM      2  C   UNL     1      -0.117   1.190  -0.076  0.00  0.00    +0.137 C 
ENDROOT
BRANCH   2   3
ATOM      3  C   UNL     1      -0.836   1.665   1.160  0.00  0.00    +0.230 C 
ATOM      4  O   UNL     1      -0.584   2.755   1.628  0.00  0.00    -0.274 OA
ATOM      5  N   UNL     1      -1.761   0.878   1.746  0.00  0.00    -0.285 N 
ATOM      6  H   UNL     1      -2.018   0.040   1.330  0.00  0.00    +0.155 HD
BRANCH   5   7
ATOM      7  C   UNL     1      -2.349   1.270   2.953  0.00  0.00    +0.034 A 
ATOM      8  C   UNL     1      -1.596   1.988   3.889  0.00  0.00    +0.024 A 
ATOM      9  C   UNL     1      -2.143   2.385   5.068  0.00  0.00    +0.010 A 
ATOM     10  C   UNL     1      -3.480   2.066   5.364  0.00  0.00    -0.018 A 
ATOM     11  C   UNL     1      -4.070   2.458   6.577  0.00  0.00    +0.008 A 
ATOM     12  C   UNL     1      -5.367   2.133   6.833  0.00  0.00    +0.001 A 
ATOM     13  C   UNL     1      -6.122   1.413   5.909  0.00  0.00    +0.001 A 
ATOM     14  C   UNL     1      -5.584   1.016   4.723  0.00  0.00    +0.008 A 
ATOM     15  C   UNL     1      -4.248   1.334   4.423  0.00  0.00    -0.016 A 
ATOM     16  C   UNL     1      -3.661   0.940   3.210  0.00  0.00    +0.031 A 
ENDBRANCH   5   7
ENDBRANCH   2   3
BRANCH   2  17
ATOM     17  S   UNL     1       1.483   2.028  -0.202  0.00  0.00    -0.072 S 
BRANCH  17  18
ATOM     18  C   UNL     1       2.153   1.198  -1.604  0.00  0.00    +0.209 A 
ATOM     19  N   UNL     1       1.571   0.246  -2.298  0.00  0.00    -0.120 NA
ATOM     20  N   UNL     1       2.338  -0.137  -3.255  0.00  0.00    -0.123 NA
ATOM     21  C   UNL     1       3.461   0.548  -3.232  0.00  0.00    +0.217 A 
ATOM     22  N   UNL     1       3.373   1.429  -2.176  0.00  0.00    -0.221 N 
BRANCH  21  23
ATOM     23  C   UNL     1       4.593   0.406  -4.161  0.00  0.00    +0.173 A 
ATOM     24  C   UNL     1       4.569  -0.246  -5.357  0.00  0.00    +0.053 A 
ATOM     25  C   UNL     1       5.860  -0.131  -5.907  0.00  0.00    +0.042 A 
ATOM     26  C   UNL     1       6.603   0.570  -5.029  0.00  0.00    +0.196 A 
ATOM     27  O   UNL     1       5.835   0.893  -3.975  0.00  0.00    -0.460 OA
ENDBRANCH  21  23
BRANCH  22  28
ATOM     28  N   UNL     1       4.311   2.341  -1.781  0.00  0.00    -0.294 N 
ATOM     29  H   UNL     1       4.947   1.937  -1.110  0.00  0.00    +0.163 HD
ATOM     30  H   UNL     1       4.811   2.712  -2.575  0.00  0.00    +0.163 HD
ENDBRANCH  22  28
ENDBRANCH  17  18
ENDBRANCH   2  17
TORSDOF 6
