REMARK  Name = ZINC25540664
REMARK  5 active torsions:
REMARK  status: ('A' for Active; 'I' for Inactive)
REMARK    1  A    between atoms: C_13  and  S_22
REMARK    2  A    between atoms: C_15  and  S_18
REMARK    3  A    between atoms: N_28  and  C_31
REMARK    4  A    between atoms: C_31  and  C_32
REMARK    5  A    between atoms: C_32  and  O_33
REMARK                            x       y       z     vdW  Elec       q    Type
REMARK                         _______ _______ _______ _____ _____    ______ ____
ROOT
ATOM      1  C   UNL     1       2.537  -2.721  -0.038  0.00  0.00    +0.010 A 
ATOM      2  C   UNL     1       3.714  -1.991  -0.046  0.00  0.00    +0.014 A 
ATOM      3  C   UNL     1       3.685  -0.598  -0.037  0.00  0.00    +0.048 A 
ATOM      4  C   UNL     1       2.438   0.070  -0.021  0.00  0.00    +0.011 A 
ATOM      5  C   UNL     1       2.394   1.483  -0.012  0.00  0.00    +0.048 A 
ATOM      6  C   UNL     1       1.155   2.119   0.002  0.00  0.00    +0.017 A 
ATOM      7  C   UNL     1      -0.017   1.385   0.010  0.00  0.00    +0.047 A 
ATOM      8  C   UNL     1       0.002  -0.004   0.002  0.00  0.00    +0.137 A 
ATOM      9  C   UNL     1       1.245  -0.668  -0.013  0.00  0.00    +0.034 A 
ATOM     10  C   UNL     1       1.306  -2.083  -0.022  0.00  0.00    -0.003 A 
ATOM     11  C   UNL     1       0.024  -2.812  -0.014  0.00  0.00    +0.029 A 
ATOM     12  C   UNL     1      -0.017  -4.204  -0.022  0.00  0.00    +0.042 A 
ATOM     13  C   UNL     1      -1.235  -4.851  -0.014  0.00  0.00    +0.122 A 
ATOM     14  C   UNL     1      -2.412  -4.120   0.002  0.00  0.00    +0.063 A 
ATOM     15  C   UNL     1      -2.383  -2.741   0.010  0.00  0.00    +0.164 A 
ATOM     16  C   UNL     1      -1.167  -2.067   0.002  0.00  0.00    +0.164 A 
ATOM     17  O   UNL     1      -1.144  -0.715   0.010  0.00  0.00    -0.453 OA
ATOM     18  C   UNL     1       3.660   2.220  -0.020  0.00  0.00    +0.262 A 
ATOM     19  O   UNL     1       3.653   3.437  -0.013  0.00  0.00    -0.267 OA
ATOM     20  N   UNL     1       4.832   1.557  -0.036  0.00  0.00    -0.273 N 
ATOM     21  C   UNL     1       4.907   0.212  -0.044  0.00  0.00    +0.262 A 
ATOM     22  O   UNL     1       5.995  -0.333  -0.058  0.00  0.00    -0.267 OA
ENDROOT
BRANCH  15  23
ATOM     23  S   UNL     1      -3.891  -1.830   0.031  0.00  0.00    +0.143 S 
ATOM     24  O   UNL     1      -3.601  -0.551  -0.515  0.00  0.00    -0.140 OA
ATOM     25  O   UNL     1      -4.888  -2.683  -0.515  0.00  0.00    -0.140 OA
ATOM     26  O   UNL     1      -4.261  -1.607   1.490  0.00  0.00    -0.043 OA
ENDBRANCH  15  23
BRANCH  13  27
ATOM     27  S   UNL     1      -1.294  -6.612  -0.025  0.00  0.00    +0.140 S 
ATOM     28  O   UNL     1      -2.557  -6.973  -0.566  0.00  0.00    -0.140 OA
ATOM     29  O   UNL     1      -0.068  -7.056  -0.590  0.00  0.00    -0.140 OA
ATOM     30  O   UNL     1      -1.295  -7.071   1.427  0.00  0.00    -0.043 OA
ENDBRANCH  13  27
BRANCH  20  31
ATOM     31  C   UNL     1       6.077   2.330  -0.044  0.00  0.00    +0.156 C 
BRANCH  31  32
ATOM     32  C   UNL     1       6.524   2.591   1.396  0.00  0.00    +0.177 C 
BRANCH  32  33
ATOM     33  O   UNL     1       6.854   1.351   2.025  0.00  0.00    -0.393 OA
ATOM     34  H   UNL     1       7.198   1.338   3.070  0.00  0.00    +0.209 HD
ENDBRANCH  32  33
ENDBRANCH  31  32
ENDBRANCH  20  31
TORSDOF 5
