REMARK  Name = ZINC34690161
REMARK  9 active torsions:
REMARK  status: ('A' for Active; 'I' for Inactive)
REMARK    1  A    between atoms: C_1  and  C_2
REMARK    2  A    between atoms: C_2  and  O_3
REMARK    3  A    between atoms: O_3  and  C_4
REMARK    4  A    between atoms: C_4  and  C_6
REMARK    5  A    between atoms: C_7  and  C_20
REMARK    6  A    between atoms: C_12  and  C_14
REMARK    7  A    between atoms: C_20  and  N_21
REMARK    8  A    between atoms: C_23  and  C_30
REMARK    9  A    between atoms: C_26  and  C_29
REMARK                            x       y       z     vdW  Elec       q    Type
REMARK                         _______ _______ _______ _____ _____    ______ ____
ROOT
ATOM      1  C   UNL     1       1.548  -2.361   2.382  0.00  0.00    +0.076 C 
ATOM      2  C   UNL     1       1.513  -3.685   2.645  0.00  0.00    +0.008 C 
ATOM      3  N   UNL     1       2.086  -4.194   3.775  0.00  0.00    -0.274 N 
ATOM      4  C   UNL     1       2.712  -3.447   4.692  0.00  0.00    +0.304 C 
ATOM      5  O   UNL     1       3.192  -3.991   5.667  0.00  0.00    -0.252 OA
ATOM      6  N   UNL     1       2.829  -2.110   4.569  0.00  0.00    -0.288 N 
ATOM      7  C   UNL     1       2.250  -1.462   3.380  0.00  0.00    +0.143 C 
ATOM      8  H   UNL     1       2.036  -5.152   3.922  0.00  0.00    +0.156 HD
ATOM      9  H   UNL     1       3.287  -1.587   5.246  0.00  0.00    +0.151 HD
ENDROOT
BRANCH   7  10
ATOM     10  C   UNL     1       3.354  -0.736   2.656  0.00  0.00    -0.023 A 
ATOM     11  C   UNL     1       4.553  -1.376   2.405  0.00  0.00    +0.006 A 
ATOM     12  C   UNL     1       5.566  -0.710   1.740  0.00  0.00    +0.000 A 
ATOM     13  C   UNL     1       5.379   0.596   1.327  0.00  0.00    +0.000 A 
ATOM     14  C   UNL     1       4.180   1.236   1.577  0.00  0.00    +0.000 A 
ATOM     15  C   UNL     1       3.165   0.568   2.238  0.00  0.00    +0.006 A 
ENDBRANCH   7  10
BRANCH   1  16
ATOM     16  C   UNL     1       0.956  -1.831   1.212  0.00  0.00    +0.339 C 
ATOM     17  O   UNL     1       1.648  -1.562   0.248  0.00  0.00    -0.245 OA
BRANCH  16  18
ATOM     18  O   UNL     1      -0.377  -1.625   1.164  0.00  0.00    -0.462 OA
BRANCH  18  20
ATOM     19  C   UNL     1      -2.423  -0.925   0.085  0.00  0.00    +0.048 C 
ATOM     20  C   UNL     1      -0.907  -1.088  -0.049  0.00  0.00    +0.229 C 
ENDBRANCH  18  20
ENDBRANCH  16  18
ENDBRANCH   1  16
BRANCH   2  21
ATOM     21  C   UNL     1       0.830  -4.615   1.676  0.00  0.00    -0.026 C 
BRANCH  21  22
ATOM     22  N   UNL     1       1.820  -5.534   1.099  0.00  0.00    +0.384 N 
ATOM     23  C   UNL     1       2.788  -4.772   0.302  0.00  0.00    -0.075 C 
ATOM     24  C   UNL     1       3.868  -5.714  -0.234  0.00  0.00    -0.031 C 
ATOM     25  C   UNL     1       3.214  -6.785  -1.111  0.00  0.00    +0.003 C 
ATOM     26  C   UNL     1       2.154  -7.525  -0.291  0.00  0.00    -0.031 C 
ATOM     27  C   UNL     1       1.137  -6.516   0.248  0.00  0.00    -0.075 C 
ATOM     28  C   UNL     1       1.440  -8.546  -1.179  0.00  0.00    +0.005 C 
ATOM     29  C   UNL     1       4.875  -4.916  -1.066  0.00  0.00    +0.005 C 
ATOM     30  H   UNL     1       2.304  -6.015   1.843  0.00  0.00    -0.081 HD
ENDBRANCH  21  22
ENDBRANCH   2  21
TORSDOF 6
