REMARK  Name = ZINC20919301
REMARK  10 active torsions:
REMARK  status: ('A' for Active; 'I' for Inactive)
REMARK    1  A    between atoms: C_4  and  C_7
REMARK    2  A    between atoms: C_7  and  C_8
REMARK    3  A    between atoms: C_8  and  C_33
REMARK    4  A    between atoms: N_9  and  N_10
REMARK    5  A    between atoms: C_14  and  S_17
REMARK    6  A    between atoms: N_15  and  N_16
REMARK    7  A    between atoms: S_17  and  C_18
REMARK    8  A    between atoms: C_18  and  C_19
REMARK    9  A    between atoms: N_21  and  C_22
REMARK   10  A    between atoms: C_33  and  C_34
REMARK                            x       y       z     vdW  Elec       q    Type
REMARK                         _______ _______ _______ _____ _____    ______ ____
ROOT
ATOM      1  N   UNL     1       0.001  13.241   3.101  0.00  0.00    -0.204 N 
ATOM      2  C   UNL     1      -0.411  11.938   2.859  0.00  0.00    +0.254 A 
ATOM      3  N   UNL     1      -0.986  11.138   3.723  0.00  0.00    -0.109 NA
ATOM      4  N   UNL     1      -1.240   9.918   3.082  0.00  0.00    -0.119 NA
ATOM      5  C   UNL     1      -0.813  10.014   1.846  0.00  0.00    +0.210 A 
ATOM      6  N   UNL     1      -0.284  11.262   1.677  0.00  0.00    -0.211 N 
ATOM      7  H   UNL     1       0.475  13.827   2.300  0.00  0.00    +0.177 HD
ENDROOT
BRANCH   6   8
ATOM      8  N   UNL     1       0.271  11.750   0.528  0.00  0.00    -0.294 N 
ATOM      9  H   UNL     1       0.322  11.117  -0.369  0.00  0.00    +0.163 HD
ATOM     10  H   UNL     1       0.666  12.776   0.501  0.00  0.00    +0.163 HD
ENDBRANCH   6   8
BRANCH   1  12
ATOM     11  C   UNL     1       0.193  15.013   4.591  0.00  0.00    +0.045 C 
ATOM     12  N   UNL     1      -0.187  13.811   4.367  0.00  0.00    -0.188 NA
BRANCH  11  13
ATOM     13  C   UNL     1       0.843  15.815   3.493  0.00  0.00    +0.088 C 
BRANCH  13  17
ATOM     14  C   UNL     1      -2.158  17.930   1.308  0.00  0.00    +0.000 A 
ATOM     15  C   UNL     1      -1.560  18.517   2.407  0.00  0.00    +0.000 A 
ATOM     16  C   UNL     1      -0.589  17.833   3.114  0.00  0.00    +0.004 A 
ATOM     17  C   UNL     1      -0.216  16.561   2.722  0.00  0.00    -0.042 A 
ATOM     18  C   UNL     1      -0.810  15.975   1.620  0.00  0.00    +0.004 A 
ATOM     19  C   UNL     1      -1.784  16.658   0.916  0.00  0.00    +0.000 A 
ENDBRANCH  13  17
ENDBRANCH  11  13
BRANCH  11  20
ATOM     20  C   UNL     1      -0.009  15.626   5.953  0.00  0.00    +0.088 C 
BRANCH  20  21
ATOM     21  C   UNL     1       1.332  15.906   6.582  0.00  0.00    -0.042 A 
ATOM     22  C   UNL     1       1.942  14.945   7.366  0.00  0.00    +0.004 A 
ATOM     23  C   UNL     1       3.174  15.200   7.938  0.00  0.00    +0.000 A 
ATOM     24  C   UNL     1       3.791  16.421   7.735  0.00  0.00    +0.000 A 
ATOM     25  C   UNL     1       3.178  17.384   6.956  0.00  0.00    +0.000 A 
ATOM     26  C   UNL     1       1.949  17.127   6.379  0.00  0.00    +0.004 A 
ENDBRANCH  20  21
ENDBRANCH  11  20
ENDBRANCH   1  12
BRANCH   5  27
ATOM     27  S   UNL     1      -0.899   8.751   0.621  0.00  0.00    -0.075 S 
BRANCH  27  28
ATOM     28  C   UNL     1      -1.692   7.362   1.476  0.00  0.00    +0.173 C 
BRANCH  28  29
ATOM     29  C   UNL     1      -1.828   6.199   0.527  0.00  0.00    +0.224 C 
ATOM     30  O   UNL     1      -1.429   6.297  -0.614  0.00  0.00    -0.275 OA
ATOM     31  N   UNL     1      -2.393   5.050   0.947  0.00  0.00    -0.308 N 
ATOM     32  H   UNL     1      -2.755   4.960   1.982  0.00  0.00    +0.149 HD
BRANCH  31  33
ATOM     33  C   UNL     1      -2.525   3.919   0.025  0.00  0.00    +0.103 C 
ATOM     34  C   UNL     1      -3.702   3.046   0.444  0.00  0.00    +0.027 C 
ATOM     35  C   UNL     1      -3.687   1.763  -0.395  0.00  0.00    +0.007 C 
ATOM     36  C   UNL     1      -2.487   0.921   0.032  0.00  0.00    +0.035 C 
ATOM     37  C   UNL     1      -1.228   1.748   0.017  0.00  0.00    -0.042 A 
ATOM     38  C   UNL     1      -1.245   3.125   0.026  0.00  0.00    -0.024 A 
ATOM     39  C   UNL     1      -0.048   3.828   0.021  0.00  0.00    +0.006 A 
ATOM     40  C   UNL     1       1.158   3.158   0.008  0.00  0.00    +0.000 A 
ATOM     41  C   UNL     1       1.176   1.776   0.000  0.00  0.00    +0.000 A 
ATOM     42  C   UNL     1      -0.013   1.076   0.008  0.00  0.00    +0.004 A 
ENDBRANCH  31  33
ENDBRANCH  28  29
ENDBRANCH  27  28
ENDBRANCH   5  27
TORSDOF 10
