REMARK  Name = ZINC19474555
REMARK  13 active torsions:
REMARK  status: ('A' for Active; 'I' for Inactive)
REMARK    1  A    between atoms: C_1  and  C_2
REMARK    2  A    between atoms: C_2  and  O_3
REMARK    3  A    between atoms: O_3  and  C_4
REMARK    4  A    between atoms: C_6  and  C_15
REMARK    5  A    between atoms: C_7  and  N_12
REMARK    6  A    between atoms: C_9  and  O_10
REMARK    7  A    between atoms: O_10  and  C_11
REMARK    8  A    between atoms: C_15  and  O_17
REMARK    9  A    between atoms: O_17  and  C_18
REMARK   10  A    between atoms: C_18  and  C_19
REMARK   11  A    between atoms: N_21  and  C_22
REMARK   12  A    between atoms: C_22  and  C_24
REMARK   13  A    between atoms: C_22  and  C_31
REMARK                            x       y       z     vdW  Elec       q    Type
REMARK                         _______ _______ _______ _____ _____    ______ ____
ROOT
ATOM      1  C   UNL     1       4.948  -1.462   3.263  0.00  0.00    +0.328 C 
ENDROOT
BRANCH   1   2
ATOM      2  C   UNL     1       5.640  -1.810   1.970  0.00  0.00    +0.251 C 
ATOM      3  O   UNL     1       5.112  -1.549   0.910  0.00  0.00    -0.272 OA
ATOM      4  N   UNL     1       6.846  -2.413   1.992  0.00  0.00    -0.301 N 
ATOM      5  H   UNL     1       7.325  -2.650   2.954  0.00  0.00    +0.150 HD
BRANCH   4   6
ATOM      6  C   UNL     1       7.519  -2.751   0.736  0.00  0.00    +0.140 C 
BRANCH   6   7
ATOM      7  C   UNL     1       8.470  -3.897   0.968  0.00  0.00    -0.022 A 
ATOM      8  C   UNL     1       9.229  -3.941   2.123  0.00  0.00    +0.008 A 
ATOM      9  C   UNL     1      10.098  -4.994   2.339  0.00  0.00    +0.038 A 
ATOM     10  C   UNL     1      10.216  -5.999   1.394  0.00  0.00    +0.123 A 
ATOM     11  C   UNL     1       9.459  -5.951   0.236  0.00  0.00    +0.038 A 
ATOM     12  C   UNL     1       8.587  -4.900   0.024  0.00  0.00    +0.008 A 
ATOM     13  F   UNL     1      11.069  -7.026   1.602  0.00  0.00    -0.205 F 
ENDBRANCH   6   7
BRANCH   6  14
ATOM     14  C   UNL     1       8.287  -1.553   0.239  0.00  0.00    +0.014 A 
ATOM     15  C   UNL     1       8.430  -1.097  -1.030  0.00  0.00    +0.013 A 
ATOM     16  C   UNL     1       9.187   0.037  -1.252  0.00  0.00    +0.008 A 
ATOM     17  C   UNL     1       9.773   0.654  -0.197  0.00  0.00    +0.045 A 
ATOM     18  S   UNL     1       9.251  -0.372   1.167  0.00  0.00    -0.099 S 
ENDBRANCH   6  14
ENDBRANCH   4   6
ENDBRANCH   1   2
BRANCH   1  19
ATOM     19  O   UNL     1       3.675  -0.827   2.974  0.00  0.00    -0.452 OA
BRANCH  19  20
ATOM     20  C   UNL     1       2.926  -0.451   4.029  0.00  0.00    +0.342 C 
ATOM     21  O   UNL     1       3.325  -0.648   5.159  0.00  0.00    -0.245 OA
BRANCH  20  24
ATOM     22  C   UNL     1       0.310   1.957   2.823  0.00  0.00    +0.163 A 
ATOM     23  C   UNL     1       1.534   1.351   3.023  0.00  0.00    +0.066 A 
ATOM     24  C   UNL     1       1.621   0.201   3.812  0.00  0.00    +0.093 A 
ATOM     25  C   UNL     1       0.467  -0.331   4.395  0.00  0.00    +0.144 A 
ATOM     26  C   UNL     1      -0.751   0.279   4.192  0.00  0.00    +0.083 A 
ATOM     27  C   UNL     1      -0.836   1.425   3.412  0.00  0.00    +0.164 A 
BRANCH  25  28
ATOM     28  N   UNL     1       0.554  -1.549   5.231  0.00  0.00    +0.057 N 
ATOM     29  O   UNL     1      -0.426  -1.943   5.838  0.00  0.00    -0.126 OA
ATOM     30  O   UNL     1       1.606  -2.158   5.312  0.00  0.00    -0.126 OA
ENDBRANCH  25  28
BRANCH  27  31
ATOM     31  O   UNL     1      -2.039   2.026   3.219  0.00  0.00    -0.491 OA
ATOM     32  C   UNL     1      -3.172   1.427   3.852  0.00  0.00    +0.277 C 
ENDBRANCH  27  31
BRANCH  22  33
ATOM     33  O   UNL     1       0.223   3.077   2.056  0.00  0.00    -0.489 OA
BRANCH  33  35
ATOM     34  C   UNL     1       1.142   4.826   0.664  0.00  0.00    +0.048 C 
ATOM     35  C   UNL     1       1.437   3.571   1.488  0.00  0.00    +0.226 C 
ENDBRANCH  33  35
ENDBRANCH  22  33
ENDBRANCH  20  24
ENDBRANCH  19  20
ENDBRANCH   1  19
TORSDOF 11
