REMARK  Name = ZINC65137738
REMARK  7 active torsions:
REMARK  status: ('A' for Active; 'I' for Inactive)
REMARK    1  A    between atoms: C_1  and  C_2
REMARK    2  A    between atoms: C_3  and  C_25
REMARK    3  A    between atoms: C_6  and  C_8
REMARK    4  A    between atoms: C_11  and  S_15
REMARK    5  A    between atoms: C_12  and  C_14
REMARK    6  A    between atoms: S_15  and  N_18
REMARK    7  A    between atoms: N_18  and  C_19
REMARK                            x       y       z     vdW  Elec       q    Type
REMARK                         _______ _______ _______ _____ _____    ______ ____
ROOT
ATOM      1  C   UNL     1      -1.467  -0.640   2.073  0.00  0.00    +0.087 C 
ATOM      2  C   UNL     1      -1.219  -1.616   3.254  0.00  0.00    +0.074 C 
ATOM      3  C   UNL     1      -0.475  -0.934   4.357  0.00  0.00    +0.093 C 
ATOM      4  C   UNL     1      -0.438   0.383   4.407  0.00  0.00    +0.005 C 
ATOM      5  S   UNL     1      -1.367   0.953   2.994  0.00  0.00    -0.122 S 
ATOM      6  C   UNL     1       0.247   1.233   5.446  0.00  0.00    +0.053 C 
ENDROOT
BRANCH   1  12
ATOM      7  C   UNL     1      -0.567   1.792   0.061  0.00  0.00    +0.043 C 
ATOM      8  C   UNL     1      -0.567   0.291  -0.074  0.00  0.00    -0.023 C 
ATOM      9  C   UNL     1      -0.736  -0.435  -1.182  0.00  0.00    +0.061 C 
ATOM     10  N   UNL     1      -0.671  -1.756  -0.904  0.00  0.00    -0.159 NA
ATOM     11  N   UNL     1      -0.473  -2.021   0.284  0.00  0.00    -0.178 NA
ATOM     12  C   UNL     1      -0.367  -0.747   1.016  0.00  0.00    +0.169 C 
ATOM     13  C   UNL     1      -0.968   0.141  -2.555  0.00  0.00    +0.067 C 
ENDBRANCH   1  12
BRANCH   3  14
ATOM     14  S   UNL     1       0.351  -1.889   5.586  0.00  0.00    +0.056 S 
ATOM     15  O   UNL     1       0.662  -3.140   4.988  0.00  0.00    -0.153 OA
ATOM     16  O   UNL     1       1.345  -1.047   6.154  0.00  0.00    -0.153 OA
BRANCH  14  17
ATOM     17  N   UNL     1      -0.748  -2.198   6.786  0.00  0.00    -0.187 NA
ATOM     18  H   UNL     1      -0.614  -1.830   7.673  0.00  0.00    +0.148 HD
BRANCH  17  19
ATOM     19  C   UNL     1      -1.923  -3.028   6.507  0.00  0.00    +0.077 C 
ATOM     20  C   UNL     1      -3.110  -2.129   6.154  0.00  0.00    +0.020 C 
ATOM     21  C   UNL     1      -4.336  -2.996   5.862  0.00  0.00    +0.002 C 
ATOM     22  C   UNL     1      -4.678  -3.829   7.099  0.00  0.00    +0.000 C 
ATOM     23  C   UNL     1      -3.491  -4.728   7.452  0.00  0.00    +0.002 C 
ATOM     24  C   UNL     1      -2.264  -3.861   7.744  0.00  0.00    +0.020 C 
ENDBRANCH  17  19
ENDBRANCH  14  17
ENDBRANCH   3  14
TORSDOF 4
