REMARK  Name = ZINC35246956
REMARK  10 active torsions:
REMARK  status: ('A' for Active; 'I' for Inactive)
REMARK    1  A    between atoms: C_1  and  C_2
REMARK    2  A    between atoms: C_7  and  C_10
REMARK    3  A    between atoms: C_11  and  C_13
REMARK    4  A    between atoms: C_16  and  C_18
REMARK    5  A    between atoms: C_18  and  N_19
REMARK    6  A    between atoms: N_19  and  C_20
REMARK    7  A    between atoms: N_19  and  C_27
REMARK    8  A    between atoms: C_20  and  C_21
REMARK    9  A    between atoms: C_27  and  C_28
REMARK   10  A    between atoms: C_31  and  C_34
REMARK                            x       y       z     vdW  Elec       q    Type
REMARK                         _______ _______ _______ _____ _____    ______ ____
ROOT
ATOM      1  N   UNL     1       0.299  -7.235   0.207  0.00  0.00    +0.390 N 
ATOM      2  H   UNL     1       0.068  -7.703  -0.656  0.00  0.00    -0.080 HD
ENDROOT
BRANCH   1   3
ATOM      3  C   UNL     1      -0.846  -6.426   0.647  0.00  0.00    -0.002 C 
BRANCH   3   7
ATOM      4  C   UNL     1      -1.359  -3.694  -1.722  0.00  0.00    +0.190 A 
ATOM      5  C   UNL     1      -2.226  -4.610  -2.245  0.00  0.00    +0.055 A 
ATOM      6  C   UNL     1      -2.148  -5.750  -1.430  0.00  0.00    +0.043 A 
ATOM      7  C   UNL     1      -1.249  -5.483  -0.458  0.00  0.00    +0.090 A 
ATOM      8  O   UNL     1      -0.772  -4.245  -0.640  0.00  0.00    -0.457 OA
BRANCH   4  17
ATOM      9  C   UNL     1       0.505  -0.892   2.084  0.00  0.00    +0.039 C 
ATOM     10  C   UNL     1      -0.162  -0.657   0.727  0.00  0.00    +0.133 C 
ATOM     11  C   UNL     1       0.159  -1.826  -0.211  0.00  0.00    +0.139 C 
ATOM     12  N   UNL     1      -0.331  -1.489  -1.557  0.00  0.00    -0.290 N 
ATOM     13  C   UNL     1       0.051  -0.187  -2.126  0.00  0.00    +0.139 C 
ATOM     14  C   UNL     1      -0.265   0.902  -1.095  0.00  0.00    +0.133 C 
ATOM     15  O   UNL     1       0.335   0.556   0.155  0.00  0.00    -0.371 OA
ATOM     16  C   UNL     1      -1.781   1.017  -0.921  0.00  0.00    +0.039 C 
ATOM     17  C   UNL     1      -1.106  -2.349  -2.248  0.00  0.00    +0.282 C 
ATOM     18  O   UNL     1      -1.596  -2.008  -3.309  0.00  0.00    -0.267 OA
ENDBRANCH   4  17
ENDBRANCH   3   7
ENDBRANCH   1   3
BRANCH   1  19
ATOM     19  C   UNL     1       1.462  -6.364  -0.004  0.00  0.00    -0.042 C 
BRANCH  19  20
ATOM     20  C   UNL     1       2.587  -7.165  -0.608  0.00  0.00    -0.064 A 
ATOM     21  C   UNL     1       3.563  -7.708   0.206  0.00  0.00    +0.002 A 
ATOM     22  C   UNL     1       4.594  -8.443  -0.348  0.00  0.00    +0.000 A 
ATOM     23  C   UNL     1       4.649  -8.635  -1.716  0.00  0.00    +0.000 A 
ATOM     24  C   UNL     1       3.673  -8.092  -2.530  0.00  0.00    +0.000 A 
ATOM     25  C   UNL     1       2.639  -7.361  -1.975  0.00  0.00    +0.002 A 
ENDBRANCH  19  20
ENDBRANCH   1  19
BRANCH   1  26
ATOM     26  C   UNL     1       0.616  -8.234   1.236  0.00  0.00    -0.042 C 
BRANCH  26  27
ATOM     27  C   UNL     1      -0.487  -9.258   1.299  0.00  0.00    -0.064 A 
ATOM     28  C   UNL     1      -1.494  -9.133   2.238  0.00  0.00    +0.002 A 
ATOM     29  C   UNL     1      -2.507 -10.073   2.295  0.00  0.00    +0.012 A 
ATOM     30  C   UNL     1      -2.512 -11.137   1.414  0.00  0.00    +0.055 A 
ATOM     31  C   UNL     1      -1.506 -11.262   0.475  0.00  0.00    +0.012 A 
ATOM     32  C   UNL     1      -0.496 -10.320   0.414  0.00  0.00    +0.002 A 
BRANCH  30  33
ATOM     33  C   UNL     1      -3.615 -12.162   1.477  0.00  0.00    +0.417 C 
ATOM     34  F   UNL     1      -4.667 -11.768   0.642  0.00  0.00    -0.166 F 
ATOM     35  F   UNL     1      -3.124 -13.402   1.055  0.00  0.00    -0.166 F 
ATOM     36  F   UNL     1      -4.079 -12.267   2.793  0.00  0.00    -0.166 F 
ENDBRANCH  30  33
ENDBRANCH  26  27
ENDBRANCH   1  26
TORSDOF 8
