REMARK  Name = ZINC65920309
REMARK  3 active torsions:
REMARK  status: ('A' for Active; 'I' for Inactive)
REMARK    1  A    between atoms: C_8  and  C_12
REMARK    2  A    between atoms: N_14  and  N_15
REMARK    3  A    between atoms: N_18  and  C_19
REMARK                            x       y       z     vdW  Elec       q    Type
REMARK                         _______ _______ _______ _____ _____    ______ ____
ROOT
ATOM      1  C   UNL     1      -4.218  -2.890   0.027  0.00  0.00    +0.267 C 
ATOM      2  O   UNL     1      -5.095  -2.045   0.041  0.00  0.00    -0.268 OA
ATOM      3  N   UNL     1      -4.543  -4.198   0.023  0.00  0.00    -0.229 N 
ATOM      4  H   UNL     1      -3.844  -4.871   0.013  0.00  0.00    +0.173 HD
ENDROOT
BRANCH   1  12
ATOM      5  C   UNL     1      -0.017   1.372   0.010  0.00  0.00    +0.101 A 
ATOM      6  C   UNL     1       1.119   2.069   0.003  0.00  0.00    +0.067 A 
ATOM      7  S   UNL     1       2.347   0.772  -0.016  0.00  0.00    -0.058 S 
ATOM      8  C   UNL     1       1.228  -0.611  -0.013  0.00  0.00    +0.179 A 
ATOM      9  N   UNL     1       0.002  -0.004   0.002  0.00  0.00    -0.293 N 
ATOM     10  C   UNL     1      -0.946  -1.063   0.005  0.00  0.00    +0.082 A 
ATOM     11  C   UNL     1      -2.322  -1.222   0.018  0.00  0.00    +0.049 A 
ATOM     12  C   UNL     1      -2.856  -2.498   0.016  0.00  0.00    +0.079 A 
ATOM     13  S   UNL     1      -1.396  -3.525  -0.004  0.00  0.00    -0.062 S 
ATOM     14  C   UNL     1      -0.178  -2.233  -0.008  0.00  0.00    +0.128 A 
ATOM     15  N   UNL     1       1.109  -1.912  -0.018  0.00  0.00    -0.214 NA
ENDBRANCH   1  12
BRANCH   3  16
ATOM     16  N   UNL     1      -5.889  -4.586   0.035  0.00  0.00    -0.218 N 
ATOM     17  C   UNL     1      -6.213  -5.894   0.030  0.00  0.00    +0.316 C 
ATOM     18  O   UNL     1      -7.381  -6.231   0.040  0.00  0.00    -0.251 OA
ATOM     19  N   UNL     1      -5.242  -6.829   0.016  0.00  0.00    -0.295 N 
ATOM     20  H   UNL     1      -6.587  -3.913   0.045  0.00  0.00    +0.174 HD
ATOM     21  H   UNL     1      -4.311  -6.561   0.008  0.00  0.00    +0.151 HD
BRANCH  19  22
ATOM     22  C   UNL     1      -5.595  -8.251   0.011  0.00  0.00    +0.074 C 
ATOM     23  C   UNL     1      -5.761  -8.759   1.459  0.00  0.00    +0.022 C 
ATOM     24  C   UNL     1      -5.183 -10.195   1.426  0.00  0.00    +0.002 C 
ATOM     25  C   UNL     1      -3.970 -10.054   0.473  0.00  0.00    +0.002 C 
ATOM     26  C   UNL     1      -4.456  -9.075  -0.615  0.00  0.00    +0.022 C 
ENDBRANCH  19  22
ENDBRANCH   3  16
TORSDOF 3
