REMARK  Name = ZINC20643959
REMARK  13 active torsions:
REMARK  status: ('A' for Active; 'I' for Inactive)
REMARK    1  A    between atoms: C_1  and  C_2
REMARK    2  A    between atoms: C_2  and  C_3
REMARK    3  A    between atoms: C_3  and  N_4
REMARK    4  A    between atoms: N_4  and  C_5
REMARK    5  A    between atoms: C_5  and  C_6
REMARK    6  A    between atoms: C_6  and  C_7
REMARK    7  A    between atoms: C_8  and  C_10
REMARK    8  A    between atoms: C_10  and  S_11
REMARK    9  A    between atoms: S_11  and  C_12
REMARK   10  A    between atoms: N_22  and  C_23
REMARK   11  A    between atoms: C_23  and  C_24
REMARK   12  A    between atoms: C_24  and  C_25
REMARK   13  A    between atoms: N_30  and  C_33
REMARK                            x       y       z     vdW  Elec       q    Type
REMARK                         _______ _______ _______ _____ _____    ______ ____
ROOT
ATOM      1  C   UNL     1      -1.119  -2.036   0.002  0.00  0.00    +0.173 A 
ATOM      2  N   UNL     1      -1.136  -0.726   0.009  0.00  0.00    -0.223 NA
ATOM      3  C   UNL     1       0.002  -0.004   0.002  0.00  0.00    +0.079 A 
ATOM      4  C   UNL     1      -0.017   1.394   0.010  0.00  0.00    +0.028 A 
ATOM      5  C   UNL     1       1.161   2.086   0.002  0.00  0.00    +0.002 A 
ATOM      6  C   UNL     1       2.381   1.422  -0.013  0.00  0.00    +0.001 A 
ATOM      7  C   UNL     1       2.432   0.055  -0.021  0.00  0.00    +0.015 A 
ATOM      8  C   UNL     1       1.245  -0.677  -0.013  0.00  0.00    +0.065 A 
ATOM      9  C   UNL     1       1.239  -2.146  -0.021  0.00  0.00    +0.262 A 
ATOM     10  O   UNL     1       2.277  -2.782  -0.034  0.00  0.00    -0.267 OA
ATOM     11  N   UNL     1       0.036  -2.766  -0.012  0.00  0.00    -0.287 N 
ENDROOT
BRANCH   1  12
ATOM     12  S   UNL     1      -2.656  -2.897   0.012  0.00  0.00    -0.078 S 
BRANCH  12  13
ATOM     13  C   UNL     1      -3.801  -1.496   0.030  0.00  0.00    +0.173 C 
BRANCH  13  15
ATOM     14  N   UNL     1      -6.248  -1.135   0.055  0.00  0.00    -0.301 N 
ATOM     15  C   UNL     1      -5.219  -2.005   0.041  0.00  0.00    +0.226 C 
ATOM     16  O   UNL     1      -5.434  -3.199   0.037  0.00  0.00    -0.275 OA
BRANCH  14  17
ATOM     17  C   UNL     1      -5.988   0.307   0.059  0.00  0.00    +0.107 C 
BRANCH  17  19
ATOM     18  C   UNL     1      -5.639   2.321  -1.376  0.00  0.00    +0.005 C 
ATOM     19  C   UNL     1      -5.911   0.816  -1.381  0.00  0.00    +0.016 C 
ENDBRANCH  17  19
ENDBRANCH  14  17
BRANCH  14  20
ATOM     20  C   UNL     1      -7.627  -1.631   0.065  0.00  0.00    +0.107 C 
BRANCH  20  21
ATOM     21  C   UNL     1      -8.093  -1.810   1.511  0.00  0.00    +0.016 C 
ATOM     22  C   UNL     1      -9.533  -2.328   1.522  0.00  0.00    +0.005 C 
ENDBRANCH  20  21
ENDBRANCH  14  20
ENDBRANCH  13  15
ENDBRANCH  12  13
ENDBRANCH   1  12
BRANCH  11  23
ATOM     23  C   UNL     1      -0.028  -4.229  -0.019  0.00  0.00    +0.136 C 
BRANCH  23  24
ATOM     24  C   UNL     1      -0.037  -4.746   1.421  0.00  0.00    +0.117 C 
BRANCH  24  25
ATOM     25  C   UNL     1      -0.103  -6.252   1.414  0.00  0.00    +0.217 C 
ATOM     26  O   UNL     1      -0.140  -6.852   0.361  0.00  0.00    -0.276 OA
ATOM     27  N   UNL     1      -0.121  -6.931   2.578  0.00  0.00    -0.298 N 
ATOM     28  C   UNL     1      -0.071  -6.223   3.866  0.00  0.00    +0.126 C 
ATOM     29  C   UNL     1      -1.224  -6.735   4.743  0.00  0.00    +0.124 C 
ATOM     30  N   UNL     1      -1.148  -8.199   4.837  0.00  0.00    -0.327 N 
ATOM     31  C   UNL     1      -1.328  -8.827   3.521  0.00  0.00    +0.124 C 
ATOM     32  C   UNL     1      -0.185  -8.400   2.594  0.00  0.00    +0.126 C 
BRANCH  30  33
ATOM     33  C   UNL     1      -2.076  -8.691   5.758  0.00  0.00    +0.030 A 
ATOM     34  C   UNL     1      -3.007  -9.645   5.366  0.00  0.00    +0.023 A 
ATOM     35  C   UNL     1      -3.920 -10.133   6.280  0.00  0.00    +0.002 A 
ATOM     36  C   UNL     1      -3.915  -9.665   7.582  0.00  0.00    +0.000 A 
ATOM     37  C   UNL     1      -2.993  -8.711   7.973  0.00  0.00    +0.002 A 
ATOM     38  C   UNL     1      -2.074  -8.223   7.066  0.00  0.00    +0.023 A 
ENDBRANCH  30  33
ENDBRANCH  24  25
ENDBRANCH  23  24
ENDBRANCH  11  23
TORSDOF 11
