REMARK  Name = ZINC09181791
REMARK  9 active torsions:
REMARK  status: ('A' for Active; 'I' for Inactive)
REMARK    1  A    between atoms: C_1  and  C_2
REMARK    2  A    between atoms: C_5  and  C_35
REMARK    3  A    between atoms: N_8  and  S_10
REMARK    4  A    between atoms: S_10  and  C_13
REMARK    5  A    between atoms: C_16  and  C_19
REMARK    6  A    between atoms: C_19  and  O_21
REMARK    7  A    between atoms: O_21  and  C_22
REMARK    8  A    between atoms: C_22  and  C_23
REMARK    9  A    between atoms: C_23  and  C_25
REMARK                            x       y       z     vdW  Elec       q    Type
REMARK                         _______ _______ _______ _____ _____    ______ ____
ROOT
ATOM      1  C   UNL     1       0.002  -0.004   0.002  0.00  0.00    +0.106 A 
ATOM      2  C   UNL     1       1.116  -0.680   0.468  0.00  0.00    +0.029 A 
ATOM      3  C   UNL     1       1.139  -2.059   0.469  0.00  0.00    +0.017 A 
ATOM      4  C   UNL     1       0.040  -2.773  -0.013  0.00  0.00    +0.059 A 
ATOM      5  C   UNL     1      -1.079  -2.084  -0.487  0.00  0.00    +0.017 A 
ATOM      6  C   UNL     1      -1.091  -0.705  -0.477  0.00  0.00    +0.029 A 
ENDROOT
BRANCH   1   7
ATOM      7  S   UNL     1      -0.022   1.758   0.012  0.00  0.00    +0.061 S 
ATOM      8  O   UNL     1       1.334   2.182   0.001  0.00  0.00    -0.153 OA
ATOM      9  O   UNL     1      -0.953   2.157  -0.985  0.00  0.00    -0.153 OA
BRANCH   7  15
ATOM     10  C   UNL     1      -2.418   0.110   2.496  0.00  0.00    +0.009 C 
ATOM     11  C   UNL     1      -2.589   1.597   2.813  0.00  0.00    +0.002 C 
ATOM     12  C   UNL     1      -1.766   1.953   4.053  0.00  0.00    +0.009 C 
ATOM     13  C   UNL     1      -0.293   1.623   3.803  0.00  0.00    +0.002 C 
ATOM     14  C   UNL     1       0.221   2.458   2.626  0.00  0.00    +0.112 C 
ATOM     15  N   UNL     1      -0.654   2.231   1.467  0.00  0.00    -0.176 NA
ATOM     16  C   UNL     1      -2.101   2.438   1.623  0.00  0.00    +0.112 C 
ATOM     17  C   UNL     1       0.523   1.948   5.055  0.00  0.00    +0.009 C 
ENDBRANCH   7  15
ENDBRANCH   1   7
BRANCH   4  18
ATOM     18  C   UNL     1       0.060  -4.250  -0.022  0.00  0.00    +0.340 C 
ATOM     19  O   UNL     1      -0.898  -4.868  -0.442  0.00  0.00    -0.245 OA
BRANCH  18  20
ATOM     20  O   UNL     1       1.140  -4.912   0.436  0.00  0.00    -0.453 OA
BRANCH  20  21
ATOM     21  C   UNL     1       1.090  -6.362   0.398  0.00  0.00    +0.312 C 
BRANCH  21  22
ATOM     22  C   UNL     1       2.377  -6.924   0.946  0.00  0.00    +0.202 C 
ATOM     23  O   UNL     1       3.251  -6.175   1.331  0.00  0.00    -0.288 OA
BRANCH  22  24
ATOM     24  C   UNL     1       2.567  -8.327   1.011  0.00  0.00    +0.046 A 
ATOM     25  C   UNL     1       1.674  -9.302   0.622  0.00  0.00    +0.095 A 
ATOM     26  N   UNL     1       2.211 -10.519   0.833  0.00  0.00    -0.360 N 
ATOM     27  H   UNL     1       1.770 -11.359   0.634  0.00  0.00    +0.165 HD
ATOM     28  C   UNL     1       3.474 -10.406   1.379  0.00  0.00    +0.047 A 
ATOM     29  C   UNL     1       3.758  -9.038   1.516  0.00  0.00    +0.010 A 
ATOM     30  C   UNL     1       4.977  -8.626   2.046  0.00  0.00    +0.011 A 
ATOM     31  C   UNL     1       5.905  -9.568   2.434  0.00  0.00    +0.001 A 
ATOM     32  C   UNL     1       5.627 -10.921   2.300  0.00  0.00    +0.002 A 
ATOM     33  C   UNL     1       4.423 -11.341   1.777  0.00  0.00    +0.026 A 
ENDBRANCH  22  24
ENDBRANCH  21  22
ENDBRANCH  20  21
ENDBRANCH  18  20
ENDBRANCH   4  18
TORSDOF 7
