REMARK  Name = ZINC38959658
REMARK  16 active torsions:
REMARK  status: ('A' for Active; 'I' for Inactive)
REMARK    1  A    between atoms: C_1  and  C_2
REMARK    2  A    between atoms: C_2  and  O_3
REMARK    3  A    between atoms: O_3  and  C_4
REMARK    4  A    between atoms: C_6  and  C_16
REMARK    5  A    between atoms: C_8  and  O_13
REMARK    6  A    between atoms: C_9  and  O_10
REMARK    7  A    between atoms: O_10  and  C_11
REMARK    8  A    between atoms: C_11  and  C_12
REMARK    9  A    between atoms: O_13  and  C_14
REMARK   10  A    between atoms: C_14  and  C_15
REMARK   11  A    between atoms: N_18  and  C_19
REMARK   12  A    between atoms: N_18  and  C_34
REMARK   13  A    between atoms: C_19  and  C_20
REMARK   14  A    between atoms: C_25  and  O_32
REMARK   15  A    between atoms: O_32  and  C_33
REMARK   16  A    between atoms: C_38  and  C_40
REMARK                            x       y       z     vdW  Elec       q    Type
REMARK                         _______ _______ _______ _____ _____    ______ ____
ROOT
ATOM      1  C   UNL     1       2.497  -6.514  -0.018  0.00  0.00    +0.251 C 
ATOM      2  O   UNL     1       3.380  -6.649   0.807  0.00  0.00    -0.270 OA
ATOM      3  N   UNL     1       2.356  -7.417  -1.008  0.00  0.00    -0.266 N 
ENDROOT
BRANCH   3   4
ATOM      4  C   UNL     1       2.873  -8.708  -0.856  0.00  0.00    +0.037 A 
ATOM      5  C   UNL     1       2.719  -9.643  -1.871  0.00  0.00    +0.023 A 
ATOM      6  C   UNL     1       3.230 -10.917  -1.717  0.00  0.00    +0.002 A 
ATOM      7  C   UNL     1       3.894 -11.262  -0.554  0.00  0.00    +0.003 A 
ATOM      8  C   UNL     1       4.048 -10.333   0.459  0.00  0.00    -0.049 A 
ATOM      9  C   UNL     1       3.544  -9.056   0.309  0.00  0.00    +0.027 A 
ATOM     10  C   UNL     1       4.772 -10.713   1.725  0.00  0.00    +0.044 C 
ENDBRANCH   3   4
BRANCH   1  13
ATOM     11  C   UNL     1      -0.320  -4.279   1.069  0.00  0.00    +0.166 A 
ATOM     12  C   UNL     1       0.537  -5.361   0.993  0.00  0.00    +0.062 A 
ATOM     13  C   UNL     1       1.581  -5.360   0.064  0.00  0.00    +0.044 A 
ATOM     14  C   UNL     1       1.755  -4.265  -0.786  0.00  0.00    +0.062 A 
ATOM     15  C   UNL     1       0.895  -3.186  -0.707  0.00  0.00    +0.166 A 
ATOM     16  C   UNL     1      -0.147  -3.191   0.216  0.00  0.00    +0.204 A 
BRANCH  11  17
ATOM     17  O   UNL     1      -1.337  -4.279   1.972  0.00  0.00    -0.488 OA
BRANCH  17  19
ATOM     18  C   UNL     1      -2.646  -5.246   3.758  0.00  0.00    +0.048 C 
ATOM     19  C   UNL     1      -1.455  -5.426   2.815  0.00  0.00    +0.226 C 
ENDBRANCH  17  19
ENDBRANCH  11  17
BRANCH  16  20
ATOM     20  O   UNL     1      -0.994  -2.131   0.289  0.00  0.00    -0.485 OA
BRANCH  20  21
ATOM     21  C   UNL     1      -0.636  -1.074   1.181  0.00  0.00    +0.226 C 
ATOM     22  C   UNL     1      -1.701   0.022   1.127  0.00  0.00    +0.048 C 
ENDBRANCH  20  21
ENDBRANCH  16  20
BRANCH  15  23
ATOM     23  O   UNL     1       1.065  -2.120  -1.534  0.00  0.00    -0.488 OA
BRANCH  23  24
ATOM     24  C   UNL     1       1.435  -2.400  -2.885  0.00  0.00    +0.226 C 
ATOM     25  C   UNL     1       1.734  -1.088  -3.614  0.00  0.00    +0.048 C 
ENDBRANCH  23  24
ENDBRANCH  15  23
ENDBRANCH   1  13
BRANCH   3  26
ATOM     26  C   UNL     1       1.662  -7.047  -2.244  0.00  0.00    +0.131 C 
BRANCH  26  27
ATOM     27  C   UNL     1       2.688  -6.640  -3.303  0.00  0.00    +0.116 C 
ATOM     28  C   UNL     1       2.837  -7.795  -4.275  0.00  0.00    -0.003 C 
ATOM     29  C   UNL     1       4.083  -8.325  -4.430  0.00  0.00    -0.004 A 
ATOM     30  C   UNL     1       4.314  -9.441  -5.348  0.00  0.00    +0.055 A 
ATOM     31  C   UNL     1       5.575  -9.939  -5.471  0.00  0.00    +0.121 A 
ATOM     32  C   UNL     1       6.643  -9.403  -4.740  0.00  0.00    +0.047 A 
ATOM     33  C   UNL     1       6.490  -8.368  -3.874  0.00  0.00    +0.027 A 
ATOM     34  C   UNL     1       5.226  -7.783  -3.675  0.00  0.00    +0.041 A 
ATOM     35  N   UNL     1       5.091  -6.767  -2.822  0.00  0.00    -0.284 N 
ATOM     36  C   UNL     1       3.934  -6.172  -2.586  0.00  0.00    +0.226 C 
ATOM     37  O   UNL     1       3.873  -5.249  -1.796  0.00  0.00    -0.275 OA
ATOM     38  H   UNL     1       5.878  -6.450  -2.352  0.00  0.00    +0.155 HD
BRANCH  31  39
ATOM     39  O   UNL     1       5.803 -10.976  -6.319  0.00  0.00    -0.495 OA
ATOM     40  C   UNL     1       7.145 -11.459  -6.409  0.00  0.00    +0.277 C 
ENDBRANCH  31  39
ENDBRANCH  26  27
ENDBRANCH   3  26
TORSDOF 11
