REMARK  Name = ZINC59261219
REMARK  12 active torsions:
REMARK  status: ('A' for Active; 'I' for Inactive)
REMARK    1  A    between atoms: C_1  and  C_2
REMARK    2  A    between atoms: C_2  and  C_4
REMARK    3  A    between atoms: C_2  and  S_20
REMARK    4  A    between atoms: N_6  and  N_7
REMARK    5  A    between atoms: C_8  and  C_9
REMARK    6  A    between atoms: C_8  and  C_10
REMARK    7  A    between atoms: S_20  and  C_21
REMARK    8  A    between atoms: C_24  and  C_29
REMARK    9  A    between atoms: N_25  and  C_26
REMARK   10  A    between atoms: C_26  and  C_27
REMARK   11  A    between atoms: C_29  and  N_30
REMARK   12  A    between atoms: N_30  and  C_31
REMARK                            x       y       z     vdW  Elec       q    Type
REMARK                         _______ _______ _______ _____ _____    ______ ____
ROOT
ATOM      1  C   UNL     1      -0.019   1.526   0.010  0.00  0.00    +0.029 C 
ATOM      2  C   UNL     1       0.002  -0.004   0.002  0.00  0.00    +0.139 C 
ENDROOT
BRANCH   2   3
ATOM      3  C   UNL     1       0.731  -0.503   1.223  0.00  0.00    +0.245 C 
ATOM      4  O   UNL     1       1.911  -0.775   1.156  0.00  0.00    -0.273 OA
ATOM      5  N   UNL     1       0.071  -0.647   2.389  0.00  0.00    -0.206 N 
ATOM      6  H   UNL     1      -0.872  -0.430   2.443  0.00  0.00    +0.177 HD
BRANCH   5   7
ATOM      7  N   UNL     1       0.749  -1.111   3.525  0.00  0.00    -0.189 NA
ATOM      8  C   UNL     1       0.123  -1.248   4.633  0.00  0.00    +0.040 C 
ATOM      9  C   UNL     1      -1.343  -0.910   4.716  0.00  0.00    +0.063 C 
BRANCH   8  10
ATOM     10  C   UNL     1       0.852  -1.748   5.853  0.00  0.00    +0.011 C 
ATOM     11  C   UNL     1       0.201  -3.043   6.342  0.00  0.00    +0.016 C 
ATOM     12  C   UNL     1       0.941  -3.550   7.581  0.00  0.00    -0.010 C 
ATOM     13  C   UNL     1       2.405  -3.817   7.227  0.00  0.00    +0.007 C 
ATOM     14  C   UNL     1       3.056  -2.521   6.739  0.00  0.00    -0.010 C 
ATOM     15  C   UNL     1       2.316  -2.014   5.500  0.00  0.00    +0.016 C 
ATOM     16  C   UNL     1       2.982  -1.466   7.844  0.00  0.00    +0.007 C 
ATOM     17  C   UNL     1       1.518  -1.199   8.198  0.00  0.00    -0.010 C 
ATOM     18  C   UNL     1       0.867  -2.494   8.686  0.00  0.00    +0.007 C 
ATOM     19  C   UNL     1       0.778  -0.692   6.958  0.00  0.00    +0.016 C 
ENDBRANCH   8  10
ENDBRANCH   5   7
ENDBRANCH   2   3
BRANCH   2  20
ATOM     20  S   UNL     1       0.851  -0.589  -1.490  0.00  0.00    -0.073 S 
BRANCH  20  21
ATOM     21  C   UNL     1      -0.189  -0.057  -2.809  0.00  0.00    +0.193 A 
ATOM     22  N   UNL     1      -1.312   0.614  -2.696  0.00  0.00    -0.122 NA
ATOM     23  N   UNL     1      -1.808   0.835  -3.860  0.00  0.00    -0.132 NA
ATOM     24  C   UNL     1      -1.040   0.322  -4.779  0.00  0.00    +0.152 A 
ATOM     25  N   UNL     1       0.022  -0.259  -4.143  0.00  0.00    -0.301 N 
BRANCH  25  26
ATOM     26  C   UNL     1       1.151  -0.957  -4.763  0.00  0.00    +0.152 C 
BRANCH  26  27
ATOM     27  C   UNL     1       0.821  -2.420  -4.905  0.00  0.00    -0.013 C 
ATOM     28  C   UNL     1       0.898  -2.999  -6.078  0.00  0.00    +0.005 C 
ENDBRANCH  26  27
ENDBRANCH  25  26
BRANCH  24  29
ATOM     29  C   UNL     1      -1.274   0.367  -6.267  0.00  0.00    +0.178 C 
BRANCH  29  30
ATOM     30  N   UNL     1      -0.647   1.568  -6.824  0.00  0.00    -0.337 N 
ATOM     31  H   UNL     1      -0.174   2.183  -6.241  0.00  0.00    +0.147 HD
BRANCH  30  32
ATOM     32  C   UNL     1      -0.731   1.829  -8.194  0.00  0.00    +0.028 A 
ATOM     33  C   UNL     1      -1.413   0.952  -9.028  0.00  0.00    +0.024 A 
ATOM     34  C   UNL     1      -1.494   1.212 -10.382  0.00  0.00    +0.022 A 
ATOM     35  C   UNL     1      -0.897   2.344 -10.908  0.00  0.00    +0.041 A 
ATOM     36  C   UNL     1      -0.217   3.219 -10.079  0.00  0.00    +0.022 A 
ATOM     37  C   UNL     1      -0.137   2.967  -8.724  0.00  0.00    +0.024 A 
ATOM     38 CL   UNL     1      -1.000   2.667 -12.611  0.00  0.00    -0.084 Cl
ENDBRANCH  30  32
ENDBRANCH  29  30
ENDBRANCH  24  29
ENDBRANCH  20  21
ENDBRANCH   2  20
TORSDOF 10
