REMARK  Name = ZINC65571379
REMARK  12 active torsions:
REMARK  status: ('A' for Active; 'I' for Inactive)
REMARK    1  A    between atoms: C_1  and  C_2
REMARK    2  A    between atoms: C_2  and  C_3
REMARK    3  A    between atoms: C_2  and  C_4
REMARK    4  A    between atoms: C_4  and  C_5
REMARK    5  A    between atoms: C_4  and  N_24
REMARK    6  A    between atoms: C_5  and  N_6
REMARK    7  A    between atoms: C_7  and  C_9
REMARK    8  A    between atoms: N_11  and  C_12
REMARK    9  A    between atoms: C_14  and  N_20
REMARK   10  A    between atoms: C_21  and  C_23
REMARK   11  A    between atoms: N_24  and  C_25
REMARK   12  A    between atoms: N_24  and  C_26
REMARK                            x       y       z     vdW  Elec       q    Type
REMARK                         _______ _______ _______ _____ _____    ______ ____
ROOT
ATOM      1  C   UNL     1      -7.742   1.031  -3.551  0.00  0.00    +0.303 C 
ATOM      2  O   UNL     1      -8.084   0.358  -2.601  0.00  0.00    -0.265 OA
ATOM      3  N   UNL     1      -8.526   1.101  -4.645  0.00  0.00    -0.275 N 
ATOM      4  H   UNL     1      -8.228   1.596  -5.424  0.00  0.00    +0.155 HD
ENDROOT
BRANCH   3   5
ATOM      5  C   UNL     1      -9.769   0.460  -4.657  0.00  0.00    +0.071 A 
ATOM      6  C   UNL     1      -9.990  -0.643  -3.843  0.00  0.00    +0.052 A 
ATOM      7  C   UNL     1     -11.223  -1.276  -3.857  0.00  0.00    +0.071 A 
ATOM      8  C   UNL     1     -12.237  -0.805  -4.685  0.00  0.00    +0.147 A 
ATOM      9  C   UNL     1     -12.015   0.294  -5.495  0.00  0.00    +0.080 A 
ATOM     10  C   UNL     1     -10.787   0.931  -5.479  0.00  0.00    +0.147 A 
ATOM     11  F   UNL     1     -10.575   2.008  -6.267  0.00  0.00    -0.203 F 
ATOM     12  F   UNL     1     -13.439  -1.422  -4.699  0.00  0.00    -0.203 F 
BRANCH   7  13
ATOM     13  N   UNL     1     -11.449  -2.390  -3.037  0.00  0.00    -0.283 N 
ATOM     14  C   UNL     1     -10.414  -3.160  -2.648  0.00  0.00    +0.214 C 
ATOM     15  O   UNL     1      -9.280  -2.852  -2.951  0.00  0.00    -0.276 OA
ATOM     16  C   UNL     1     -10.665  -4.405  -1.835  0.00  0.00    +0.109 C 
ATOM     17  H   UNL     1     -12.350  -2.606  -2.750  0.00  0.00    +0.155 HD
ENDBRANCH   7  13
ENDBRANCH   3   5
BRANCH   1  19
ATOM     18  N   UNL     1      -5.668   1.713  -2.413  0.00  0.00    -0.309 N 
ATOM     19  C   UNL     1      -6.452   1.783  -3.507  0.00  0.00    +0.299 C 
ATOM     20  O   UNL     1      -6.110   2.456  -4.457  0.00  0.00    -0.265 OA
ATOM     21  H   UNL     1      -5.942   1.175  -1.654  0.00  0.00    +0.149 HD
BRANCH  18  22
ATOM     22  C   UNL     1      -4.403   2.450  -2.370  0.00  0.00    +0.089 C 
BRANCH  22  23
ATOM     23  C   UNL     1      -3.635   2.071  -1.102  0.00  0.00    -0.049 C 
BRANCH  23  24
ATOM     24  N   UNL     1      -3.204   0.670  -1.190  0.00  0.00    +0.379 N 
ATOM     25  C   UNL     1      -4.384  -0.204  -1.227  0.00  0.00    -0.096 C 
ATOM     26  C   UNL     1      -2.414   0.477  -2.414  0.00  0.00    -0.096 C 
ATOM     27  H   UNL     1      -2.640   0.440  -0.386  0.00  0.00    -0.082 HD
ENDBRANCH  23  24
BRANCH  23  29
ATOM     28  C   UNL     1      -2.860   4.421  -0.752  0.00  0.00    +0.005 C 
ATOM     29  C   UNL     1      -2.408   2.974  -0.961  0.00  0.00    -0.029 C 
ATOM     30  C   UNL     1      -1.577   2.521   0.242  0.00  0.00    +0.005 C 
ENDBRANCH  23  29
ENDBRANCH  22  23
ENDBRANCH  18  22
ENDBRANCH   1  19
TORSDOF 7
