REMARK  Name = ZINC64819391
REMARK  5 active torsions:
REMARK  status: ('A' for Active; 'I' for Inactive)
REMARK    1  A    between atoms: C_4  and  N_7
REMARK    2  A    between atoms: C_13  and  C_23
REMARK    3  A    between atoms: N_25  and  C_26
REMARK    4  A    between atoms: C_26  and  C_27
REMARK    5  A    between atoms: C_27  and  C_28
REMARK                            x       y       z     vdW  Elec       q    Type
REMARK                         _______ _______ _______ _____ _____    ______ ____
ROOT
ATOM      1  N   UNL     1       3.624  -0.650  -0.022  0.00  0.00    -0.248 N 
ATOM      2  C   UNL     1       4.779   0.046  -0.126  0.00  0.00    +0.267 A 
ATOM      3  O   UNL     1       4.779   1.261  -0.195  0.00  0.00    -0.267 OA
ATOM      4  C   UNL     1       6.035  -0.720  -0.153  0.00  0.00    +0.065 A 
ATOM      5  C   UNL     1       7.275  -0.089  -0.257  0.00  0.00    +0.016 A 
ATOM      6  C   UNL     1       8.418  -0.836  -0.278  0.00  0.00    +0.014 A 
ATOM      7  C   UNL     1       8.359  -2.232  -0.196  0.00  0.00    +0.039 A 
ATOM      8  C   UNL     1       7.135  -2.881  -0.092  0.00  0.00    +0.041 A 
ATOM      9  C   UNL     1       5.958  -2.128  -0.069  0.00  0.00    +0.080 A 
ATOM     10  N   UNL     1       4.744  -2.718   0.033  0.00  0.00    -0.215 NA
ATOM     11  C   UNL     1       3.640  -2.014   0.059  0.00  0.00    +0.206 A 
ATOM     12  N   UNL     1       2.443  -2.678   0.169  0.00  0.00    -0.301 N 
ATOM     13  C   UNL     1       1.111  -2.062   0.085  0.00  0.00    +0.108 C 
ATOM     14  C   UNL     1       0.073  -3.185   0.291  0.00  0.00    +0.020 C 
ATOM     15  C   UNL     1       0.883  -4.274   1.042  0.00  0.00    +0.020 C 
ATOM     16  C   UNL     1       2.281  -4.127   0.386  0.00  0.00    +0.108 C 
ENDROOT
BRANCH   1  20
ATOM     17  C   UNL     1      -0.013   1.383   0.066  0.00  0.00    +0.000 A 
ATOM     18  C   UNL     1       0.668   1.136   1.244  0.00  0.00    +0.002 A 
ATOM     19  C   UNL     1       1.874   0.463   1.218  0.00  0.00    +0.026 A 
ATOM     20  C   UNL     1       2.401   0.033   0.007  0.00  0.00    +0.053 A 
ATOM     21  C   UNL     1       1.714   0.282  -1.173  0.00  0.00    +0.026 A 
ATOM     22  C   UNL     1       0.509   0.956  -1.141  0.00  0.00    +0.002 A 
ENDBRANCH   1  20
BRANCH   7  23
ATOM     23  C   UNL     1       9.610  -3.023  -0.222  0.00  0.00    +0.244 C 
ATOM     24  O   UNL     1       9.564  -4.236  -0.151  0.00  0.00    -0.270 OA
ATOM     25  N   UNL     1      10.800  -2.399  -0.324  0.00  0.00    -0.311 N 
ATOM     26  H   UNL     1      10.837  -1.431  -0.380  0.00  0.00    +0.149 HD
BRANCH  25  27
ATOM     27  C   UNL     1      12.038  -3.182  -0.349  0.00  0.00    +0.109 C 
BRANCH  27  28
ATOM     28  C   UNL     1      13.236  -2.237  -0.469  0.00  0.00    +0.061 C 
BRANCH  28  29
ATOM     29  C   UNL     1      14.510  -3.043  -0.495  0.00  0.00    -0.009 A 
ATOM     30  C   UNL     1      15.175  -3.553  -1.560  0.00  0.00    +0.011 A 
ATOM     31  C   UNL     1      16.339  -4.267  -1.343  0.00  0.00    +0.008 A 
ATOM     32  C   UNL     1      16.780  -4.436  -0.073  0.00  0.00    +0.045 A 
ATOM     33  S   UNL     1      15.538  -3.565   0.868  0.00  0.00    -0.102 S 
ENDBRANCH  28  29
ENDBRANCH  27  28
ENDBRANCH  25  27
ENDBRANCH   7  23
TORSDOF 5
