REMARK  Name = ZINC40035582
REMARK  10 active torsions:
REMARK  status: ('A' for Active; 'I' for Inactive)
REMARK    1  A    between atoms: C_1  and  C_2
REMARK    2  A    between atoms: C_2  and  C_3
REMARK    3  A    between atoms: C_6  and  C_9
REMARK    4  A    between atoms: N_10  and  N_11
REMARK    5  A    between atoms: N_18  and  C_19
REMARK    6  A    between atoms: C_22  and  O_25
REMARK    7  A    between atoms: O_25  and  C_26
REMARK    8  A    between atoms: C_27  and  C_35
REMARK    9  A    between atoms: C_27  and  C_36
REMARK   10  A    between atoms: C_36  and  C_37
REMARK                            x       y       z     vdW  Elec       q    Type
REMARK                         _______ _______ _______ _____ _____    ______ ____
ROOT
ATOM      1  N   UNL     1       4.857  -2.014  -5.668  0.00  0.00    -0.206 N 
ATOM      2  C   UNL     1       6.225  -2.087  -5.738  0.00  0.00    +0.223 A 
ATOM      3  N   UNL     1       6.925  -2.131  -4.622  0.00  0.00    -0.214 NA
ATOM      4  C   UNL     1       8.260  -2.203  -4.652  0.00  0.00    +0.084 A 
ATOM      5  C   UNL     1       8.926  -2.238  -5.869  0.00  0.00    +0.050 A 
ATOM      6  C   UNL     1       8.176  -2.188  -7.051  0.00  0.00    +0.264 A 
ATOM      7  O   UNL     1       8.726  -2.214  -8.140  0.00  0.00    -0.267 OA
ATOM      8  N   UNL     1       6.830  -2.117  -6.959  0.00  0.00    -0.248 N 
ATOM      9  C   UNL     1      10.425  -2.334  -5.910  0.00  0.00    +0.004 C 
ATOM     10  C   UNL     1      11.046  -1.544  -4.761  0.00  0.00    +0.047 C 
ATOM     11  C   UNL     1      10.411  -1.926  -3.451  0.00  0.00    -0.037 A 
ATOM     12  C   UNL     1       9.052  -2.243  -3.402  0.00  0.00    +0.004 A 
ATOM     13  C   UNL     1       8.460  -2.590  -2.191  0.00  0.00    +0.010 A 
ATOM     14  C   UNL     1       9.224  -2.623  -1.041  0.00  0.00    +0.001 A 
ATOM     15  C   UNL     1      10.571  -2.312  -1.094  0.00  0.00    +0.000 A 
ATOM     16  C   UNL     1      11.163  -1.964  -2.296  0.00  0.00    +0.004 A 
ATOM     17  C   UNL     1      10.930  -1.772  -7.240  0.00  0.00    +0.016 C 
ATOM     18  H   UNL     1       4.336  -1.905  -6.479  0.00  0.00    +0.177 HD
ENDROOT
BRANCH   8  19
ATOM     19  C   UNL     1       6.053  -2.068  -8.125  0.00  0.00    +0.053 A 
ATOM     20  C   UNL     1       5.735  -0.843  -8.697  0.00  0.00    +0.030 A 
ATOM     21  C   UNL     1       4.970  -0.795  -9.845  0.00  0.00    +0.047 A 
ATOM     22  C   UNL     1       4.518  -1.971 -10.427  0.00  0.00    +0.120 A 
ATOM     23  C   UNL     1       4.834  -3.195  -9.856  0.00  0.00    +0.047 A 
ATOM     24  C   UNL     1       5.605  -3.244  -8.711  0.00  0.00    +0.030 A 
BRANCH  22  25
ATOM     25  O   UNL     1       3.764  -1.923 -11.557  0.00  0.00    -0.495 OA
ATOM     26  C   UNL     1       3.333  -3.172 -12.102  0.00  0.00    +0.277 C 
ENDBRANCH  22  25
ENDBRANCH   8  19
BRANCH   1  28
ATOM     27  C   UNL     1       2.919  -2.028  -4.361  0.00  0.00    +0.138 C 
ATOM     28  N   UNL     1       4.214  -2.097  -4.427  0.00  0.00    -0.188 NA
BRANCH  27  32
ATOM     29  C   UNL     1       0.969  -2.280  -0.600  0.00  0.00    -0.048 A 
ATOM     30  C   UNL     1       0.222  -2.125  -1.754  0.00  0.00    +0.004 A 
ATOM     31  C   UNL     1       0.849  -2.042  -2.980  0.00  0.00    +0.010 A 
ATOM     32  C   UNL     1       2.242  -2.115  -3.054  0.00  0.00    -0.005 A 
ATOM     33  C   UNL     1       2.990  -2.273  -1.885  0.00  0.00    +0.010 A 
ATOM     34  C   UNL     1       2.349  -2.348  -0.665  0.00  0.00    +0.004 A 
BRANCH  29  36
ATOM     35  C   UNL     1       0.119  -0.966   1.324  0.00  0.00    +0.009 C 
ATOM     36  C   UNL     1       0.276  -2.370   0.736  0.00  0.00    +0.032 C 
ENDBRANCH  29  36
ENDBRANCH  27  32
ENDBRANCH   1  28
BRANCH   9  37
ATOM     37  C   UNL     1      10.839  -3.802  -5.794  0.00  0.00    +0.008 C 
ATOM     38  C   UNL     1      10.242  -4.595  -6.959  0.00  0.00    +0.005 C 
ENDBRANCH   9  37
TORSDOF 6
