REMARK  Name = ZINC38547660
REMARK  10 active torsions:
REMARK  status: ('A' for Active; 'I' for Inactive)
REMARK    1  A    between atoms: C_1  and  C_2
REMARK    2  A    between atoms: N_8  and  C_9
REMARK    3  A    between atoms: C_9  and  C_11
REMARK    4  A    between atoms: C_9  and  C_21
REMARK    5  A    between atoms: C_14  and  O_17
REMARK    6  A    between atoms: O_17  and  C_18
REMARK    7  A    between atoms: C_22  and  C_35
REMARK    8  A    between atoms: C_23  and  C_34
REMARK    9  A    between atoms: C_25  and  N_26
REMARK   10  A    between atoms: C_27  and  C_29
REMARK                            x       y       z     vdW  Elec       q    Type
REMARK                         _______ _______ _______ _____ _____    ______ ____
ROOT
ATOM      1  C   UNL     1      -0.343  -2.086   3.902  0.00  0.00    +0.135 C 
ENDROOT
BRANCH   1   9
ATOM      2  C   UNL     1       2.855  -5.979   2.957  0.00  0.00    +0.044 C 
ATOM      3  C   UNL     1       1.847  -5.205   2.146  0.00  0.00    -0.046 A 
ATOM      4  C   UNL     1       1.646  -5.492   0.802  0.00  0.00    +0.021 A 
ATOM      5  C   UNL     1       0.715  -4.766   0.088  0.00  0.00    +0.084 A 
ATOM      6  N   UNL     1       0.017  -3.806   0.665  0.00  0.00    -0.350 N 
ATOM      7  C   UNL     1       0.180  -3.502   1.944  0.00  0.00    +0.097 A 
ATOM      8  C   UNL     1       1.097  -4.198   2.725  0.00  0.00    +0.045 A 
ATOM      9  N   UNL     1      -0.577  -2.484   2.511  0.00  0.00    -0.320 N 
ATOM     10  H   UNL     1      -1.259  -2.036   1.987  0.00  0.00    +0.148 HD
ATOM     11  H   UNL     1      -0.631  -3.311   0.140  0.00  0.00    +0.166 HD
ENDBRANCH   1   9
BRANCH   1  12
ATOM     12  C   UNL     1       0.872  -1.198   3.973  0.00  0.00    +0.009 A 
ATOM     13  C   UNL     1       1.814  -1.373   4.970  0.00  0.00    -0.033 A 
ATOM     14  C   UNL     1       2.896  -0.558   5.005  0.00  0.00    -0.008 A 
ATOM     15  S   UNL     1       2.607   0.504   3.599  0.00  0.00    -0.078 S 
ATOM     16  C   UNL     1       1.065  -0.211   3.053  0.00  0.00    +0.078 A 
ATOM     17  C   UNL     1       4.045  -0.549   5.979  0.00  0.00    +0.052 C 
ATOM     18  C   UNL     1       1.641  -2.456   6.003  0.00  0.00    +0.045 C 
BRANCH  16  19
ATOM     19  N   UNL     1       0.265   0.148   1.967  0.00  0.00    -0.273 N 
ATOM     20  C   UNL     1       0.608   1.198   1.195  0.00  0.00    +0.284 C 
ATOM     21  O   UNL     1       1.662   1.776   1.387  0.00  0.00    -0.266 OA
ATOM     22  H   UNL     1      -0.538  -0.359   1.768  0.00  0.00    +0.156 HD
BRANCH  20  23
ATOM     23  C   UNL     1      -0.289   1.645   0.125  0.00  0.00    +0.189 A 
ATOM     24  C   UNL     1      -0.025   2.629  -0.784  0.00  0.00    +0.054 A 
ATOM     25  C   UNL     1      -1.152   2.722  -1.617  0.00  0.00    +0.042 A 
ATOM     26  C   UNL     1      -2.042   1.802  -1.185  0.00  0.00    +0.196 A 
ATOM     27  O   UNL     1      -1.517   1.151  -0.139  0.00  0.00    -0.458 OA
ENDBRANCH  20  23
ENDBRANCH  16  19
ENDBRANCH   1  12
BRANCH   1  28
ATOM     28  C   UNL     1      -1.544  -1.336   4.418  0.00  0.00    -0.023 A 
ATOM     29  C   UNL     1      -2.253  -0.502   3.573  0.00  0.00    +0.009 A 
ATOM     30  C   UNL     1      -3.354   0.187   4.044  0.00  0.00    +0.046 A 
ATOM     31  C   UNL     1      -3.748   0.041   5.366  0.00  0.00    +0.127 A 
ATOM     32  C   UNL     1      -3.036  -0.796   6.212  0.00  0.00    +0.046 A 
ATOM     33  C   UNL     1      -1.939  -1.487   5.734  0.00  0.00    +0.009 A 
BRANCH  31  34
ATOM     34  O   UNL     1      -4.831   0.718   5.831  0.00  0.00    -0.434 OA
BRANCH  34  35
ATOM     35  C   UNL     1      -5.179   0.520   7.203  0.00  0.00    +0.541 C 
ATOM     36  F   UNL     1      -5.459  -0.833   7.422  0.00  0.00    -0.166 F 
ATOM     37  F   UNL     1      -4.111   0.913   8.017  0.00  0.00    -0.166 F 
ENDBRANCH  34  35
ENDBRANCH  31  34
ENDBRANCH   1  28
TORSDOF 7
