REMARK  Name = ZINC08927695
REMARK  9 active torsions:
REMARK  status: ('A' for Active; 'I' for Inactive)
REMARK    1  A    between atoms: C_1  and  C_2
REMARK    2  A    between atoms: C_5  and  C_33
REMARK    3  A    between atoms: C_6  and  C_8
REMARK    4  A    between atoms: C_8  and  N_9
REMARK    5  A    between atoms: C_16  and  C_19
REMARK    6  A    between atoms: C_16  and  O_31
REMARK    7  A    between atoms: C_19  and  C_20
REMARK    8  A    between atoms: C_20  and  C_22
REMARK    9  A    between atoms: C_26  and  N_28
REMARK                            x       y       z     vdW  Elec       q    Type
REMARK                         _______ _______ _______ _____ _____    ______ ____
ROOT
ATOM      1  N   UNL     1       0.916   4.959   1.935  0.00  0.00    -0.264 N 
ATOM      2  C   UNL     1       2.112   5.190   1.254  0.00  0.00    +0.043 A 
ATOM      3  C   UNL     1       3.199   6.003   1.571  0.00  0.00    +0.025 A 
ATOM      4  C   UNL     1       4.286   6.067   0.725  0.00  0.00    +0.017 A 
ATOM      5  C   UNL     1       4.308   5.326  -0.444  0.00  0.00    +0.018 A 
ATOM      6  C   UNL     1       3.232   4.516  -0.765  0.00  0.00    +0.024 A 
ATOM      7  C   UNL     1       2.146   4.451   0.078  0.00  0.00    +0.016 A 
ATOM      8  C   UNL     1       0.844   3.685   0.019  0.00  0.00    +0.175 C 
ATOM      9  C   UNL     1       0.119   4.094   1.284  0.00  0.00    +0.257 C 
ATOM     10  O   UNL     1      -0.975   3.713   1.643  0.00  0.00    -0.272 OA
ATOM     11 BR   UNL     1       5.803   5.420  -1.598  0.00  0.00    -0.050 Br
ENDROOT
BRANCH   8  12
ATOM     12  O   UNL     1       0.089   4.062  -1.134  0.00  0.00    -0.374 OA
ATOM     13  H   UNL     1      -0.769   3.622  -1.204  0.00  0.00    +0.211 HD
ENDBRANCH   8  12
BRANCH   1  14
ATOM     14  C   UNL     1       0.569   5.588   3.211  0.00  0.00    +0.149 C 
BRANCH  14  20
ATOM     15  C   UNL     1       2.793   1.411   4.839  0.00  0.00    +0.044 C 
ATOM     16  C   UNL     1       2.026   2.677   5.123  0.00  0.00    -0.050 A 
ATOM     17  C   UNL     1       1.683   3.001   6.423  0.00  0.00    +0.003 A 
ATOM     18  C   UNL     1       0.981   4.162   6.683  0.00  0.00    +0.004 A 
ATOM     19  C   UNL     1       0.623   5.002   5.644  0.00  0.00    -0.046 A 
ATOM     20  C   UNL     1       0.962   4.675   4.344  0.00  0.00    -0.027 A 
ATOM     21  C   UNL     1       1.666   3.514   4.084  0.00  0.00    +0.008 A 
ATOM     22  C   UNL     1      -0.139   6.270   5.928  0.00  0.00    +0.044 C 
ENDBRANCH  14  20
ENDBRANCH   1  14
BRANCH   8  23
ATOM     23  C   UNL     1       1.108   2.178   0.017  0.00  0.00    +0.129 C 
BRANCH  23  24
ATOM     24  C   UNL     1      -0.204   1.438   0.055  0.00  0.00    +0.167 C 
ATOM     25  O   UNL     1      -1.248   2.055   0.076  0.00  0.00    -0.292 OA
BRANCH  24  26
ATOM     26  C   UNL     1      -0.219  -0.033   0.059  0.00  0.00    +0.020 A 
ATOM     27  C   UNL     1       0.983  -0.749   0.023  0.00  0.00    +0.011 A 
ATOM     28  C   UNL     1       0.961  -2.127   0.032  0.00  0.00    +0.003 A 
ATOM     29  C   UNL     1      -0.246  -2.803   0.067  0.00  0.00    +0.033 A 
ATOM     30  C   UNL     1      -1.440  -2.103   0.098  0.00  0.00    +0.127 A 
ATOM     31  C   UNL     1      -1.434  -0.724   0.095  0.00  0.00    +0.044 A 
BRANCH  30  32
ATOM     32  N   UNL     1      -2.725  -2.836   0.136  0.00  0.00    +0.056 N 
ATOM     33  O   UNL     1      -3.776  -2.221   0.163  0.00  0.00    -0.126 OA
ATOM     34  O   UNL     1      -2.732  -4.054   0.139  0.00  0.00    -0.126 OA
ENDBRANCH  30  32
ENDBRANCH  24  26
ENDBRANCH  23  24
ENDBRANCH   8  23
TORSDOF 7
