REMARK  Name = ZINC39531992
REMARK  10 active torsions:
REMARK  status: ('A' for Active; 'I' for Inactive)
REMARK    1  A    between atoms: C_1  and  C_2
REMARK    2  A    between atoms: C_5  and  C_8
REMARK    3  A    between atoms: C_8  and  C_10
REMARK    4  A    between atoms: C_8  and  N_21
REMARK    5  A    between atoms: C_10  and  N_11
REMARK    6  A    between atoms: N_11  and  S_12
REMARK    7  A    between atoms: S_12  and  C_15
REMARK    8  A    between atoms: C_25  and  S_28
REMARK    9  A    between atoms: S_28  and  O_31
REMARK   10  A    between atoms: O_31  and  C_32
REMARK                            x       y       z     vdW  Elec       q    Type
REMARK                         _______ _______ _______ _____ _____    ______ ____
ROOT
ATOM      1  C   UNL     1       0.139  -4.159   0.059  0.00  0.00    +0.102 C 
ENDROOT
BRANCH   1   2
ATOM      2  N   UNL     1      -0.636  -4.574   1.236  0.00  0.00    -0.296 NA
ATOM      3  C   UNL     1      -0.555  -6.027   1.435  0.00  0.00    +0.066 C 
ATOM      4  C   UNL     1      -1.323  -6.410   2.702  0.00  0.00    -0.064 C 
ATOM      5  N   UNL     1      -2.725  -5.994   2.569  0.00  0.00    +0.398 N 
ATOM      6  C   UNL     1      -2.791  -4.537   2.396  0.00  0.00    +0.130 C 
ATOM      7  C   UNL     1      -2.035  -4.139   1.126  0.00  0.00    +0.095 C 
ATOM      8  H   UNL     1      -3.135  -6.447   1.766  0.00  0.00    -0.083 HD
ATOM      9  H   UNL     1      -3.234  -6.257   3.399  0.00  0.00    -0.083 HD
BRANCH   6  10
ATOM     10  S   UNL     1      -4.525  -4.023   2.253  0.00  0.00    +0.109 S 
ATOM     11  O   UNL     1      -4.618  -2.605   2.264  0.00  0.00    -0.138 OA
ATOM     12  O   UNL     1      -5.180  -4.784   1.247  0.00  0.00    -0.138 OA
BRANCH  10  13
ATOM     13  O   UNL     1      -5.173  -4.465   3.558  0.00  0.00    -0.347 OA
BRANCH  13  14
ATOM     14  C   UNL     1      -4.854  -3.687   4.625  0.00  0.00    +0.156 A 
ATOM     15  C   UNL     1      -3.742  -3.989   5.398  0.00  0.00    +0.048 A 
ATOM     16  C   UNL     1      -3.419  -3.196   6.482  0.00  0.00    +0.004 A 
ATOM     17  C   UNL     1      -4.204  -2.101   6.797  0.00  0.00    +0.000 A 
ATOM     18  C   UNL     1      -5.312  -1.798   6.028  0.00  0.00    +0.004 A 
ATOM     19  C   UNL     1      -5.636  -2.585   4.939  0.00  0.00    +0.048 A 
ENDBRANCH  13  14
ENDBRANCH  10  13
ENDBRANCH   6  10
ENDBRANCH   1   2
BRANCH   1  24
ATOM     20  C   UNL     1      -0.035   1.596  -0.430  0.00  0.00    +0.044 C 
ATOM     21  C   UNL     1       0.010   0.095  -0.303  0.00  0.00    -0.050 A 
ATOM     22  C   UNL     1      -0.078  -0.697  -1.432  0.00  0.00    +0.003 A 
ATOM     23  C   UNL     1      -0.036  -2.074  -1.315  0.00  0.00    +0.005 A 
ATOM     24  C   UNL     1       0.094  -2.658  -0.069  0.00  0.00    -0.029 A 
ATOM     25  C   UNL     1       0.183  -1.866   1.060  0.00  0.00    +0.005 A 
ATOM     26  C   UNL     1       0.146  -0.489   0.943  0.00  0.00    +0.003 A 
ENDBRANCH   1  24
BRANCH   1  27
ATOM     27  C   UNL     1       1.591  -4.615   0.217  0.00  0.00    +0.129 C 
BRANCH  27  28
ATOM     28  N   UNL     1       2.345  -4.270  -0.991  0.00  0.00    -0.188 NA
ATOM     29  H   UNL     1       1.874  -4.045  -1.809  0.00  0.00    +0.148 HD
BRANCH  28  30
ATOM     30  S   UNL     1       4.000  -4.265  -0.960  0.00  0.00    +0.058 S 
ATOM     31  O   UNL     1       4.430  -3.923  -2.271  0.00  0.00    -0.153 OA
ATOM     32  O   UNL     1       4.383  -3.518   0.186  0.00  0.00    -0.153 OA
BRANCH  30  33
ATOM     33  C   UNL     1       4.521  -5.925  -0.677  0.00  0.00    +0.105 A 
ATOM     34  C   UNL     1       4.697  -6.383   0.615  0.00  0.00    +0.028 A 
ATOM     35  C   UNL     1       5.106  -7.685   0.837  0.00  0.00    +0.002 A 
ATOM     36  C   UNL     1       5.337  -8.529  -0.233  0.00  0.00    +0.000 A 
ATOM     37  C   UNL     1       5.160  -8.071  -1.525  0.00  0.00    +0.002 A 
ATOM     38  C   UNL     1       4.748  -6.770  -1.747  0.00  0.00    +0.028 A 
ENDBRANCH  30  33
ENDBRANCH  28  30
ENDBRANCH  27  28
ENDBRANCH   1  27
TORSDOF 9
