REMARK  Name = ZINC54689214
REMARK  4 active torsions:
REMARK  status: ('A' for Active; 'I' for Inactive)
REMARK    1  A    between atoms: C_1  and  C_2
REMARK    2  A    between atoms: C_7  and  S_10
REMARK    3  A    between atoms: S_10  and  C_11
REMARK    4  A    between atoms: C_14  and  N_20
REMARK                            x       y       z     vdW  Elec       q    Type
REMARK                         _______ _______ _______ _____ _____    ______ ____
ROOT
ATOM      1  C   UNL     1       1.579  -4.396   2.548  0.00  0.00    +0.039 A 
ATOM      2  C   UNL     1       1.054  -4.967   1.431  0.00  0.00    +0.019 A 
ATOM      3  C   UNL     1       0.983  -6.351   1.261  0.00  0.00    +0.026 A 
ATOM      4  C   UNL     1       1.432  -7.225   2.200  0.00  0.00    +0.056 A 
ATOM      5  C   UNL     1       2.016  -6.714   3.443  0.00  0.00    +0.156 A 
ATOM      6  C   UNL     1       2.098  -5.250   3.621  0.00  0.00    +0.149 A 
ATOM      7  N   UNL     1       2.652  -5.011   4.784  0.00  0.00    -0.048 NA
ATOM      8  O   UNL     1       2.950  -6.257   5.390  0.00  0.00    -0.241 OA
ATOM      9  N   UNL     1       2.523  -7.283   4.510  0.00  0.00    -0.047 NA
ENDROOT
BRANCH   4  10
ATOM     10  N   UNL     1       1.336  -8.602   1.982  0.00  0.00    -0.356 N 
ATOM     11  H   UNL     1       0.949  -8.937   1.158  0.00  0.00    +0.142 HD
ATOM     12  H   UNL     1       1.658  -9.223   2.654  0.00  0.00    +0.142 HD
ENDBRANCH   4  10
BRANCH   1  13
ATOM     13  S   UNL     1       1.640  -2.642   2.703  0.00  0.00    -0.120 S 
BRANCH  13  19
ATOM     14  C   UNL     1       0.373   1.490  -0.245  0.00  0.00    +0.007 C 
ATOM     15  C   UNL     1       0.180  -0.022  -0.115  0.00  0.00    -0.013 C 
ATOM     16  C   UNL     1      -1.310  -0.335   0.037  0.00  0.00    +0.003 C 
ATOM     17  C   UNL     1      -1.502  -1.848   0.167  0.00  0.00    +0.001 C 
ATOM     18  C   UNL     1      -0.746  -2.354   1.397  0.00  0.00    +0.014 C 
ATOM     19  C   UNL     1       0.744  -2.041   1.244  0.00  0.00    +0.052 C 
ATOM     20  C   UNL     1       0.936  -0.529   1.115  0.00  0.00    +0.017 C 
ENDBRANCH  13  19
ENDBRANCH   1  13
TORSDOF 3
