REMARK  Name = ZINC39600565
REMARK  9 active torsions:
REMARK  status: ('A' for Active; 'I' for Inactive)
REMARK    1  A    between atoms: C_1  and  O_2
REMARK    2  A    between atoms: O_2  and  C_3
REMARK    3  A    between atoms: C_6  and  O_37
REMARK    4  A    between atoms: C_7  and  C_9
REMARK    5  A    between atoms: C_13  and  C_22
REMARK    6  A    between atoms: N_24  and  C_25
REMARK    7  A    between atoms: C_25  and  C_26
REMARK    8  A    between atoms: C_28  and  C_33
REMARK    9  A    between atoms: O_37  and  C_38
REMARK                            x       y       z     vdW  Elec       q    Type
REMARK                         _______ _______ _______ _____ _____    ______ ____
ROOT
ATOM      1  C   UNL     1      -2.663  -4.419   0.115  0.00  0.00    +0.250 C 
ATOM      2  O   UNL     1      -3.683  -5.069   0.236  0.00  0.00    -0.270 OA
ATOM      3  N   UNL     1      -1.478  -5.044  -0.032  0.00  0.00    -0.296 N 
ATOM      4  C   UNL     1      -0.129  -4.434  -0.086  0.00  0.00    +0.121 C 
ATOM      5  C   UNL     1       0.770  -5.403   0.714  0.00  0.00    +0.100 C 
ATOM      6  C   UNL     1       0.043  -6.756   0.649  0.00  0.00    -0.004 C 
ATOM      7  C   UNL     1      -1.230  -6.500  -0.170  0.00  0.00    +0.115 C 
ATOM      8  C   UNL     1       0.920  -7.794  -0.046  0.00  0.00    -0.010 C 
ATOM      9  C   UNL     1       0.199  -9.146  -0.046  0.00  0.00    -0.082 C 
ATOM     10  N   UNL     1      -0.077  -9.556   1.336  0.00  0.00    +0.379 N 
ATOM     11  C   UNL     1      -0.995  -8.600   1.967  0.00  0.00    -0.082 C 
ATOM     12  C   UNL     1      -0.325  -7.226   2.053  0.00  0.00    -0.010 C 
ATOM     13  H   UNL     1      -0.496 -10.473   1.336  0.00  0.00    -0.086 HD
ATOM     14  H   UNL     1       0.787  -9.584   1.856  0.00  0.00    -0.086 HD
ENDROOT
BRANCH   1  19
ATOM     15  C   UNL     1      -1.897  -0.818  -0.636  0.00  0.00    +0.121 A 
ATOM     16  C   UNL     1      -2.836  -0.171   0.158  0.00  0.00    +0.049 A 
ATOM     17  C   UNL     1      -3.715  -0.899   0.933  0.00  0.00    +0.050 A 
ATOM     18  C   UNL     1      -3.666  -2.285   0.926  0.00  0.00    +0.132 A 
ATOM     19  C   UNL     1      -2.721  -2.945   0.128  0.00  0.00    +0.082 A 
ATOM     20  C   UNL     1      -1.839  -2.199  -0.658  0.00  0.00    +0.062 A 
BRANCH  15  22
ATOM     21  C   UNL     1      -1.149   1.331  -1.326  0.00  0.00    +0.277 C 
ATOM     22  O   UNL     1      -1.035  -0.091  -1.397  0.00  0.00    -0.495 OA
ENDBRANCH  15  22
BRANCH  18  23
ATOM     23  O   UNL     1      -4.530  -3.001   1.690  0.00  0.00    -0.494 OA
ATOM     24  C   UNL     1      -5.465  -2.261   2.478  0.00  0.00    +0.277 C 
ENDBRANCH  18  23
ENDBRANCH   1  19
BRANCH   5  25
ATOM     25  C   UNL     1       0.898  -4.941   2.143  0.00  0.00    +0.218 C 
ATOM     26  O   UNL     1      -0.008  -4.328   2.666  0.00  0.00    -0.275 OA
ATOM     27  N   UNL     1       2.020  -5.210   2.840  0.00  0.00    -0.311 N 
ATOM     28  H   UNL     1       2.745  -5.701   2.422  0.00  0.00    +0.149 HD
BRANCH  27  29
ATOM     29  C   UNL     1       2.145  -4.762   4.229  0.00  0.00    +0.139 C 
BRANCH  29  30
ATOM     30  C   UNL     1       3.483  -5.186   4.776  0.00  0.00    -0.027 A 
ATOM     31  C   UNL     1       3.617  -6.414   5.398  0.00  0.00    +0.017 A 
ATOM     32  C   UNL     1       4.844  -6.805   5.900  0.00  0.00    +0.058 A 
ATOM     33  C   UNL     1       5.939  -5.969   5.782  0.00  0.00    +0.050 A 
ATOM     34  C   UNL     1       5.805  -4.739   5.159  0.00  0.00    +0.124 A 
ATOM     35  C   UNL     1       4.577  -4.351   4.651  0.00  0.00    +0.043 A 
ATOM     36  F   UNL     1       6.874  -3.921   5.043  0.00  0.00    -0.205 F 
BRANCH  32  37
ATOM     37  C   UNL     1       4.989  -8.143   6.577  0.00  0.00    +0.418 C 
ATOM     38  F   UNL     1       5.332  -9.112   5.628  0.00  0.00    -0.166 F 
ATOM     39  F   UNL     1       5.992  -8.068   7.550  0.00  0.00    -0.166 F 
ATOM     40  F   UNL     1       3.778  -8.493   7.184  0.00  0.00    -0.166 F 
ENDBRANCH  32  37
ENDBRANCH  29  30
ENDBRANCH  27  29
ENDBRANCH   5  25
TORSDOF 7
