REMARK  Name = ZINC02794680
REMARK  10 active torsions:
REMARK  status: ('A' for Active; 'I' for Inactive)
REMARK    1  A    between atoms: C_1  and  C_2
REMARK    2  A    between atoms: C_5  and  N_8
REMARK    3  A    between atoms: N_8  and  C_9
REMARK    4  A    between atoms: C_9  and  N_11
REMARK    5  A    between atoms: N_11  and  N_12
REMARK    6  A    between atoms: C_13  and  C_15
REMARK    7  A    between atoms: C_21  and  C_30
REMARK    8  A    between atoms: C_24  and  C_26
REMARK    9  A    between atoms: C_33  and  O_36
REMARK   10  A    between atoms: O_36  and  C_37
REMARK                            x       y       z     vdW  Elec       q    Type
REMARK                         _______ _______ _______ _____ _____    ______ ____
ROOT
ATOM      1  C   UNL     1       4.007   4.331   0.763  0.00  0.00    +0.097 A 
ATOM      2  C   UNL     1       3.726   5.465  -0.038  0.00  0.00    +0.149 A 
ATOM      3  N   UNL     1       2.948   5.091  -1.016  0.00  0.00    -0.177 NA
ATOM      4  N   UNL     1       2.692   3.724  -0.899  0.00  0.00    -0.238 N 
ATOM      5  C   UNL     1       3.340   3.256   0.190  0.00  0.00    +0.130 A 
ATOM      6  N   UNL     1       3.322   1.948   0.625  0.00  0.00    -0.322 N 
ATOM      7  C   UNL     1       2.193   1.216   0.031  0.00  0.00    +0.104 C 
ATOM      8  C   UNL     1       2.189   1.424  -1.487  0.00  0.00    +0.063 C 
ATOM      9  C   UNL     1       1.865   2.895  -1.786  0.00  0.00    +0.215 C 
ATOM     10  H   UNL     1       4.008   1.435   1.315  0.00  0.00    +0.148 HD
ENDROOT
BRANCH   7  11
ATOM     11  C   UNL     1       0.900   1.730   0.611  0.00  0.00    -0.027 A 
ATOM     12  C   UNL     1       0.898   2.879   1.381  0.00  0.00    +0.009 A 
ATOM     13  C   UNL     1      -0.284   3.349   1.919  0.00  0.00    +0.046 A 
ATOM     14  C   UNL     1      -1.472   2.675   1.676  0.00  0.00    +0.120 A 
ATOM     15  C   UNL     1      -1.467   1.522   0.903  0.00  0.00    +0.046 A 
ATOM     16  C   UNL     1      -0.281   1.053   0.372  0.00  0.00    +0.009 A 
BRANCH  14  17
ATOM     17  O   UNL     1      -2.638   3.138   2.199  0.00  0.00    -0.495 OA
ATOM     18  C   UNL     1      -2.567   4.330   2.985  0.00  0.00    +0.277 C 
ENDBRANCH  14  17
ENDBRANCH   7  11
BRANCH   1  20
ATOM     19  N   UNL     1       5.433   5.426   2.411  0.00  0.00    -0.231 N 
ATOM     20  C   UNL     1       4.844   4.297   1.969  0.00  0.00    +0.265 C 
ATOM     21  O   UNL     1       5.005   3.251   2.568  0.00  0.00    -0.268 OA
ATOM     22  H   UNL     1       5.287   6.372   1.869  0.00  0.00    +0.173 HD
BRANCH  19  23
ATOM     23  N   UNL     1       6.232   5.394   3.562  0.00  0.00    -0.245 N 
ATOM     24  H   UNL     1       6.378   4.448   4.104  0.00  0.00    +0.172 HD
BRANCH  23  25
ATOM     25  C   UNL     1       6.821   6.523   4.004  0.00  0.00    +0.151 C 
ATOM     26  S   UNL     1       7.797   6.484   5.410  0.00  0.00    -0.017 S 
BRANCH  25  27
ATOM     27  N   UNL     1       6.642   7.681   3.340  0.00  0.00    -0.296 N 
ATOM     28  H   UNL     1       5.941   7.727   2.493  0.00  0.00    +0.154 HD
BRANCH  27  33
ATOM     29  C   UNL     1       9.500  12.323   4.911  0.00  0.00    +0.044 C 
ATOM     30  C   UNL     1       8.741  11.090   4.494  0.00  0.00    -0.050 A 
ATOM     31  C   UNL     1       9.380   9.864   4.463  0.00  0.00    +0.005 A 
ATOM     32  C   UNL     1       8.687   8.732   4.080  0.00  0.00    +0.023 A 
ATOM     33  C   UNL     1       7.347   8.826   3.728  0.00  0.00    +0.033 A 
ATOM     34  C   UNL     1       6.709  10.060   3.755  0.00  0.00    +0.023 A 
ATOM     35  C   UNL     1       7.407  11.187   4.144  0.00  0.00    +0.005 A 
ENDBRANCH  27  33
ENDBRANCH  25  27
ENDBRANCH  23  25
ENDBRANCH  19  23
ENDBRANCH   1  20
BRANCH   9  36
ATOM     36  C   UNL     1       2.193   3.212  -3.247  0.00  0.00    +0.412 C 
ATOM     37  F   UNL     1       3.545   2.945  -3.490  0.00  0.00    -0.168 F 
ATOM     38  F   UNL     1       1.403   2.418  -4.085  0.00  0.00    -0.168 F 
ATOM     39  F   UNL     1       1.931   4.562  -3.501  0.00  0.00    -0.168 F 
ENDBRANCH   9  36
TORSDOF 8
