REMARK  Name = ZINC10054699
REMARK  8 active torsions:
REMARK  status: ('A' for Active; 'I' for Inactive)
REMARK    1  A    between atoms: C_1  and  C_2
REMARK    2  A    between atoms: N_10  and  C_14
REMARK    3  A    between atoms: C_14  and  C_15
REMARK    4  A    between atoms: C_15  and  O_17
REMARK    5  A    between atoms: O_17  and  C_18
REMARK    6  A    between atoms: C_18  and  C_19
REMARK    7  A    between atoms: N_24  and  C_25
REMARK    8  A    between atoms: C_32  and  C_34
REMARK                            x       y       z     vdW  Elec       q    Type
REMARK                         _______ _______ _______ _____ _____    ______ ____
ROOT
ATOM      1  O   UNL     1      -2.708  -1.879  -1.647  0.00  0.00    -0.457 OA
ENDROOT
BRANCH   1   2
ATOM      2  C   UNL     1      -1.624  -1.124  -1.409  0.00  0.00    +0.326 C 
ATOM      3  O   UNL     1      -0.990  -0.669  -2.331  0.00  0.00    -0.249 OA
BRANCH   2   4
ATOM      4  C   UNL     1      -1.198  -0.844   0.009  0.00  0.00    +0.238 C 
BRANCH   4  14
ATOM      5  C   UNL     1       5.008   4.205  -0.023  0.00  0.00    +0.007 C 
ATOM      6  C   UNL     1       3.533   3.799  -0.011  0.00  0.00    -0.014 C 
ATOM      7  C   UNL     1       3.220   2.976  -1.262  0.00  0.00    +0.006 C 
ATOM      8  C   UNL     1       1.741   2.581  -1.255  0.00  0.00    +0.035 C 
ATOM      9  C   UNL     1       1.435   1.768  -0.002  0.00  0.00    +0.113 C 
ATOM     10  C   UNL     1       1.765   2.567   1.254  0.00  0.00    +0.035 C 
ATOM     11  C   UNL     1       3.244   2.962   1.237  0.00  0.00    +0.006 C 
ATOM     12  C   UNL     1      -0.016   1.345   0.009  0.00  0.00    +0.247 C 
ATOM     13  O   UNL     1      -0.991   2.066   0.018  0.00  0.00    -0.273 OA
ATOM     14  N   UNL     1       0.002  -0.004   0.002  0.00  0.00    -0.213 N 
ATOM     15  C   UNL     1       1.253  -0.480  -0.013  0.00  0.00    +0.310 C 
ATOM     16  O   UNL     1       1.526  -1.665  -0.021  0.00  0.00    -0.252 OA
ATOM     17  N   UNL     1       2.176   0.501  -0.016  0.00  0.00    -0.285 N 
ATOM     18  H   UNL     1       3.140   0.392  -0.026  0.00  0.00    +0.151 HD
ENDBRANCH   4  14
ENDBRANCH   2   4
ENDBRANCH   1   2
BRANCH   1  19
ATOM     19  C   UNL     1      -3.059  -2.108  -3.038  0.00  0.00    +0.288 C 
BRANCH  19  20
ATOM     20  C   UNL     1      -4.293  -2.970  -3.109  0.00  0.00    +0.088 A 
ATOM     21  C   UNL     1      -4.896  -3.412  -1.978  0.00  0.00    +0.075 A 
ATOM     22  S   UNL     1      -6.253  -4.347  -2.670  0.00  0.00    -0.060 S 
ATOM     23  C   UNL     1      -5.887  -4.071  -4.345  0.00  0.00    +0.172 A 
ATOM     24  N   UNL     1      -4.808  -3.316  -4.272  0.00  0.00    -0.226 NA
ATOM     25  N   UNL     1      -6.559  -4.528  -5.473  0.00  0.00    -0.216 N 
ATOM     26  C   UNL     1      -6.113  -4.202  -6.702  0.00  0.00    +0.223 C 
ATOM     27  O   UNL     1      -5.125  -3.509  -6.824  0.00  0.00    -0.275 OA
ATOM     28  C   UNL     1      -6.841  -4.697  -7.925  0.00  0.00    +0.110 C 
BRANCH  25  29
ATOM     29  C   UNL     1      -7.701  -5.329  -5.332  0.00  0.00    +0.078 A 
ATOM     30  C   UNL     1      -8.956  -4.743  -5.251  0.00  0.00    +0.027 A 
ATOM     31  C   UNL     1     -10.080  -5.534  -5.112  0.00  0.00    +0.002 A 
ATOM     32  C   UNL     1      -9.956  -6.910  -5.054  0.00  0.00    +0.003 A 
ATOM     33  C   UNL     1      -8.708  -7.500  -5.135  0.00  0.00    +0.040 A 
ATOM     34  C   UNL     1      -7.579  -6.713  -5.280  0.00  0.00    +0.145 A 
ATOM     35  F   UNL     1      -6.360  -7.289  -5.364  0.00  0.00    -0.204 F 
ENDBRANCH  25  29
ENDBRANCH  19  20
ENDBRANCH   1  19
TORSDOF 6
