REMARK  Name = ZINC34710961
REMARK  10 active torsions:
REMARK  status: ('A' for Active; 'I' for Inactive)
REMARK    1  A    between atoms: C_1  and  C_2
REMARK    2  A    between atoms: C_2  and  O_3
REMARK    3  A    between atoms: O_3  and  C_4
REMARK    4  A    between atoms: C_4  and  C_6
REMARK    5  A    between atoms: C_13  and  C_15
REMARK    6  A    between atoms: C_18  and  C_29
REMARK    7  A    between atoms: N_25  and  C_26
REMARK    8  A    between atoms: C_26  and  C_27
REMARK    9  A    between atoms: C_26  and  C_28
REMARK   10  A    between atoms: C_33  and  C_35
REMARK                            x       y       z     vdW  Elec       q    Type
REMARK                         _______ _______ _______ _____ _____    ______ ____
ROOT
ATOM      1  C   UNL     1       2.492  -5.759  -5.668  0.00  0.00    +0.093 C 
ATOM      2  C   UNL     1       1.623  -6.683  -6.525  0.00  0.00    +0.024 C 
ATOM      3  C   UNL     1       2.403  -7.111  -7.769  0.00  0.00    +0.037 C 
ATOM      4  C   UNL     1       3.655  -7.884  -7.342  0.00  0.00    +0.117 C 
ATOM      5  N   UNL     1       4.424  -7.056  -6.402  0.00  0.00    -0.284 N 
ATOM      6  C   UNL     1       3.745  -6.516  -5.217  0.00  0.00    +0.122 C 
ATOM      7  C   UNL     1       5.728  -6.797  -6.624  0.00  0.00    +0.302 C 
ATOM      8  O   UNL     1       6.376  -6.188  -5.795  0.00  0.00    -0.253 OA
ATOM      9  N   UNL     1       6.313  -7.213  -7.764  0.00  0.00    -0.297 N 
ATOM     10  H   UNL     1       5.817  -7.761  -8.392  0.00  0.00    +0.150 HD
ENDROOT
BRANCH   1  17
ATOM     11  C   UNL     1       1.174  -2.244  -2.797  0.00  0.00    +0.115 C 
ATOM     12  C   UNL     1       2.552  -1.592  -2.934  0.00  0.00    +0.018 C 
ATOM     13  C   UNL     1       3.265  -2.156  -4.165  0.00  0.00    +0.020 C 
ATOM     14  C   UNL     1       3.461  -3.666  -3.989  0.00  0.00    +0.108 C 
ATOM     15  N   UNL     1       2.156  -4.282  -3.713  0.00  0.00    -0.300 N 
ATOM     16  C   UNL     1       1.345  -3.755  -2.607  0.00  0.00    +0.122 C 
ATOM     17  C   UNL     1       1.711  -5.312  -4.459  0.00  0.00    +0.220 C 
ATOM     18  O   UNL     1       0.682  -5.879  -4.159  0.00  0.00    -0.275 OA
BRANCH  11  19
ATOM     19  C   UNL     1       0.460  -1.664  -1.604  0.00  0.00    +0.312 C 
ATOM     20  O   UNL     1       0.120  -2.384  -0.695  0.00  0.00    -0.250 OA
BRANCH  19  21
ATOM     21  O   UNL     1       0.200  -0.348  -1.551  0.00  0.00    -0.465 OA
BRANCH  21  23
ATOM     22  C   UNL     1      -0.686   1.644  -0.509  0.00  0.00    +0.048 C 
ATOM     23  C   UNL     1      -0.480   0.133  -0.390  0.00  0.00    +0.229 C 
ENDBRANCH  21  23
ENDBRANCH  19  21
ENDBRANCH  11  19
ENDBRANCH   1  17
BRANCH   3  24
ATOM     24  C   UNL     1       1.535  -7.994  -8.629  0.00  0.00    -0.043 A 
ATOM     25  C   UNL     1       1.035  -9.178  -8.119  0.00  0.00    +0.004 A 
ATOM     26  C   UNL     1       0.239  -9.988  -8.907  0.00  0.00    +0.001 A 
ATOM     27  C   UNL     1      -0.057  -9.614 -10.204  0.00  0.00    +0.003 A 
ATOM     28  C   UNL     1       0.442  -8.430 -10.713  0.00  0.00    -0.050 A 
ATOM     29  C   UNL     1       1.234  -7.617  -9.924  0.00  0.00    +0.007 A 
ATOM     30  C   UNL     1       0.119  -8.022 -12.128  0.00  0.00    +0.044 C 
ENDBRANCH   3  24
BRANCH   9  31
ATOM     31  C   UNL     1       7.699  -6.837  -8.056  0.00  0.00    +0.068 C 
ATOM     32  C   UNL     1       8.319  -7.869  -9.001  0.00  0.00    +0.027 C 
ATOM     33  C   UNL     1       7.725  -5.458  -8.718  0.00  0.00    +0.027 C 
ENDBRANCH   9  31
TORSDOF 6
