REMARK  Name = ZINC35815693
REMARK  17 active torsions:
REMARK  status: ('A' for Active; 'I' for Inactive)
REMARK    1  A    between atoms: C_1  and  C_2
REMARK    2  A    between atoms: C_2  and  C_3
REMARK    3  A    between atoms: C_2  and  N_4
REMARK    4  A    between atoms: C_5  and  C_7
REMARK    5  A    between atoms: C_10  and  C_12
REMARK    6  A    between atoms: C_12  and  N_13
REMARK    7  A    between atoms: N_13  and  C_14
REMARK    8  A    between atoms: N_13  and  C_29
REMARK    9  A    between atoms: C_14  and  C_15
REMARK   10  A    between atoms: C_15  and  C_16
REMARK   11  A    between atoms: C_16  and  C_17
REMARK   12  A    between atoms: C_16  and  C_23
REMARK   13  A    between atoms: C_29  and  C_30
REMARK   14  A    between atoms: C_33  and  C_36
REMARK   15  A    between atoms: C_36  and  C_37
REMARK   16  A    between atoms: C_36  and  C_38
REMARK   17  A    between atoms: C_36  and  C_39
REMARK                            x       y       z     vdW  Elec       q    Type
REMARK                         _______ _______ _______ _____ _____    ______ ____
ROOT
ATOM      1  N   UNL     1      -5.571   0.557  -0.672  0.00  0.00    +0.386 N 
ATOM      2  H   UNL     1      -5.478   0.066  -1.549  0.00  0.00    -0.081 HD
ENDROOT
BRANCH   1   3
ATOM      3  C   UNL     1      -4.885  -0.196   0.386  0.00  0.00    -0.014 C 
BRANCH   3   7
ATOM      4  C   UNL     1      -1.233  -0.141  -0.304  0.00  0.00    +0.133 A 
ATOM      5  C   UNL     1      -1.237  -1.362  -0.924  0.00  0.00    +0.079 A 
ATOM      6  S   UNL     1      -2.854  -1.808  -0.833  0.00  0.00    -0.082 S 
ATOM      7  C   UNL     1      -3.462  -0.465  -0.030  0.00  0.00    +0.063 A 
ATOM      8  N   UNL     1      -2.413   0.290   0.153  0.00  0.00    -0.241 NA
BRANCH   4  10
ATOM      9  N   UNL     1      -0.020   1.795   0.562  0.00  0.00    -0.308 N 
ATOM     10  C   UNL     1       0.000   0.648  -0.146  0.00  0.00    +0.263 C 
ATOM     11  O   UNL     1       1.037   0.266  -0.654  0.00  0.00    -0.269 OA
ATOM     12  H   UNL     1      -0.828   2.064   1.027  0.00  0.00    +0.149 HD
BRANCH   9  14
ATOM     13  C   UNL     1       0.769   4.086   0.892  0.00  0.00    +0.027 C 
ATOM     14  C   UNL     1       1.178   2.635   0.630  0.00  0.00    +0.067 C 
ATOM     15  C   UNL     1       2.080   2.147   1.765  0.00  0.00    +0.027 C 
ENDBRANCH   9  14
ENDBRANCH   4  10
ENDBRANCH   3   7
ENDBRANCH   1   3
BRANCH   1  16
ATOM     16  C   UNL     1      -6.995   0.690  -0.335  0.00  0.00    -0.077 C 
BRANCH  16  17
ATOM     17  C   UNL     1      -7.733   1.364  -1.493  0.00  0.00    -0.006 C 
BRANCH  17  18
ATOM     18  C   UNL     1      -9.215   1.503  -1.141  0.00  0.00    +0.047 C 
BRANCH  18  19
ATOM     19  C   UNL     1      -9.919   2.275  -2.227  0.00  0.00    -0.040 A 
ATOM     20  C   UNL     1     -10.685   3.380  -1.904  0.00  0.00    +0.004 A 
ATOM     21  C   UNL     1     -11.331   4.088  -2.900  0.00  0.00    +0.000 A 
ATOM     22  C   UNL     1     -11.210   3.692  -4.219  0.00  0.00    +0.000 A 
ATOM     23  C   UNL     1     -10.444   2.587  -4.542  0.00  0.00    +0.000 A 
ATOM     24  C   UNL     1      -9.795   1.882  -3.546  0.00  0.00    +0.004 A 
ENDBRANCH  18  19
BRANCH  18  25
ATOM     25  C   UNL     1      -9.832   0.133  -1.018  0.00  0.00    -0.040 A 
ATOM     26  C   UNL     1      -9.697  -0.781  -2.045  0.00  0.00    +0.004 A 
ATOM     27  C   UNL     1     -10.263  -2.037  -1.932  0.00  0.00    +0.000 A 
ATOM     28  C   UNL     1     -10.964  -2.379  -0.791  0.00  0.00    +0.000 A 
ATOM     29  C   UNL     1     -11.099  -1.464   0.237  0.00  0.00    +0.000 A 
ATOM     30  C   UNL     1     -10.529  -0.210   0.126  0.00  0.00    +0.004 A 
ENDBRANCH  18  25
ENDBRANCH  17  18
ENDBRANCH  16  17
ENDBRANCH   1  16
BRANCH   1  31
ATOM     31  C   UNL     1      -4.970   1.892  -0.793  0.00  0.00    -0.042 C 
BRANCH  31  32
ATOM     32  C   UNL     1      -5.202   2.664   0.480  0.00  0.00    -0.064 A 
ATOM     33  C   UNL     1      -6.308   3.484   0.599  0.00  0.00    +0.002 A 
ATOM     34  C   UNL     1      -6.521   4.193   1.767  0.00  0.00    +0.004 A 
ATOM     35  C   UNL     1      -5.628   4.081   2.816  0.00  0.00    -0.042 A 
ATOM     36  C   UNL     1      -4.522   3.260   2.697  0.00  0.00    +0.004 A 
ATOM     37  C   UNL     1      -4.311   2.549   1.531  0.00  0.00    +0.002 A 
BRANCH  35  38
ATOM     38  C   UNL     1      -5.860   4.854   4.088  0.00  0.00    -0.013 C 
ATOM     39  C   UNL     1      -7.148   4.367   4.754  0.00  0.00    +0.015 C 
ATOM     40  C   UNL     1      -4.681   4.637   5.039  0.00  0.00    +0.015 C 
ATOM     41  C   UNL     1      -5.985   6.344   3.764  0.00  0.00    +0.015 C 
ENDBRANCH  35  38
ENDBRANCH  31  32
ENDBRANCH   1  31
TORSDOF 12
