REMARK  Name = ZINC40850437
REMARK  9 active torsions:
REMARK  status: ('A' for Active; 'I' for Inactive)
REMARK    1  A    between atoms: C_1  and  C_2
REMARK    2  A    between atoms: C_5  and  N_9
REMARK    3  A    between atoms: C_10  and  C_12
REMARK    4  A    between atoms: C_12  and  C_13
REMARK    5  A    between atoms: C_13  and  S_14
REMARK    6  A    between atoms: S_14  and  C_15
REMARK    7  A    between atoms: C_17  and  C_28
REMARK    8  A    between atoms: C_22  and  C_27
REMARK    9  A    between atoms: C_24  and  C_26
REMARK                            x       y       z     vdW  Elec       q    Type
REMARK                         _______ _______ _______ _____ _____    ______ ____
ROOT
ATOM      1  C   UNL     1      -0.462  -9.076  -4.340  0.00  0.00    +0.103 A 
ATOM      2  C   UNL     1      -0.570 -10.410  -4.736  0.00  0.00    +0.063 A 
ATOM      3  C   UNL     1      -0.654 -10.691  -6.096  0.00  0.00    +0.077 A 
ATOM      4  N   UNL     1      -0.628  -9.682  -6.969  0.00  0.00    -0.211 NA
ATOM      5  C   UNL     1      -0.524  -8.431  -6.555  0.00  0.00    +0.253 A 
ATOM      6  N   UNL     1      -0.448  -8.125  -5.270  0.00  0.00    -0.204 NA
ATOM      7  N   UNL     1      -0.500  -7.405  -7.499  0.00  0.00    -0.202 N 
ATOM      8  C   UNL     1      -0.393  -6.076  -7.235  0.00  0.00    +0.045 A 
ATOM      9  C   UNL     1      -0.406  -5.421  -8.418  0.00  0.00    +0.048 A 
ATOM     10  C   UNL     1      -0.525  -6.374  -9.438  0.00  0.00    +0.061 A 
ATOM     11  N   UNL     1      -0.576  -7.560  -8.890  0.00  0.00    -0.169 NA
ATOM     12  C   UNL     1      -0.579  -6.082 -10.915  0.00  0.00    +0.067 C 
ATOM     13  C   UNL     1      -0.279  -5.446  -5.871  0.00  0.00    +0.066 C 
ENDROOT
BRANCH   3  14
ATOM     14  C   UNL     1      -0.771 -12.092  -6.570  0.00  0.00    +0.001 A 
ATOM     15  C   UNL     1      -0.802 -13.140  -5.652  0.00  0.00    +0.010 A 
ATOM     16  C   UNL     1      -0.911 -14.441  -6.098  0.00  0.00    +0.001 A 
ATOM     17  C   UNL     1      -0.988 -14.707  -7.453  0.00  0.00    +0.000 A 
ATOM     18  C   UNL     1      -0.957 -13.671  -8.369  0.00  0.00    +0.001 A 
ATOM     19  C   UNL     1      -0.854 -12.365  -7.934  0.00  0.00    +0.010 A 
ENDBRANCH   3  14
BRANCH   1  20
ATOM     20  S   UNL     1      -0.351  -8.657  -2.632  0.00  0.00    -0.105 S 
BRANCH  20  21
ATOM     21  C   UNL     1      -0.238  -6.847  -2.631  0.00  0.00    +0.085 C 
BRANCH  21  22
ATOM     22  C   UNL     1      -0.136  -6.343  -1.190  0.00  0.00    +0.107 C 
BRANCH  22  24
ATOM     23  N   UNL     1       0.057  -4.171  -0.023  0.00  0.00    -0.285 N 
ATOM     24  C   UNL     1      -0.042  -4.839  -1.189  0.00  0.00    +0.218 C 
ATOM     25  O   UNL     1      -0.055  -4.230  -2.238  0.00  0.00    -0.275 OA
ATOM     26  H   UNL     1       0.149  -4.660   0.810  0.00  0.00    +0.155 HD
BRANCH  23  31
ATOM     27  C   UNL     1      -0.063   1.502   0.016  0.00  0.00    +0.044 C 
ATOM     28  C   UNL     1      -0.031  -0.005   0.006  0.00  0.00    -0.049 A 
ATOM     29  C   UNL     1      -0.622  -0.701  -1.033  0.00  0.00    +0.005 A 
ATOM     30  C   UNL     1      -0.594  -2.081  -1.045  0.00  0.00    +0.024 A 
ATOM     31  C   UNL     1       0.028  -2.771  -0.013  0.00  0.00    +0.047 A 
ATOM     32  C   UNL     1       0.621  -2.070   1.029  0.00  0.00    +0.039 A 
ATOM     33  C   UNL     1       0.595  -0.688   1.032  0.00  0.00    +0.020 A 
ATOM     34 BR   UNL     1       1.470  -3.004   2.437  0.00  0.00    -0.048 Br
ENDBRANCH  23  31
ENDBRANCH  22  24
ENDBRANCH  21  22
ENDBRANCH  20  21
ENDBRANCH   1  20
TORSDOF 6
