REMARK  Name = ZINC35867815
REMARK  6 active torsions:
REMARK  status: ('A' for Active; 'I' for Inactive)
REMARK    1  A    between atoms: C_1  and  C_2
REMARK    2  A    between atoms: C_2  and  C_3
REMARK    3  A    between atoms: C_3  and  C_5
REMARK    4  A    between atoms: C_3  and  C_6
REMARK    5  A    between atoms: N_22  and  S_25
REMARK    6  A    between atoms: S_25  and  C_28
REMARK                            x       y       z     vdW  Elec       q    Type
REMARK                         _______ _______ _______ _____ _____    ______ ____
ROOT
ATOM      1  C   UNL     1      -1.424  -2.037   0.122  0.00  0.00    +0.135 A 
ATOM      2  N   UNL     1      -2.016  -2.613   1.153  0.00  0.00    -0.216 NA
ATOM      3  C   UNL     1      -2.024  -3.926   1.318  0.00  0.00    +0.133 A 
ATOM      4  C   UNL     1      -1.373  -4.748   0.356  0.00  0.00    +0.051 A 
ATOM      5  C   UNL     1      -1.251  -6.207   0.329  0.00  0.00    -0.025 A 
ATOM      6  C   UNL     1      -0.577  -6.745  -0.707  0.00  0.00    -0.004 A 
ATOM      7  S   UNL     1      -0.070  -5.365  -1.697  0.00  0.00    -0.073 S 
ATOM      8  C   UNL     1      -0.765  -4.062  -0.714  0.00  0.00    +0.114 A 
ATOM      9  N   UNL     1      -0.810  -2.747  -0.804  0.00  0.00    -0.224 NA
ATOM     10  C   UNL     1      -0.314  -8.198  -0.962  0.00  0.00    +0.043 C 
ATOM     11  C   UNL     1      -0.605  -8.977   0.329  0.00  0.00    +0.005 C 
ATOM     12  C   UNL     1      -1.960  -8.524   0.880  0.00  0.00    +0.005 C 
ATOM     13  C   UNL     1      -1.852  -7.096   1.415  0.00  0.00    +0.037 C 
ATOM     14  N   UNL     1      -2.655  -4.492   2.411  0.00  0.00    -0.312 N 
ATOM     15  C   UNL     1      -1.895  -4.827   3.623  0.00  0.00    +0.123 C 
ATOM     16  C   UNL     1      -2.552  -4.131   4.822  0.00  0.00    +0.128 C 
ATOM     17  N   UNL     1      -3.995  -4.407   4.792  0.00  0.00    -0.174 NA
ATOM     18  C   UNL     1      -4.755  -4.072   3.579  0.00  0.00    +0.128 C 
ATOM     19  C   UNL     1      -4.099  -4.762   2.383  0.00  0.00    +0.123 C 
ENDROOT
BRANCH  17  20
ATOM     20  S   UNL     1      -4.751  -5.084   6.100  0.00  0.00    +0.063 S 
ATOM     21  O   UNL     1      -5.921  -5.723   5.608  0.00  0.00    -0.153 OA
ATOM     22  O   UNL     1      -3.751  -5.782   6.831  0.00  0.00    -0.153 OA
BRANCH  20  23
ATOM     23  C   UNL     1      -5.295  -3.761   7.130  0.00  0.00    +0.131 A 
ATOM     24  C   UNL     1      -6.625  -3.555   7.331  0.00  0.00    +0.031 A 
ATOM     25  C   UNL     1      -7.077  -2.515   8.141  0.00  0.00    +0.003 A 
ATOM     26  C   UNL     1      -6.199  -1.675   8.754  0.00  0.00    +0.010 A 
ATOM     27  C   UNL     1      -4.819  -1.858   8.569  0.00  0.00    +0.002 A 
ATOM     28  C   UNL     1      -4.357  -2.918   7.750  0.00  0.00    +0.097 A 
ATOM     29  N   UNL     1      -3.044  -3.099   7.574  0.00  0.00    -0.253 NA
ATOM     30  C   UNL     1      -2.165  -2.316   8.150  0.00  0.00    +0.111 A 
ATOM     31  C   UNL     1      -2.552  -1.259   8.972  0.00  0.00    +0.020 A 
ATOM     32  C   UNL     1      -3.878  -1.011   9.185  0.00  0.00    +0.011 A 
ENDBRANCH  20  23
ENDBRANCH  17  20
BRANCH   1  33
ATOM     33  C   UNL     1      -1.455  -0.535  -0.000  0.00  0.00    +0.054 C 
ATOM     34  C   UNL     1      -2.154  -0.144  -1.303  0.00  0.00    +0.015 C 
BRANCH  33  36
ATOM     35  C   UNL     1      -0.056   1.535  -0.006  0.00  0.00    +0.004 C 
ATOM     36  C   UNL     1      -0.023   0.006  -0.008  0.00  0.00    +0.007 C 
ENDBRANCH  33  36
ENDBRANCH   1  33
TORSDOF 4
