REMARK  Name = ZINC13052499
REMARK  11 active torsions:
REMARK  status: ('A' for Active; 'I' for Inactive)
REMARK    1  A    between atoms: C_1  and  C_2
REMARK    2  A    between atoms: C_2  and  C_4
REMARK    3  A    between atoms: C_2  and  O_34
REMARK    4  A    between atoms: C_4  and  N_5
REMARK    5  A    between atoms: C_11  and  C_32
REMARK    6  A    between atoms: C_15  and  S_16
REMARK    7  A    between atoms: S_16  and  C_17
REMARK    8  A    between atoms: C_17  and  C_19
REMARK    9  A    between atoms: C_17  and  C_20
REMARK   10  A    between atoms: N_22  and  C_23
REMARK   11  A    between atoms: N_22  and  C_24
REMARK                            x       y       z     vdW  Elec       q    Type
REMARK                         _______ _______ _______ _____ _____    ______ ____
ROOT
ATOM      1  N   UNL     1      -4.375   1.570  -0.478  0.00  0.00    -0.285 N 
ATOM      2  C   UNL     1      -4.915   2.195  -1.550  0.00  0.00    +0.262 A 
ATOM      3  O   UNL     1      -6.076   2.013  -1.867  0.00  0.00    -0.267 OA
ATOM      4  C   UNL     1      -4.045   3.096  -2.322  0.00  0.00    +0.065 A 
ATOM      5  C   UNL     1      -4.511   3.778  -3.446  0.00  0.00    +0.016 A 
ATOM      6  C   UNL     1      -3.673   4.605  -4.136  0.00  0.00    +0.016 A 
ATOM      7  C   UNL     1      -2.344   4.777  -3.726  0.00  0.00    +0.065 A 
ATOM      8  C   UNL     1      -1.859   4.108  -2.610  0.00  0.00    +0.043 A 
ATOM      9  C   UNL     1      -2.708   3.258  -1.896  0.00  0.00    +0.080 A 
ATOM     10  N   UNL     1      -2.278   2.586  -0.802  0.00  0.00    -0.223 NA
ATOM     11  C   UNL     1      -3.072   1.788  -0.131  0.00  0.00    +0.173 A 
ENDROOT
BRANCH   7  12
ATOM     12  C   UNL     1      -1.451   5.678  -4.488  0.00  0.00    +0.387 C 
ATOM     13  O   UNL     1      -0.299   5.831  -4.137  0.00  0.00    -0.241 OA
ATOM     14  O   UNL     1      -1.917   6.330  -5.571  0.00  0.00    -0.241 OA
ENDBRANCH   7  12
BRANCH   1  15
ATOM     15  C   UNL     1      -5.196   0.658   0.322  0.00  0.00    +0.158 C 
BRANCH  15  17
ATOM     16  C   UNL     1      -6.747   0.488   2.273  0.00  0.00    +0.039 C 
ATOM     17  C   UNL     1      -5.889   1.441   1.438  0.00  0.00    +0.131 C 
BRANCH  17  18
ATOM     18  O   UNL     1      -4.904   2.051   2.275  0.00  0.00    -0.390 OA
ATOM     19  H   UNL     1      -4.303   1.422   2.697  0.00  0.00    +0.210 HD
ENDBRANCH  17  18
ENDBRANCH  15  17
ENDBRANCH   1  15
BRANCH  11  20
ATOM     20  S   UNL     1      -2.427   0.953   1.280  0.00  0.00    -0.075 S 
BRANCH  20  21
ATOM     21  C   UNL     1      -0.729   1.579   1.267  0.00  0.00    +0.137 C 
ATOM     22  C   UNL     1      -0.013   1.086   0.008  0.00  0.00    +0.029 C 
BRANCH  21  23
ATOM     23  C   UNL     1       0.000   1.080   2.488  0.00  0.00    +0.229 C 
ATOM     24  O   UNL     1      -0.360   0.059   3.034  0.00  0.00    -0.274 OA
ATOM     25  N   UNL     1       1.052   1.768   2.973  0.00  0.00    -0.299 N 
ATOM     26  C   UNL     1       1.487   3.002   2.313  0.00  0.00    +0.132 C 
BRANCH  25  27
ATOM     27  C   UNL     1       1.761   1.283   4.160  0.00  0.00    +0.098 C 
ATOM     28  C   UNL     1       1.718   2.353   5.263  0.00  0.00    +0.046 C 
ATOM     29  C   UNL     1       2.721   1.993   6.386  0.00  0.00    +0.168 C 
ATOM     30  S   UNL     1       4.004   1.029   5.488  0.00  0.00    -0.029 S 
ATOM     31  O   UNL     1       4.029  -0.297   5.999  0.00  0.00    -0.174 OA
ATOM     32  O   UNL     1       5.207   1.785   5.447  0.00  0.00    -0.174 OA
ATOM     33  C   UNL     1       3.251   1.010   3.807  0.00  0.00    +0.188 C 
ENDBRANCH  25  27
ENDBRANCH  21  23
ENDBRANCH  20  21
ENDBRANCH  11  20
TORSDOF 8
