REMARK  Name = ZINC61460253
REMARK  6 active torsions:
REMARK  status: ('A' for Active; 'I' for Inactive)
REMARK    1  A    between atoms: C_1  and  C_2
REMARK    2  A    between atoms: N_4  and  C_5
REMARK    3  A    between atoms: C_5  and  C_13
REMARK    4  A    between atoms: C_6  and  C_7
REMARK    5  A    between atoms: N_15  and  C_16
REMARK    6  A    between atoms: C_20  and  C_22
REMARK                            x       y       z     vdW  Elec       q    Type
REMARK                         _______ _______ _______ _____ _____    ______ ____
ROOT
ATOM      1  C   UNL     1      -0.416  -2.937  -0.128  0.00  0.00    +0.262 C 
ATOM      2  O   UNL     1      -1.224  -3.834   0.028  0.00  0.00    -0.268 OA
ATOM      3  N   UNL     1       0.473  -2.654   0.845  0.00  0.00    -0.280 N 
ATOM      4  H   UNL     1       1.050  -1.879   0.764  0.00  0.00    +0.155 HD
ENDROOT
BRANCH   3   5
ATOM      5  C   UNL     1       0.562  -3.478   1.971  0.00  0.00    +0.034 A 
ATOM      6  C   UNL     1       0.340  -4.845   1.852  0.00  0.00    +0.023 A 
ATOM      7  C   UNL     1       0.427  -5.663   2.963  0.00  0.00    +0.002 A 
ATOM      8  C   UNL     1       0.736  -5.127   4.197  0.00  0.00    +0.010 A 
ATOM      9  C   UNL     1       0.961  -3.757   4.326  0.00  0.00    +0.004 A 
ATOM     10  C   UNL     1       0.878  -2.933   3.207  0.00  0.00    +0.033 A 
BRANCH   9  11
ATOM     11  C   UNL     1       1.292  -3.179   5.652  0.00  0.00    +0.091 A 
ATOM     12  C   UNL     1       1.386  -4.022   6.784  0.00  0.00    +0.035 A 
ATOM     13  C   UNL     1       1.692  -3.456   7.986  0.00  0.00    +0.073 A 
ATOM     14  C   UNL     1       1.898  -2.059   8.026  0.00  0.00    +0.265 A 
ATOM     15  O   UNL     1       2.175  -1.508   9.080  0.00  0.00    -0.266 OA
ATOM     16  N   UNL     1       1.786  -1.340   6.894  0.00  0.00    -0.243 N 
ATOM     17  H   UNL     1       1.929  -0.381   6.928  0.00  0.00    +0.192 HD
ATOM     18  N   UNL     1       1.502  -1.889   5.769  0.00  0.00    -0.171 NA
ENDBRANCH   9  11
ENDBRANCH   3   5
BRANCH   1  19
ATOM     19  C   UNL     1      -0.409  -2.163  -1.377  0.00  0.00    +0.097 C 
ATOM     20  C   UNL     1      -1.373  -2.367  -2.305  0.00  0.00    +0.036 C 
BRANCH  20  21
ATOM     21  C   UNL     1      -1.277  -1.716  -3.620  0.00  0.00    -0.023 A 
ATOM     22  C   UNL     1      -0.064  -1.162  -4.043  0.00  0.00    +0.008 A 
ATOM     23  C   UNL     1       0.018  -0.553  -5.278  0.00  0.00    +0.001 A 
ATOM     24  C   UNL     1      -1.096  -0.491  -6.098  0.00  0.00    +0.000 A 
ATOM     25  C   UNL     1      -2.299  -1.037  -5.687  0.00  0.00    +0.001 A 
ATOM     26  C   UNL     1      -2.396  -1.654  -4.457  0.00  0.00    +0.008 A 
ENDBRANCH  20  21
BRANCH  19  30
ATOM     27  C   UNL     1       2.966  -0.583  -1.902  0.00  0.00    +0.109 C 
ATOM     28  C   UNL     1       1.889  -1.578  -1.552  0.00  0.00    +0.214 C 
ATOM     29  O   UNL     1       2.190  -2.706  -1.222  0.00  0.00    -0.276 OA
ATOM     30  N   UNL     1       0.593  -1.215  -1.606  0.00  0.00    -0.282 N 
ATOM     31  H   UNL     1       0.354  -0.295  -1.805  0.00  0.00    +0.155 HD
ENDBRANCH  19  30
ENDBRANCH   1  19
TORSDOF 5
