REMARK  Name = ZINC42016651
REMARK  5 active torsions:
REMARK  status: ('A' for Active; 'I' for Inactive)
REMARK    1  A    between atoms: C_1  and  C_2
REMARK    2  A    between atoms: C_7  and  N_12
REMARK    3  A    between atoms: C_9  and  C_11
REMARK    4  A    between atoms: C_13  and  C_17
REMARK    5  A    between atoms: C_22  and  N_23
REMARK                            x       y       z     vdW  Elec       q    Type
REMARK                         _______ _______ _______ _____ _____    ______ ____
ROOT
ATOM      1  N   UNL     1       0.704  -0.500   3.707  0.00  0.00    -0.222 N 
ATOM      2  C   UNL     1       1.377   0.239   4.624  0.00  0.00    +0.184 A 
ATOM      3  N   UNL     1       1.899  -0.604   5.491  0.00  0.00    -0.108 NA
ATOM      4  N   UNL     1       1.599  -1.813   5.179  0.00  0.00    -0.023 NA
ATOM      5  N   UNL     1       0.873  -1.835   4.114  0.00  0.00    -0.043 NA
ENDROOT
BRANCH   1  11
ATOM      6  C   UNL     1      -0.117   1.312  -0.067  0.00  0.00    +0.008 C 
ATOM      7  C   UNL     1      -0.314  -0.199   0.069  0.00  0.00    -0.009 C 
ATOM      8  C   UNL     1      -1.802  -0.504   0.255  0.00  0.00    +0.004 C 
ATOM      9  C   UNL     1      -2.312   0.192   1.518  0.00  0.00    +0.002 C 
ATOM     10  C   UNL     1      -1.531  -0.317   2.731  0.00  0.00    +0.027 C 
ATOM     11  C   UNL     1      -0.043  -0.012   2.545  0.00  0.00    +0.114 C 
ATOM     12  C   UNL     1       0.466  -0.709   1.282  0.00  0.00    +0.013 C 
ATOM     13  C   UNL     1       1.954  -0.403   1.096  0.00  0.00    +0.010 C 
ENDBRANCH   1  11
BRANCH   2  14
ATOM     14  C   UNL     1       1.501   1.712   4.646  0.00  0.00    +0.044 A 
ATOM     15  C   UNL     1       0.369   2.513   4.494  0.00  0.00    +0.051 A 
ATOM     16  C   UNL     1       0.491   3.889   4.516  0.00  0.00    +0.124 A 
ATOM     17  C   UNL     1       1.735   4.477   4.686  0.00  0.00    +0.040 A 
ATOM     18  C   UNL     1       2.863   3.694   4.837  0.00  0.00    +0.026 A 
ATOM     19  C   UNL     1       2.756   2.310   4.824  0.00  0.00    +0.036 A 
ATOM     20  F   UNL     1      -0.605   4.664   4.369  0.00  0.00    -0.205 F 
BRANCH  19  21
ATOM     21  N   UNL     1       3.893   1.519   4.982  0.00  0.00    -0.357 N 
ATOM     22  H   UNL     1       3.816   0.552   4.969  0.00  0.00    +0.142 HD
ATOM     23  H   UNL     1       4.760   1.935   5.106  0.00  0.00    +0.142 HD
ENDBRANCH  19  21
ENDBRANCH   2  14
TORSDOF 3
