REMARK  Name = ZINC11912226
REMARK  9 active torsions:
REMARK  status: ('A' for Active; 'I' for Inactive)
REMARK    1  A    between atoms: C_1  and  C_2
REMARK    2  A    between atoms: C_3  and  C_10
REMARK    3  A    between atoms: C_10  and  N_70
REMARK    4  A    between atoms: C_17  and  C_19
REMARK    5  A    between atoms: N_21  and  C_22
REMARK    6  A    between atoms: C_22  and  C_23
REMARK    7  A    between atoms: C_23  and  C_24
REMARK    8  A    between atoms: C_24  and  C_25
REMARK    9  A    between atoms: C_24  and  C_31
REMARK                            x       y       z     vdW  Elec       q    Type
REMARK                         _______ _______ _______ _____ _____    ______ ____
ROOT
ATOM      1  C   UNL     1      -1.193  -4.051  -1.292  0.00  0.00    -0.078 C 
ATOM      2  C   UNL     1      -1.648  -3.057  -0.217  0.00  0.00    -0.011 C 
ATOM      3  C   UNL     1      -1.160  -1.658  -0.607  0.00  0.00    -0.021 C 
ATOM      4  C   UNL     1       0.333  -1.569  -0.938  0.00  0.00    -0.011 C 
ATOM      5  C   UNL     1       0.671  -2.650  -1.970  0.00  0.00    -0.078 C 
ATOM      6  C   UNL     1      -2.118  -0.762  -1.389  0.00  0.00    +0.020 C 
ATOM      7  C   UNL     1      -1.812  -0.459   0.079  0.00  0.00    +0.082 C 
ATOM      8  N   UNL     1       0.278  -3.969  -1.425  0.00  0.00    +0.383 N 
ATOM      9  H   UNL     1       0.702  -4.085  -0.498  0.00  0.00    -0.081 HD
ENDROOT
BRANCH   7  10
ATOM     10  C   UNL     1      -2.896  -0.739   1.088  0.00  0.00    +0.217 C 
ATOM     11  O   UNL     1      -3.220  -1.883   1.329  0.00  0.00    -0.275 OA
ATOM     12  N   UNL     1      -3.505   0.282   1.724  0.00  0.00    -0.315 N 
ATOM     13  H   UNL     1      -3.245   1.197   1.531  0.00  0.00    +0.149 HD
BRANCH  12  14
ATOM     14  C   UNL     1      -4.558   0.010   2.705  0.00  0.00    +0.105 C 
BRANCH  14  15
ATOM     15  C   UNL     1      -5.079   1.331   3.274  0.00  0.00    +0.031 C 
BRANCH  15  16
ATOM     16  C   UNL     1      -6.179   1.048   4.298  0.00  0.00    +0.050 C 
BRANCH  16  17
ATOM     17  C   UNL     1      -5.592   0.311   5.474  0.00  0.00    -0.040 A 
ATOM     18  C   UNL     1      -6.170  -0.867   5.910  0.00  0.00    +0.004 A 
ATOM     19  C   UNL     1      -5.629  -1.546   6.986  0.00  0.00    +0.000 A 
ATOM     20  C   UNL     1      -4.516  -1.041   7.633  0.00  0.00    +0.000 A 
ATOM     21  C   UNL     1      -3.941   0.139   7.200  0.00  0.00    +0.000 A 
ATOM     22  C   UNL     1      -4.480   0.815   6.121  0.00  0.00    +0.004 A 
ENDBRANCH  16  17
BRANCH  16  23
ATOM     23  C   UNL     1      -6.776   2.349   4.768  0.00  0.00    -0.040 A 
ATOM     24  C   UNL     1      -5.955   3.356   5.240  0.00  0.00    +0.004 A 
ATOM     25  C   UNL     1      -6.502   4.551   5.667  0.00  0.00    +0.000 A 
ATOM     26  C   UNL     1      -7.872   4.736   5.630  0.00  0.00    +0.000 A 
ATOM     27  C   UNL     1      -8.693   3.728   5.162  0.00  0.00    +0.000 A 
ATOM     28  C   UNL     1      -8.146   2.534   4.732  0.00  0.00    +0.004 A 
ENDBRANCH  16  23
ENDBRANCH  15  16
ENDBRANCH  14  15
ENDBRANCH  12  14
ENDBRANCH   7  10
BRANCH   8  29
ATOM     29  C   UNL     1       0.764  -5.045  -2.313  0.00  0.00    -0.022 C 
BRANCH  29  32
ATOM     30  C   UNL     1       2.694  -3.486  -4.194  0.00  0.00    +0.067 C 
ATOM     31  C   UNL     1       3.104  -4.401  -3.070  0.00  0.00    +0.059 A 
ATOM     32  C   UNL     1       2.270  -5.073  -2.259  0.00  0.00    +0.030 A 
ATOM     33  N   UNL     1       3.046  -5.795  -1.356  0.00  0.00    -0.299 N 
ATOM     34  C   UNL     1       2.858  -6.665  -0.305  0.00  0.00    +0.100 A 
ATOM     35  C   UNL     1       3.898  -7.186   0.344  0.00  0.00    +0.067 A 
ATOM     36  S   UNL     1       5.278  -6.458  -0.527  0.00  0.00    -0.058 S 
ATOM     37  C   UNL     1       4.340  -5.508  -1.700  0.00  0.00    +0.178 A 
ATOM     38  N   UNL     1       4.365  -4.684  -2.708  0.00  0.00    -0.226 NA
ENDBRANCH  29  32
ENDBRANCH   8  29
TORSDOF 8
