REMARK  Name = ZINC36027301
REMARK  10 active torsions:
REMARK  status: ('A' for Active; 'I' for Inactive)
REMARK    1  A    between atoms: C_1  and  C_2
REMARK    2  A    between atoms: C_2  and  C_3
REMARK    3  A    between atoms: C_3  and  C_5
REMARK    4  A    between atoms: C_3  and  N_6
REMARK    5  A    between atoms: C_9  and  C_29
REMARK    6  A    between atoms: N_15  and  S_18
REMARK    7  A    between atoms: S_18  and  C_21
REMARK    8  A    between atoms: C_24  and  O_27
REMARK    9  A    between atoms: O_27  and  C_28
REMARK   10  A    between atoms: C_29  and  C_30
REMARK                            x       y       z     vdW  Elec       q    Type
REMARK                         _______ _______ _______ _____ _____    ______ ____
ROOT
ATOM      1  N   UNL     1      -2.171  -0.255  -1.092  0.00  0.00    -0.311 N 
ATOM      2  C   UNL     1      -1.902  -0.787  -2.303  0.00  0.00    +0.201 C 
ATOM      3  O   UNL     1      -1.008  -1.568  -2.551  0.00  0.00    -0.277 OA
ATOM      4  C   UNL     1      -2.905  -0.246  -3.298  0.00  0.00    +0.023 C 
ATOM      5  N   UNL     1      -4.001   0.309  -2.467  0.00  0.00    +0.401 N 
ATOM      6  C   UNL     1      -3.326   0.641  -1.197  0.00  0.00    +0.006 C 
ATOM      7  C   UNL     1      -2.865   2.097  -1.229  0.00  0.00    +0.023 C 
ATOM      8  C   UNL     1      -2.131   2.426   0.076  0.00  0.00    +0.109 C 
ATOM      9  N   UNL     1      -3.005   2.085   1.208  0.00  0.00    -0.177 NA
ATOM     10  C   UNL     1      -3.560   0.727   1.287  0.00  0.00    +0.109 C 
ATOM     11  C   UNL     1      -4.281   0.411  -0.028  0.00  0.00    +0.023 C 
ATOM     12  H   UNL     1      -4.388   1.137  -2.895  0.00  0.00    -0.082 HD
ATOM     13  H   UNL     1      -4.719  -0.384  -2.314  0.00  0.00    -0.082 HD
ENDROOT
BRANCH   9  14
ATOM     14  S   UNL     1      -3.355   3.209   2.371  0.00  0.00    +0.061 S 
ATOM     15  O   UNL     1      -3.706   2.485   3.543  0.00  0.00    -0.153 OA
ATOM     16  O   UNL     1      -2.298   4.159   2.350  0.00  0.00    -0.153 OA
BRANCH  14  17
ATOM     17  C   UNL     1      -4.808   4.061   1.852  0.00  0.00    +0.106 A 
ATOM     18  C   UNL     1      -4.700   5.196   1.070  0.00  0.00    +0.032 A 
ATOM     19  C   UNL     1      -5.837   5.866   0.662  0.00  0.00    +0.047 A 
ATOM     20  C   UNL     1      -7.088   5.398   1.037  0.00  0.00    +0.120 A 
ATOM     21  C   UNL     1      -7.194   4.258   1.821  0.00  0.00    +0.047 A 
ATOM     22  C   UNL     1      -6.054   3.589   2.223  0.00  0.00    +0.032 A 
BRANCH  20  23
ATOM     23  O   UNL     1      -8.209   6.056   0.638  0.00  0.00    -0.495 OA
ATOM     24  C   UNL     1      -9.463   5.517   1.061  0.00  0.00    +0.277 C 
ENDBRANCH  20  23
ENDBRANCH  14  17
ENDBRANCH   9  14
BRANCH   1  25
ATOM     25  C   UNL     1      -1.427  -0.534   0.139  0.00  0.00    +0.071 C 
ATOM     26  C   UNL     1      -1.993  -1.791   0.803  0.00  0.00    +0.028 C 
BRANCH  25  28
ATOM     27  C   UNL     1       0.639   0.531  -0.780  0.00  0.00    +0.005 C 
ATOM     28  C   UNL     1       0.050  -0.756  -0.197  0.00  0.00    +0.019 C 
ENDBRANCH  25  28
ENDBRANCH   1  25
BRANCH   4  29
ATOM     29  C   UNL     1      -3.429  -1.373  -4.191  0.00  0.00    +0.028 C 
BRANCH  29  30
ATOM     30  C   UNL     1      -4.359  -0.799  -5.230  0.00  0.00    -0.048 A 
ATOM     31  C   UNL     1      -5.711  -0.689  -4.962  0.00  0.00    +0.003 A 
ATOM     32  C   UNL     1      -6.563  -0.163  -5.914  0.00  0.00    +0.000 A 
ATOM     33  C   UNL     1      -6.064   0.254  -7.134  0.00  0.00    +0.000 A 
ATOM     34  C   UNL     1      -4.713   0.144  -7.402  0.00  0.00    +0.000 A 
ATOM     35  C   UNL     1      -3.859  -0.378  -6.448  0.00  0.00    +0.003 A 
ENDBRANCH  29  30
ENDBRANCH   4  29
TORSDOF 7
