REMARK  Name = ZINC33919168
REMARK  9 active torsions:
REMARK  status: ('A' for Active; 'I' for Inactive)
REMARK    1  A    between atoms: C_1  and  O_2
REMARK    2  A    between atoms: O_2  and  C_3
REMARK    3  A    between atoms: C_5  and  C_12
REMARK    4  A    between atoms: C_8  and  O_9
REMARK    5  A    between atoms: O_9  and  C_10
REMARK    6  A    between atoms: N_20  and  C_23
REMARK    7  A    between atoms: C_29  and  C_31
REMARK    8  A    between atoms: C_29  and  C_33
REMARK    9  A    between atoms: C_31  and  O_32
REMARK                            x       y       z     vdW  Elec       q    Type
REMARK                         _______ _______ _______ _____ _____    ______ ____
ROOT
ATOM      1  C   UNL     1       2.401   0.380  -4.231  0.00  0.00    -0.026 C 
ATOM      2  C   UNL     1       1.535   0.334  -5.478  0.00  0.00    +0.077 C 
ATOM      3  C   UNL     1       2.122  -0.980  -6.122  0.00  0.00    +0.088 C 
ATOM      4  C   UNL     1       1.108  -1.309  -7.092  0.00  0.00    +0.225 C 
ATOM      5  O   UNL     1       1.266  -1.825  -8.177  0.00  0.00    -0.275 OA
ATOM      6  N   UNL     1      -0.075  -0.911  -6.521  0.00  0.00    -0.239 N 
ATOM      7  C   UNL     1       0.104  -0.102  -5.420  0.00  0.00    +0.225 C 
ATOM      8  O   UNL     1      -0.716   0.192  -4.578  0.00  0.00    -0.275 OA
ATOM      9  C   UNL     1       3.572  -0.737  -6.042  0.00  0.00    +0.071 C 
ATOM     10  N   UNL     1       3.721  -0.190  -4.636  0.00  0.00    +0.397 N 
ATOM     11  H   UNL     1       4.424   0.535  -4.629  0.00  0.00    -0.083 HD
ATOM     12  H   UNL     1       3.984  -0.928  -4.001  0.00  0.00    -0.083 HD
ENDROOT
BRANCH   1  15
ATOM     13  C   UNL     1       0.431  -0.624  -1.167  0.00  0.00    +0.163 A 
ATOM     14  C   UNL     1       0.999   0.143  -2.173  0.00  0.00    +0.051 A 
ATOM     15  C   UNL     1       1.786  -0.455  -3.138  0.00  0.00    -0.056 A 
ATOM     16  C   UNL     1       2.011  -1.819  -3.103  0.00  0.00    +0.021 A 
ATOM     17  C   UNL     1       1.448  -2.590  -2.103  0.00  0.00    +0.063 A 
ATOM     18  C   UNL     1       0.662  -1.995  -1.128  0.00  0.00    +0.175 A 
ATOM     19 BR   UNL     1       1.756  -4.456  -2.060  0.00  0.00    -0.046 Br
BRANCH  13  21
ATOM     20  C   UNL     1      -0.537   1.376  -0.320  0.00  0.00    +0.277 C 
ATOM     21  O   UNL     1      -0.344  -0.036  -0.217  0.00  0.00    -0.491 OA
ENDBRANCH  13  21
BRANCH  18  22
ATOM     22  O   UNL     1       0.112  -2.751  -0.140  0.00  0.00    -0.490 OA
ATOM     23  C   UNL     1      -1.181  -3.305  -0.390  0.00  0.00    +0.277 C 
ENDBRANCH  18  22
ENDBRANCH   1  15
BRANCH   6  24
ATOM     24  C   UNL     1      -1.393  -1.295  -7.032  0.00  0.00    +0.084 C 
ATOM     25  C   UNL     1      -2.155  -2.066  -5.952  0.00  0.00    +0.023 C 
ATOM     26  C   UNL     1      -3.531  -2.467  -6.487  0.00  0.00    +0.002 C 
ATOM     27  C   UNL     1      -4.317  -1.211  -6.867  0.00  0.00    +0.000 C 
ATOM     28  C   UNL     1      -3.555  -0.440  -7.947  0.00  0.00    +0.002 C 
ATOM     29  C   UNL     1      -2.179  -0.039  -7.412  0.00  0.00    +0.023 C 
ENDBRANCH   6  24
BRANCH   9  30
ATOM     30  C   UNL     1       4.005   0.270  -7.076  0.00  0.00    +0.348 C 
ATOM     31  O   UNL     1       4.532   1.313  -6.728  0.00  0.00    -0.248 OA
ATOM     32  O   UNL     1       3.828   0.042  -8.260  0.00  0.00    -0.248 OA
ENDBRANCH   9  30
BRANCH   9  33
ATOM     33  C   UNL     1       4.352  -2.044  -6.194  0.00  0.00    +0.155 C 
BRANCH  33  34
ATOM     34  O   UNL     1       5.745  -1.794  -5.996  0.00  0.00    -0.396 OA
ATOM     35  H   UNL     1       6.301  -2.581  -6.078  0.00  0.00    +0.209 HD
ENDBRANCH  33  34
ENDBRANCH   9  33
TORSDOF 7
