REMARK  Name = ZINC16189440
REMARK  5 active torsions:
REMARK  status: ('A' for Active; 'I' for Inactive)
REMARK    1  A    between atoms: C_1  and  N_2
REMARK    2  A    between atoms: C_5  and  C_20
REMARK    3  A    between atoms: N_9  and  C_10
REMARK    4  A    between atoms: C_20  and  C_21
REMARK    5  A    between atoms: N_23  and  C_24
REMARK                            x       y       z     vdW  Elec       q    Type
REMARK                         _______ _______ _______ _____ _____    ______ ____
ROOT
ATOM      1  C   UNL     1      -2.314   5.781   0.025  0.00  0.00    +0.140 C 
ATOM      2  N   UNL     1      -0.947   6.308   0.021  0.00  0.00    -0.253 N 
ATOM      3  C   UNL     1      -0.763   7.603   0.217  0.00  0.00    +0.235 C 
ATOM      4  O   UNL     1      -1.688   8.365   0.401  0.00  0.00    -0.274 OA
ATOM      5  C   UNL     1       0.682   8.076   0.193  0.00  0.00    +0.149 C 
ATOM      6  S   UNL     1       1.545   6.485  -0.116  0.00  0.00    -0.077 S 
ATOM      7  C   UNL     1       0.101   5.436  -0.182  0.00  0.00    +0.164 C 
ATOM      8  N   UNL     1       0.049   4.139  -0.383  0.00  0.00    -0.225 NA
ENDROOT
BRANCH   8   9
ATOM      9  C   UNL     1       1.203   3.415  -0.469  0.00  0.00    +0.074 A 
ATOM     10  C   UNL     1       2.201   3.556   0.487  0.00  0.00    +0.028 A 
ATOM     11  C   UNL     1       3.374   2.818   0.398  0.00  0.00    +0.003 A 
ATOM     12  C   UNL     1       3.592   1.937  -0.616  0.00  0.00    +0.008 A 
ATOM     13  C   UNL     1       2.626   1.743  -1.618  0.00  0.00    -0.016 A 
ATOM     14  C   UNL     1       1.414   2.474  -1.567  0.00  0.00    +0.008 A 
ATOM     15  C   UNL     1       0.449   2.284  -2.563  0.00  0.00    +0.010 A 
ATOM     16  C   UNL     1       0.686   1.397  -3.571  0.00  0.00    +0.001 A 
ATOM     17  C   UNL     1       1.877   0.675  -3.623  0.00  0.00    +0.001 A 
ATOM     18  C   UNL     1       2.837   0.836  -2.671  0.00  0.00    +0.008 A 
ENDBRANCH   8   9
BRANCH   5  19
ATOM     19  C   UNL     1       0.922   9.068  -0.947  0.00  0.00    +0.120 C 
BRANCH  19  20
ATOM     20  C   UNL     1       2.376   9.462  -0.973  0.00  0.00    +0.219 C 
ATOM     21  O   UNL     1       3.145   8.995  -0.159  0.00  0.00    -0.275 OA
ATOM     22  N   UNL     1       2.822  10.332  -1.900  0.00  0.00    -0.285 N 
ATOM     23  H   UNL     1       2.196  10.759  -2.505  0.00  0.00    +0.155 HD
BRANCH  22  24
ATOM     24  C   UNL     1       4.186  10.620  -1.988  0.00  0.00    +0.041 A 
ATOM     25  C   UNL     1       5.115   9.749  -1.463  0.00  0.00    +0.024 A 
ATOM     26  C   UNL     1       6.477  10.023  -1.550  0.00  0.00    +0.002 A 
ATOM     27  C   UNL     1       6.928  11.161  -2.147  0.00  0.00    +0.008 A 
ATOM     28  C   UNL     1       6.012  12.078  -2.691  0.00  0.00    -0.016 A 
ATOM     29  C   UNL     1       4.624  11.807  -2.612  0.00  0.00    +0.003 A 
ATOM     30  C   UNL     1       3.710  12.725  -3.155  0.00  0.00    +0.010 A 
ATOM     31  C   UNL     1       4.169  13.861  -3.749  0.00  0.00    +0.001 A 
ATOM     32  C   UNL     1       5.534  14.128  -3.827  0.00  0.00    +0.001 A 
ATOM     33  C   UNL     1       6.448  13.261  -3.312  0.00  0.00    +0.008 A 
ENDBRANCH  22  24
ENDBRANCH  19  20
ENDBRANCH   5  19
TORSDOF 4
