REMARK  Name = ZINC59166274
REMARK  9 active torsions:
REMARK  status: ('A' for Active; 'I' for Inactive)
REMARK    1  A    between atoms: C_1  and  C_2
REMARK    2  A    between atoms: C_3  and  C_19
REMARK    3  A    between atoms: C_4  and  C_18
REMARK    4  A    between atoms: N_5  and  C_7
REMARK    5  A    between atoms: C_10  and  N_15
REMARK    6  A    between atoms: C_12  and  O_13
REMARK    7  A    between atoms: O_13  and  C_14
REMARK    8  A    between atoms: N_20  and  N_21
REMARK    9  A    between atoms: N_21  and  C_22
REMARK                            x       y       z     vdW  Elec       q    Type
REMARK                         _______ _______ _______ _____ _____    ______ ____
ROOT
ATOM      1  C   UNL     1      -0.322   1.480   0.051  0.00  0.00    +0.068 C 
ATOM      2  C   UNL     1      -0.130  -0.014   0.020  0.00  0.00    +0.069 A 
ATOM      3  C   UNL     1      -0.139  -0.826  -1.135  0.00  0.00    +0.038 A 
ATOM      4  C   UNL     1       0.071  -2.125  -0.724  0.00  0.00    +0.051 A 
ATOM      5  N   UNL     1       0.204  -2.106   0.621  0.00  0.00    -0.233 N 
ATOM      6  N   UNL     1       0.080  -0.781   1.056  0.00  0.00    -0.171 NA
ATOM      7  C   UNL     1       0.141  -3.341  -1.610  0.00  0.00    +0.066 C 
ENDROOT
BRANCH   5   8
ATOM      8  C   UNL     1       0.432  -3.221   1.439  0.00  0.00    +0.107 A 
ATOM      9  C   UNL     1       1.422  -4.136   1.109  0.00  0.00    +0.034 A 
ATOM     10  C   UNL     1       1.644  -5.234   1.917  0.00  0.00    +0.035 A 
ATOM     11  C   UNL     1       0.882  -5.426   3.055  0.00  0.00    +0.130 A 
ATOM     12  C   UNL     1      -0.106  -4.519   3.390  0.00  0.00    +0.080 A 
ATOM     13  C   UNL     1      -0.332  -3.412   2.589  0.00  0.00    +0.148 A 
BRANCH  11  14
ATOM     14  N   UNL     1       1.125  -6.605   3.917  0.00  0.00    +0.057 N 
ATOM     15  O   UNL     1       1.989  -7.399   3.625  0.00  0.00    -0.126 OA
ATOM     16  O   UNL     1       0.460  -6.774   4.912  0.00  0.00    -0.126 OA
ENDBRANCH  11  14
BRANCH  13  17
ATOM     17  O   UNL     1      -1.299  -2.516   2.920  0.00  0.00    -0.493 OA
ATOM     18  C   UNL     1      -2.042  -2.776   4.113  0.00  0.00    +0.277 C 
ENDBRANCH  13  17
ENDBRANCH   5   8
BRANCH   3  19
ATOM     19  C   UNL     1      -0.339  -0.370  -2.524  0.00  0.00    +0.141 C 
ATOM     20  N   UNL     1      -0.529   0.890  -2.772  0.00  0.00    -0.190 NA
BRANCH  20  21
ATOM     21  N   UNL     1      -0.718   1.323  -4.091  0.00  0.00    -0.238 N 
ATOM     22  H   UNL     1      -0.708   0.682  -4.818  0.00  0.00    +0.174 HD
BRANCH  21  23
ATOM     23  C   UNL     1      -0.922   2.677  -4.357  0.00  0.00    +0.048 A 
ATOM     24  C   UNL     1      -0.932   3.599  -3.317  0.00  0.00    +0.026 A 
ATOM     25  C   UNL     1      -1.134   4.938  -3.584  0.00  0.00    +0.016 A 
ATOM     26  C   UNL     1      -1.327   5.364  -4.887  0.00  0.00    +0.013 A 
ATOM     27  C   UNL     1      -1.318   4.449  -5.925  0.00  0.00    +0.016 A 
ATOM     28  C   UNL     1      -1.110   3.109  -5.665  0.00  0.00    +0.026 A 
ATOM     29  I   UNL     1      -1.633   7.397  -5.287  0.00  0.00    -0.044 I 
ENDBRANCH  21  23
ENDBRANCH  20  21
ENDBRANCH   3  19
TORSDOF 6
