REMARK  Name = ZINC26777025
REMARK  6 active torsions:
REMARK  status: ('A' for Active; 'I' for Inactive)
REMARK    1  A    between atoms: C_1  and  C_2
REMARK    2  A    between atoms: C_4  and  C_26
REMARK    3  A    between atoms: C_6  and  O_8
REMARK    4  A    between atoms: O_8  and  C_9
REMARK    5  A    between atoms: C_9  and  C_10
REMARK    6  A    between atoms: C_10  and  N_11
REMARK                            x       y       z     vdW  Elec       q    Type
REMARK                         _______ _______ _______ _____ _____    ______ ____
ROOT
ATOM      1  N   UNL     1       0.218   5.121   1.144  0.00  0.00    -0.221 N 
ATOM      2  C   UNL     1       1.173   4.188   1.351  0.00  0.00    +0.251 C 
ATOM      3  O   UNL     1       1.710   3.904   2.400  0.00  0.00    -0.272 OA
ATOM      4  C   UNL     1       1.427   3.575  -0.002  0.00  0.00    +0.138 C 
ATOM      5  C   UNL     1       2.889   3.756  -0.429  0.00  0.00    +0.045 C 
ATOM      6  C   UNL     1       3.521   2.410  -0.006  0.00  0.00    +0.038 C 
ATOM      7  C   UNL     1       2.378   1.416  -0.009  0.00  0.00    -0.042 A 
ATOM      8  C   UNL     1       1.169   2.092   0.002  0.00  0.00    -0.012 A 
ATOM      9  C   UNL     1      -0.017   1.377   0.010  0.00  0.00    +0.006 A 
ATOM     10  C   UNL     1       0.002  -0.004   0.002  0.00  0.00    +0.000 A 
ATOM     11  C   UNL     1       1.209  -0.678  -0.013  0.00  0.00    +0.000 A 
ATOM     12  C   UNL     1       2.394   0.033  -0.018  0.00  0.00    +0.004 A 
ATOM     13  N   UNL     1       0.516   4.281  -0.904  0.00  0.00    -0.281 N 
ATOM     14  C   UNL     1      -0.153   5.170  -0.142  0.00  0.00    +0.310 C 
ATOM     15  O   UNL     1      -0.997   5.930  -0.574  0.00  0.00    -0.252 OA
ATOM     16  H   UNL     1       0.494   4.026  -1.974  0.00  0.00    +0.152 HD
ENDROOT
BRANCH   1  17
ATOM     17  C   UNL     1      -0.342   5.973   2.196  0.00  0.00    +0.159 C 
BRANCH  17  18
ATOM     18  C   UNL     1      -1.557   5.283   2.819  0.00  0.00    +0.248 C 
BRANCH  18  19
ATOM     19  O   UNL     1      -1.138   4.088   3.482  0.00  0.00    -0.490 OA
BRANCH  19  25
ATOM     20  C   UNL     1      -5.841   3.470   4.633  0.00  0.00    +0.044 C 
ATOM     21  C   UNL     1      -4.404   3.017   4.675  0.00  0.00    -0.047 A 
ATOM     22  C   UNL     1      -4.067   1.850   5.335  0.00  0.00    +0.007 A 
ATOM     23  C   UNL     1      -2.750   1.432   5.375  0.00  0.00    -0.047 A 
ATOM     24  C   UNL     1      -1.767   2.180   4.756  0.00  0.00    +0.049 A 
ATOM     25  C   UNL     1      -2.103   3.351   4.093  0.00  0.00    +0.121 A 
ATOM     26  C   UNL     1      -3.425   3.771   4.058  0.00  0.00    +0.049 A 
ATOM     27  C   UNL     1      -2.385   0.160   6.096  0.00  0.00    +0.044 C 
ENDBRANCH  19  25
ENDBRANCH  18  19
ENDBRANCH  17  18
ENDBRANCH   1  17
TORSDOF 4
