REMARK  Name = ZINC11871522
REMARK  10 active torsions:
REMARK  status: ('A' for Active; 'I' for Inactive)
REMARK    1  A    between atoms: C_1  and  C_2
REMARK    2  A    between atoms: C_7  and  C_8
REMARK    3  A    between atoms: C_11  and  C_14
REMARK    4  A    between atoms: C_14  and  N_73
REMARK    5  A    between atoms: C_20  and  C_24
REMARK    6  A    between atoms: C_24  and  C_26
REMARK    7  A    between atoms: C_24  and  N_29
REMARK    8  A    between atoms: C_26  and  C_27
REMARK    9  A    between atoms: C_26  and  C_28
REMARK   10  A    between atoms: C_30  and  C_32
REMARK                            x       y       z     vdW  Elec       q    Type
REMARK                         _______ _______ _______ _____ _____    ______ ____
ROOT
ATOM      1  C   UNL     1       4.483   2.876   2.739  0.00  0.00    -0.071 C 
ATOM      2  C   UNL     1       4.361   3.598   1.394  0.00  0.00    +0.058 C 
ATOM      3  C   UNL     1       3.285   2.929   0.578  0.00  0.00    +0.132 A 
ATOM      4  N   UNL     1       3.333   2.587  -0.676  0.00  0.00    -0.134 NA
ATOM      5  N   UNL     1       2.210   2.061  -1.022  0.00  0.00    -0.132 NA
ATOM      6  C   UNL     1       1.395   2.047  -0.000  0.00  0.00    +0.154 A 
ATOM      7  N   UNL     1       2.060   2.583   1.045  0.00  0.00    -0.315 N 
ATOM      8  C   UNL     1       1.584   2.749   2.419  0.00  0.00    +0.106 C 
ATOM      9  C   UNL     1       2.314   3.931   3.064  0.00  0.00    -0.056 C 
ATOM     10  N   UNL     1       3.543   3.443   3.731  0.00  0.00    +0.384 N 
ATOM     11  H   UNL     1       3.285   2.708   4.400  0.00  0.00    -0.081 HD
ENDROOT
BRANCH  10  12
ATOM     12  C   UNL     1       4.191   4.547   4.462  0.00  0.00    -0.043 C 
BRANCH  12  16
ATOM     13  C   UNL     1       7.294   2.922   6.914  0.00  0.00    -0.018 A 
ATOM     14  C   UNL     1       7.577   3.348   5.618  0.00  0.00    +0.009 A 
ATOM     15  C   UNL     1       6.572   3.871   4.831  0.00  0.00    +0.002 A 
ATOM     16  C   UNL     1       5.285   3.974   5.326  0.00  0.00    -0.064 A 
ATOM     17  C   UNL     1       4.999   3.558   6.614  0.00  0.00    +0.002 A 
ATOM     18  C   UNL     1       5.995   3.029   7.408  0.00  0.00    +0.009 A 
BRANCH  13  25
ATOM     19  C   UNL     1       7.679   3.935   9.597  0.00  0.00    +0.044 C 
ATOM     20  C   UNL     1       8.564   2.840   9.059  0.00  0.00    -0.043 A 
ATOM     21  C   UNL     1       9.563   2.308   9.848  0.00  0.00    +0.004 A 
ATOM     22  C   UNL     1      10.379   1.306   9.354  0.00  0.00    +0.000 A 
ATOM     23  C   UNL     1      10.196   0.829   8.068  0.00  0.00    +0.001 A 
ATOM     24  C   UNL     1       9.196   1.350   7.272  0.00  0.00    +0.009 A 
ATOM     25  C   UNL     1       8.370   2.358   7.766  0.00  0.00    -0.015 A 
ENDBRANCH  13  25
ENDBRANCH  12  16
ENDBRANCH  10  12
BRANCH   6  26
ATOM     26  C   UNL     1      -0.019   1.526   0.010  0.00  0.00    +0.144 C 
BRANCH  26  27
ATOM     27  N   UNL     1      -0.727   2.011  -1.176  0.00  0.00    -0.305 N 
ATOM     28  C   UNL     1      -2.070   2.122  -1.161  0.00  0.00    +0.219 C 
ATOM     29  O   UNL     1      -2.692   1.819  -0.165  0.00  0.00    -0.275 OA
ATOM     30  H   UNL     1      -0.230   2.253  -1.973  0.00  0.00    +0.149 HD
BRANCH  28  31
ATOM     31  C   UNL     1      -2.799   2.621  -2.382  0.00  0.00    +0.103 C 
ATOM     32  C   UNL     1      -4.324   2.730  -2.109  0.00  0.00    +0.043 C 
ATOM     33  C   UNL     1      -4.717   3.862  -3.095  0.00  0.00    +0.160 C 
ATOM     34  O   UNL     1      -3.604   4.771  -3.089  0.00  0.00    -0.379 OA
ATOM     35  C   UNL     1      -2.412   4.082  -2.694  0.00  0.00    +0.172 C 
ENDBRANCH  28  31
ENDBRANCH  26  27
BRANCH  26  36
ATOM     36  C   UNL     1       0.002  -0.004   0.002  0.00  0.00    +0.011 C 
ATOM     37  C   UNL     1       0.742  -0.511   1.242  0.00  0.00    +0.009 C 
ATOM     38  C   UNL     1      -1.433  -0.534   0.013  0.00  0.00    +0.009 C 
ENDBRANCH  26  36
ENDBRANCH   6  26
TORSDOF 7
