REMARK  Name = ZINC41584587
REMARK  6 active torsions:
REMARK  status: ('A' for Active; 'I' for Inactive)
REMARK    1  A    between atoms: C_1  and  C_2
REMARK    2  A    between atoms: C_4  and  O_34
REMARK    3  A    between atoms: C_5  and  C_20
REMARK    4  A    between atoms: C_11  and  C_12
REMARK    5  A    between atoms: C_20  and  N_21
REMARK    6  A    between atoms: C_26  and  C_28
REMARK                            x       y       z     vdW  Elec       q    Type
REMARK                         _______ _______ _______ _____ _____    ______ ____
ROOT
ATOM      1  C   UNL     1       1.630   0.185   0.336  0.00  0.00    +0.045 C 
ATOM      2  C   UNL     1       1.244  -1.269   0.256  0.00  0.00    -0.033 A 
ATOM      3  C   UNL     1       0.873  -1.814  -0.941  0.00  0.00    +0.050 A 
ATOM      4  C   UNL     1       0.515  -3.158  -1.016  0.00  0.00    +0.122 A 
ATOM      5  C   UNL     1       0.530  -3.956   0.116  0.00  0.00    +0.020 A 
ATOM      6  C   UNL     1       0.905  -3.418   1.341  0.00  0.00    +0.145 A 
ATOM      7  C   UNL     1       1.270  -2.063   1.403  0.00  0.00    +0.071 A 
ATOM      8  C   UNL     1       1.618  -1.791   2.810  0.00  0.00    +0.232 C 
ATOM      9  O   UNL     1       1.984  -0.736   3.297  0.00  0.00    -0.283 OA
ATOM     10  C   UNL     1       1.426  -3.080   3.493  0.00  0.00    +0.176 C 
ATOM     11  C   UNL     1       1.625  -3.326   4.812  0.00  0.00    +0.058 C 
ATOM     12  O   UNL     1       1.001  -3.973   2.568  0.00  0.00    -0.451 OA
ENDROOT
BRANCH  11  13
ATOM     13  C   UNL     1       1.542  -4.701   5.324  0.00  0.00    -0.021 A 
ATOM     14  C   UNL     1       1.399  -5.774   4.438  0.00  0.00    +0.009 A 
ATOM     15  C   UNL     1       1.321  -7.061   4.926  0.00  0.00    +0.016 A 
ATOM     16  C   UNL     1       1.383  -7.293   6.290  0.00  0.00    +0.018 A 
ATOM     17  C   UNL     1       1.524  -6.235   7.174  0.00  0.00    +0.016 A 
ATOM     18  C   UNL     1       1.610  -4.944   6.701  0.00  0.00    +0.009 A 
ATOM     19 BR   UNL     1       1.274  -9.062   6.949  0.00  0.00    -0.050 Br
ENDBRANCH  11  13
BRANCH   4  20
ATOM     20  O   UNL     1       0.148  -3.689  -2.210  0.00  0.00    -0.506 OA
ATOM     21  H   UNL     1       0.883  -4.059  -2.719  0.00  0.00    +0.292 HD
ENDBRANCH   4  20
BRANCH   5  22
ATOM     22  C   UNL     1       0.140  -5.408   0.019  0.00  0.00    -0.035 C 
BRANCH  22  23
ATOM     23  N   UNL     1      -1.323  -5.527   0.078  0.00  0.00    +0.387 N 
ATOM     24  C   UNL     1      -1.796  -5.076   1.393  0.00  0.00    -0.078 C 
ATOM     25  C   UNL     1      -3.325  -5.121   1.431  0.00  0.00    -0.019 C 
ATOM     26  C   UNL     1      -3.795  -6.557   1.183  0.00  0.00    -0.003 C 
ATOM     27  C   UNL     1      -3.234  -7.043  -0.156  0.00  0.00    -0.011 C 
ATOM     28  C   UNL     1      -1.708  -6.927  -0.136  0.00  0.00    -0.036 C 
ATOM     29  H   UNL     1      -1.736  -4.952  -0.641  0.00  0.00    -0.080 HD
BRANCH  28  30
ATOM     30  C   UNL     1      -1.151  -7.404  -1.453  0.00  0.00    -0.043 A 
ATOM     31  C   UNL     1      -0.495  -8.623  -1.537  0.00  0.00    +0.005 A 
ATOM     32  C   UNL     1       0.001  -9.022  -2.768  0.00  0.00    +0.020 A 
ATOM     33  C   UNL     1      -0.174  -8.197  -3.864  0.00  0.00    +0.111 A 
ATOM     34  N   UNL     1      -0.803  -7.044  -3.747  0.00  0.00    -0.263 NA
ATOM     35  C   UNL     1      -1.293  -6.636  -2.592  0.00  0.00    +0.112 A 
ENDBRANCH  28  30
ENDBRANCH  22  23
ENDBRANCH   5  22
TORSDOF 5
