REMARK  Name = ZINC09818320
REMARK  8 active torsions:
REMARK  status: ('A' for Active; 'I' for Inactive)
REMARK    1  A    between atoms: C_4  and  C_7
REMARK    2  A    between atoms: C_7  and  C_9
REMARK    3  A    between atoms: C_7  and  O_22
REMARK    4  A    between atoms: N_11  and  C_12
REMARK    5  A    between atoms: C_15  and  N_19
REMARK    6  A    between atoms: O_22  and  C_23
REMARK    7  A    between atoms: C_23  and  C_25
REMARK    8  A    between atoms: C_26  and  C_27
REMARK                            x       y       z     vdW  Elec       q    Type
REMARK                         _______ _______ _______ _____ _____    ______ ____
ROOT
ATOM      1  C   UNL     1      -8.440  -0.952   0.031  0.00  0.00    +0.292 C 
ENDROOT
BRANCH   1   5
ATOM      2  C   UNL     1      -9.677  -1.695  -3.990  0.00  0.00    +0.000 A 
ATOM      3  C   UNL     1      -9.861  -2.663  -3.020  0.00  0.00    +0.000 A 
ATOM      4  C   UNL     1      -9.461  -2.422  -1.719  0.00  0.00    +0.008 A 
ATOM      5  C   UNL     1      -8.877  -1.214  -1.388  0.00  0.00    +0.002 A 
ATOM      6  C   UNL     1      -8.697  -0.244  -2.357  0.00  0.00    +0.008 A 
ATOM      7  C   UNL     1      -9.093  -0.487  -3.659  0.00  0.00    +0.000 A 
ENDBRANCH   1   5
BRANCH   1   8
ATOM      8  C   UNL     1      -9.531  -0.214   0.763  0.00  0.00    +0.263 C 
ATOM      9  O   UNL     1      -9.341   0.918   1.155  0.00  0.00    -0.271 OA
ATOM     10  N   UNL     1     -10.719  -0.812   0.984  0.00  0.00    -0.281 N 
ATOM     11  H   UNL     1     -10.894  -1.692   0.615  0.00  0.00    +0.155 HD
BRANCH  10  12
ATOM     12  C   UNL     1     -11.698  -0.164   1.745  0.00  0.00    +0.052 A 
ATOM     13  C   UNL     1     -11.830   1.217   1.679  0.00  0.00    +0.027 A 
ATOM     14  C   UNL     1     -12.798   1.853   2.432  0.00  0.00    +0.034 A 
ATOM     15  C   UNL     1     -13.636   1.118   3.250  0.00  0.00    +0.128 A 
ATOM     16  C   UNL     1     -13.508  -0.257   3.317  0.00  0.00    +0.054 A 
ATOM     17  C   UNL     1     -12.545  -0.901   2.563  0.00  0.00    +0.064 A 
ATOM     18 CL   UNL     1     -12.390  -2.629   2.644  0.00  0.00    -0.082 Cl
BRANCH  15  19
ATOM     19  N   UNL     1     -14.671   1.804   4.054  0.00  0.00    +0.056 N 
ATOM     20  O   UNL     1     -14.785   3.015   3.995  0.00  0.00    -0.126 OA
ATOM     21  O   UNL     1     -15.410   1.157   4.775  0.00  0.00    -0.126 OA
ENDBRANCH  15  19
ENDBRANCH  10  12
ENDBRANCH   1   8
BRANCH   1  22
ATOM     22  O   UNL     1      -7.251  -0.159   0.025  0.00  0.00    -0.444 OA
BRANCH  22  23
ATOM     23  C   UNL     1      -6.075  -0.820   0.002  0.00  0.00    +0.333 C 
ATOM     24  O   UNL     1      -6.061  -2.037  -0.012  0.00  0.00    -0.246 OA
BRANCH  23  25
ATOM     25  C   UNL     1      -4.855  -0.097  -0.005  0.00  0.00    +0.092 C 
ATOM     26  C   UNL     1      -3.678  -0.759  -0.028  0.00  0.00    +0.015 C 
BRANCH  26  27
ATOM     27  C   UNL     1      -2.414  -0.010  -0.035  0.00  0.00    -0.021 A 
ATOM     28  C   UNL     1      -2.427   1.390  -0.019  0.00  0.00    +0.012 A 
ATOM     29  C   UNL     1      -1.240   2.088  -0.032  0.00  0.00    +0.050 A 
ATOM     30  C   UNL     1      -0.027   1.409  -0.052  0.00  0.00    +0.162 A 
ATOM     31  C   UNL     1      -0.006   0.017  -0.066  0.00  0.00    +0.163 A 
ATOM     32  C   UNL     1      -1.192  -0.693  -0.059  0.00  0.00    +0.057 A 
ATOM     33  O   UNL     1       1.174  -0.662  -0.085  0.00  0.00    -0.485 OA
ATOM     34  C   UNL     1       2.337   0.081  -0.469  0.00  0.00    +0.270 C 
ATOM     35  C   UNL     1       2.326   1.415   0.289  0.00  0.00    +0.270 C 
ATOM     36  O   UNL     1       1.132   2.121  -0.064  0.00  0.00    -0.485 OA
ENDBRANCH  26  27
ENDBRANCH  23  25
ENDBRANCH  22  23
ENDBRANCH   1  22
TORSDOF 8
