REMARK  Name = ZINC06647375
REMARK  8 active torsions:
REMARK  status: ('A' for Active; 'I' for Inactive)
REMARK    1  A    between atoms: C_1  and  N_51
REMARK    2  A    between atoms: C_2  and  C_3
REMARK    3  A    between atoms: C_2  and  N_51
REMARK    4  A    between atoms: C_6  and  S_9
REMARK    5  A    between atoms: S_9  and  C_10
REMARK    6  A    between atoms: C_11  and  C_12
REMARK    7  A    between atoms: C_11  and  N_51
REMARK    8  A    between atoms: N_17  and  C_18
REMARK                            x       y       z     vdW  Elec       q    Type
REMARK                         _______ _______ _______ _____ _____    ______ ____
ROOT
ATOM      1  C   UNL     1       4.832  -4.006   0.226  0.00  0.00    +0.204 C 
ATOM      2  O   UNL     1       3.790  -4.627   0.235  0.00  0.00    -0.277 OA
ATOM      3  N   UNL     1       4.814  -2.662   0.133  0.00  0.00    -0.241 N 
ATOM      4  C   UNL     1       3.639  -2.008   0.049  0.00  0.00    +0.310 C 
ATOM      5  O   UNL     1       2.595  -2.630   0.058  0.00  0.00    -0.252 OA
ATOM      6  N   UNL     1       3.622  -0.663  -0.045  0.00  0.00    -0.269 N 
ATOM      7  H   UNL     1       5.647  -2.166   0.125  0.00  0.00    +0.159 HD
ATOM      8  H   UNL     1       4.454  -0.172  -0.130  0.00  0.00    +0.156 HD
ENDROOT
BRANCH   6   9
ATOM      9  C   UNL     1       2.401   0.025  -0.019  0.00  0.00    +0.038 A 
ATOM     10  C   UNL     1       1.346  -0.460   0.741  0.00  0.00    +0.027 A 
ATOM     11  C   UNL     1       0.142   0.218   0.766  0.00  0.00    +0.051 A 
ATOM     12  C   UNL     1      -0.016   1.384   0.032  0.00  0.00    +0.162 A 
ATOM     13  C   UNL     1       1.040   1.873  -0.728  0.00  0.00    +0.164 A 
ATOM     14  C   UNL     1       2.247   1.192  -0.754  0.00  0.00    +0.072 A 
ATOM     15  O   UNL     1       0.906   3.021  -1.448  0.00  0.00    -0.485 OA
ATOM     16  C   UNL     1      -0.429   3.474  -1.696  0.00  0.00    +0.270 C 
ATOM     17  C   UNL     1      -1.215   3.396  -0.380  0.00  0.00    +0.270 C 
ATOM     18  O   UNL     1      -1.212   2.034   0.062  0.00  0.00    -0.485 OA
ENDBRANCH   6   9
BRANCH   1  19
ATOM     19  C   UNL     1       6.146  -4.738   0.320  0.00  0.00    +0.019 C 
BRANCH  19  21
ATOM     20  C   UNL     1       5.299  -6.694  -0.829  0.00  0.00    -0.095 C 
ATOM     21  N   UNL     1       5.877  -6.187   0.433  0.00  0.00    +0.386 N 
ATOM     22  H   UNL     1       5.206  -6.344   1.194  0.00  0.00    -0.081 HD
BRANCH  21  23
ATOM     23  C   UNL     1       7.129  -6.910   0.741  0.00  0.00    -0.043 C 
BRANCH  23  24
ATOM     24  C   UNL     1       6.795  -8.343   1.067  0.00  0.00    -0.064 A 
ATOM     25  C   UNL     1       6.513  -8.706   2.372  0.00  0.00    +0.003 A 
ATOM     26  C   UNL     1       6.201 -10.017   2.674  0.00  0.00    +0.015 A 
ATOM     27  C   UNL     1       6.182 -10.974   1.667  0.00  0.00    +0.008 A 
ATOM     28  C   UNL     1       6.471 -10.607   0.358  0.00  0.00    +0.015 A 
ATOM     29  C   UNL     1       6.777  -9.293   0.063  0.00  0.00    +0.003 A 
BRANCH  27  30
ATOM     30  S   UNL     1       5.791 -12.649   2.048  0.00  0.00    -0.129 S 
ATOM     31  C   UNL     1       5.497 -12.634   3.838  0.00  0.00    +0.090 C 
ENDBRANCH  27  30
ENDBRANCH  23  24
ENDBRANCH  21  23
ENDBRANCH  19  21
ENDBRANCH   1  19
TORSDOF 6
