REMARK  Name = ZINC59258675
REMARK  9 active torsions:
REMARK  status: ('A' for Active; 'I' for Inactive)
REMARK    1  A    between atoms: C_1  and  C_2
REMARK    2  A    between atoms: C_5  and  C_8
REMARK    3  A    between atoms: C_8  and  N_9
REMARK    4  A    between atoms: C_10  and  C_12
REMARK    5  A    between atoms: C_12  and  C_14
REMARK    6  A    between atoms: C_12  and  N_15
REMARK    7  A    between atoms: C_18  and  C_21
REMARK    8  A    between atoms: N_23  and  C_24
REMARK    9  A    between atoms: C_29  and  O_30
REMARK                            x       y       z     vdW  Elec       q    Type
REMARK                         _______ _______ _______ _____ _____    ______ ____
ROOT
ATOM      1  N   UNL     1       3.088  -8.027  -0.124  0.00  0.00    +0.387 N 
ATOM      2  C   UNL     1       2.576  -8.625  -1.363  0.00  0.00    -0.077 C 
ATOM      3  C   UNL     1       2.519 -10.147  -1.215  0.00  0.00    -0.006 C 
ATOM      4  C   UNL     1       3.927 -10.680  -0.933  0.00  0.00    +0.072 C 
ATOM      5  C   UNL     1       4.480  -9.994   0.319  0.00  0.00    -0.006 C 
ATOM      6  C   UNL     1       4.464  -8.478   0.114  0.00  0.00    -0.077 C 
ATOM      7  H   UNL     1       2.504  -8.309   0.649  0.00  0.00    -0.081 HD
ENDROOT
BRANCH   4   8
ATOM      8  C   UNL     1       3.867 -12.168  -0.709  0.00  0.00    +0.220 C 
ATOM      9  O   UNL     1       2.803 -12.748  -0.767  0.00  0.00    -0.275 OA
ATOM     10  N   UNL     1       4.995 -12.856  -0.443  0.00  0.00    -0.282 N 
ATOM     11  H   UNL     1       5.834 -12.384  -0.323  0.00  0.00    +0.155 HD
BRANCH  10  12
ATOM     12  C   UNL     1       4.956 -14.253  -0.338  0.00  0.00    +0.077 A 
ATOM     13  C   UNL     1       3.901 -14.962  -0.892  0.00  0.00    +0.047 A 
ATOM     14  C   UNL     1       3.865 -16.341  -0.787  0.00  0.00    +0.043 A 
ATOM     15  C   UNL     1       4.880 -17.015  -0.131  0.00  0.00    +0.023 A 
ATOM     16  C   UNL     1       5.934 -16.313   0.423  0.00  0.00    +0.049 A 
ATOM     17  C   UNL     1       5.980 -14.932   0.318  0.00  0.00    +0.138 A 
ATOM     18 CL   UNL     1       2.543 -17.228  -1.481  0.00  0.00    -0.083 Cl
BRANCH  17  19
ATOM     19  O   UNL     1       7.020 -14.242   0.858  0.00  0.00    -0.505 OA
ATOM     20  H   UNL     1       6.879 -13.973   1.776  0.00  0.00    +0.292 HD
ENDBRANCH  17  19
ENDBRANCH  10  12
ENDBRANCH   4   8
BRANCH   1  21
ATOM     21  C   UNL     1       3.067  -6.563  -0.243  0.00  0.00    +0.016 C 
ATOM     22  C   UNL     1       3.660  -5.941   1.022  0.00  0.00    -0.004 C 
BRANCH  21  24
ATOM     23  N   UNL     1       1.390  -4.949  -1.081  0.00  0.00    -0.313 N 
ATOM     24  C   UNL     1       1.646  -6.093  -0.415  0.00  0.00    +0.199 C 
ATOM     25  O   UNL     1       0.732  -6.745   0.044  0.00  0.00    -0.278 OA
ATOM     26  H   UNL     1       2.121  -4.429  -1.448  0.00  0.00    +0.149 HD
BRANCH  23  27
ATOM     27  C   UNL     1       0.009  -4.493  -1.248  0.00  0.00    +0.139 C 
BRANCH  27  32
ATOM     28  C   UNL     1      -0.037   0.467  -4.213  0.00  0.00    +0.044 C 
ATOM     29  C   UNL     1      -0.025  -0.826  -3.440  0.00  0.00    -0.050 A 
ATOM     30  C   UNL     1      -0.097  -2.033  -4.111  0.00  0.00    +0.003 A 
ATOM     31  C   UNL     1      -0.086  -3.220  -3.401  0.00  0.00    +0.005 A 
ATOM     32  C   UNL     1      -0.003  -3.199  -2.022  0.00  0.00    -0.030 A 
ATOM     33  C   UNL     1       0.070  -1.992  -1.351  0.00  0.00    +0.005 A 
ATOM     34  C   UNL     1       0.064  -0.806  -2.061  0.00  0.00    +0.003 A 
ENDBRANCH  27  32
ENDBRANCH  23  27
ENDBRANCH  21  24
ENDBRANCH   1  21
TORSDOF 7
