REMARK  Name = ZINC39325069
REMARK  11 active torsions:
REMARK  status: ('A' for Active; 'I' for Inactive)
REMARK    1  A    between atoms: C_1  and  C_2
REMARK    2  A    between atoms: C_2  and  O_3
REMARK    3  A    between atoms: O_3  and  C_4
REMARK    4  A    between atoms: C_11  and  C_16
REMARK    5  A    between atoms: C_16  and  N_17
REMARK    6  A    between atoms: N_17  and  C_18
REMARK    7  A    between atoms: N_17  and  S_26
REMARK    8  A    between atoms: C_18  and  C_19
REMARK    9  A    between atoms: S_26  and  C_29
REMARK   10  A    between atoms: C_32  and  O_35
REMARK   11  A    between atoms: O_35  and  C_36
REMARK                            x       y       z     vdW  Elec       q    Type
REMARK                         _______ _______ _______ _____ _____    ______ ____
ROOT
ATOM      1  N   UNL     1       1.936  -7.594  -5.414  0.00  0.00    -0.171 NA
ENDROOT
BRANCH   1   2
ATOM      2  S   UNL     1       3.329  -7.863  -6.268  0.00  0.00    +0.061 S 
ATOM      3  O   UNL     1       3.211  -9.159  -6.840  0.00  0.00    -0.153 OA
ATOM      4  O   UNL     1       3.555  -6.701  -7.054  0.00  0.00    -0.153 OA
BRANCH   2   5
ATOM      5  C   UNL     1       4.647  -7.947  -5.102  0.00  0.00    +0.106 A 
ATOM      6  C   UNL     1       5.325  -6.796  -4.744  0.00  0.00    +0.032 A 
ATOM      7  C   UNL     1       6.360  -6.859  -3.830  0.00  0.00    +0.047 A 
ATOM      8  C   UNL     1       6.717  -8.077  -3.272  0.00  0.00    +0.120 A 
ATOM      9  C   UNL     1       6.035  -9.230  -3.632  0.00  0.00    +0.047 A 
ATOM     10  C   UNL     1       4.998  -9.161  -4.543  0.00  0.00    +0.032 A 
BRANCH   8  11
ATOM     11  O   UNL     1       7.734  -8.142  -2.373  0.00  0.00    -0.495 OA
ATOM     12  C   UNL     1       8.048  -9.430  -1.839  0.00  0.00    +0.277 C 
ENDBRANCH   8  11
ENDBRANCH   2   5
ENDBRANCH   1   2
BRANCH   1  13
ATOM     13  C   UNL     1       1.495  -6.223  -5.145  0.00  0.00    +0.126 C 
BRANCH  13  21
ATOM     14  C   UNL     1       0.512  -1.843  -1.413  0.00  0.00    +0.121 A 
ATOM     15  C   UNL     1       0.162  -2.732  -0.389  0.00  0.00    +0.047 A 
ATOM     16  C   UNL     1       0.389  -4.068  -0.472  0.00  0.00    +0.027 A 
ATOM     17  C   UNL     1       0.998  -4.622  -1.613  0.00  0.00    +0.041 A 
ATOM     18  N   UNL     1       1.215  -5.935  -1.681  0.00  0.00    -0.284 N 
ATOM     19  C   UNL     1       1.782  -6.521  -2.721  0.00  0.00    +0.225 C 
ATOM     20  O   UNL     1       1.953  -7.726  -2.726  0.00  0.00    -0.275 OA
ATOM     21  C   UNL     1       2.217  -5.689  -3.906  0.00  0.00    +0.114 C 
ATOM     22  C   UNL     1       1.973  -4.194  -3.835  0.00  0.00    -0.003 C 
ATOM     23  C   UNL     1       1.379  -3.711  -2.707  0.00  0.00    -0.004 A 
ATOM     24  C   UNL     1       1.102  -2.282  -2.559  0.00  0.00    +0.055 A 
ATOM     25  H   UNL     1       0.943  -6.487  -0.931  0.00  0.00    +0.155 HD
BRANCH  14  26
ATOM     26  O   UNL     1       0.255  -0.517  -1.261  0.00  0.00    -0.492 OA
BRANCH  26  28
ATOM     27  C   UNL     1      -0.574   1.403  -0.050  0.00  0.00    +0.048 C 
ATOM     28  C   UNL     1      -0.364  -0.112  -0.038  0.00  0.00    +0.225 C 
ENDBRANCH  26  28
ENDBRANCH  14  26
ENDBRANCH  13  21
ENDBRANCH   1  13
BRANCH   1  29
ATOM     29  C   UNL     1       1.144  -8.726  -4.928  0.00  0.00    +0.144 C 
BRANCH  29  30
ATOM     30  C   UNL     1       0.075  -9.062  -5.935  0.00  0.00    -0.031 A 
ATOM     31  C   UNL     1      -1.164  -8.453  -5.856  0.00  0.00    +0.008 A 
ATOM     32  C   UNL     1      -2.145  -8.759  -6.779  0.00  0.00    +0.038 A 
ATOM     33  C   UNL     1      -1.887  -9.676  -7.784  0.00  0.00    +0.123 A 
ATOM     34  C   UNL     1      -0.647 -10.285  -7.863  0.00  0.00    +0.038 A 
ATOM     35  C   UNL     1       0.335  -9.973  -6.941  0.00  0.00    +0.008 A 
ATOM     36  F   UNL     1      -2.846  -9.976  -8.687  0.00  0.00    -0.205 F 
ENDBRANCH  29  30
ENDBRANCH   1  29
TORSDOF 9
