REMARK  Name = ZINC36066179
REMARK  10 active torsions:
REMARK  status: ('A' for Active; 'I' for Inactive)
REMARK    1  A    between atoms: C_1  and  C_2
REMARK    2  A    between atoms: C_7  and  N_12
REMARK    3  A    between atoms: C_9  and  C_11
REMARK    4  A    between atoms: C_13  and  C_15
REMARK    5  A    between atoms: C_23  and  C_34
REMARK    6  A    between atoms: N_29  and  C_30
REMARK    7  A    between atoms: C_30  and  C_31
REMARK    8  A    between atoms: C_30  and  C_32
REMARK    9  A    between atoms: C_30  and  C_33
REMARK   10  A    between atoms: N_36  and  C_37
REMARK                            x       y       z     vdW  Elec       q    Type
REMARK                         _______ _______ _______ _____ _____    ______ ____
ROOT
ATOM      1  C   UNL     1       2.875  -3.728   3.385  0.00  0.00    +0.199 C 
ATOM      2  C   UNL     1       4.318  -3.330   3.440  0.00  0.00    +0.127 C 
ATOM      3  C   UNL     1       4.992  -3.369   2.080  0.00  0.00    +0.009 C 
ATOM      4  C   UNL     1       6.243  -2.988   2.289  0.00  0.00    +0.004 C 
ATOM      5  C   UNL     1       6.346  -2.774   3.804  0.00  0.00    +0.155 C 
ATOM      6  O   UNL     1       4.976  -2.290   4.124  0.00  0.00    -0.358 OA
ATOM      7  C   UNL     1       6.332  -4.254   4.350  0.00  0.00    +0.123 C 
ATOM      8  C   UNL     1       4.834  -4.556   4.295  0.00  0.00    +0.128 C 
ATOM      9  C   UNL     1       4.182  -5.668   3.581  0.00  0.00    +0.224 C 
ATOM     10  O   UNL     1       4.629  -6.784   3.420  0.00  0.00    -0.275 OA
ATOM     11  N   UNL     1       2.970  -5.200   3.133  0.00  0.00    -0.281 N 
ENDROOT
BRANCH   1  13
ATOM     12  N   UNL     1       1.364  -1.978   2.504  0.00  0.00    -0.311 N 
ATOM     13  C   UNL     1       2.167  -3.031   2.252  0.00  0.00    +0.237 C 
ATOM     14  O   UNL     1       2.319  -3.418   1.113  0.00  0.00    -0.274 OA
ATOM     15  H   UNL     1       1.242  -1.669   3.416  0.00  0.00    +0.149 HD
BRANCH  12  21
ATOM     16  C   UNL     1      -0.662   2.292   1.057  0.00  0.00    +0.008 C 
ATOM     17  C   UNL     1      -0.353   0.849   0.654  0.00  0.00    -0.009 C 
ATOM     18  C   UNL     1      -1.659   0.116   0.342  0.00  0.00    +0.003 C 
ATOM     19  C   UNL     1      -1.349  -1.328  -0.061  0.00  0.00    +0.002 C 
ATOM     20  C   UNL     1      -0.630  -2.035   1.090  0.00  0.00    +0.022 C 
ATOM     21  C   UNL     1       0.676  -1.302   1.403  0.00  0.00    +0.076 C 
ATOM     22  C   UNL     1       0.366   0.142   1.805  0.00  0.00    +0.009 C 
ATOM     23  C   UNL     1      -0.530   0.145   3.045  0.00  0.00    +0.009 C 
ENDBRANCH  12  21
ENDBRANCH   1  13
BRANCH  11  24
ATOM     24  C   UNL     1       1.929  -6.017   2.504  0.00  0.00    +0.030 C 
ATOM     25  C   UNL     1       2.319  -6.313   1.054  0.00  0.00    +0.031 C 
ATOM     26  C   UNL     1       1.780  -7.333   3.271  0.00  0.00    +0.031 C 
ATOM     27  C   UNL     1       0.600  -5.259   2.530  0.00  0.00    +0.031 C 
ENDBRANCH  11  24
BRANCH   7  28
ATOM     28  C   UNL     1       7.121  -5.171   3.451  0.00  0.00    +0.224 C 
ATOM     29  O   UNL     1       6.570  -6.100   2.899  0.00  0.00    -0.275 OA
ATOM     30  N   UNL     1       8.438  -4.957   3.260  0.00  0.00    -0.285 N 
ATOM     31  H   UNL     1       8.862  -4.172   3.639  0.00  0.00    +0.155 HD
BRANCH  30  32
ATOM     32  C   UNL     1       9.193  -5.869   2.513  0.00  0.00    +0.035 A 
ATOM     33  C   UNL     1      10.260  -5.423   1.744  0.00  0.00    +0.023 A 
ATOM     34  C   UNL     1      11.004  -6.324   1.008  0.00  0.00    +0.003 A 
ATOM     35  C   UNL     1      10.688  -7.670   1.037  0.00  0.00    +0.020 A 
ATOM     36  C   UNL     1       9.626  -8.118   1.802  0.00  0.00    +0.043 A 
ATOM     37  C   UNL     1       8.881  -7.221   2.545  0.00  0.00    +0.043 A 
ATOM     38 CL   UNL     1       9.232  -9.809   1.835  0.00  0.00    -0.083 Cl
ENDBRANCH  30  32
ENDBRANCH   7  28
TORSDOF 5
