REMARK  Name = ZINC12363635
REMARK  6 active torsions:
REMARK  status: ('A' for Active; 'I' for Inactive)
REMARK    1  A    between atoms: C_1  and  C_2
REMARK    2  A    between atoms: C_5  and  C_11
REMARK    3  A    between atoms: C_7  and  N_8
REMARK    4  A    between atoms: C_14  and  C_16
REMARK    5  A    between atoms: N_17  and  N_18
REMARK    6  A    between atoms: N_18  and  C_19
REMARK                            x       y       z     vdW  Elec       q    Type
REMARK                         _______ _______ _______ _____ _____    ______ ____
ROOT
ATOM      1  C   UNL     1       3.764   1.935  -0.020  0.00  0.00    +0.136 A 
ATOM      2  C   UNL     1       4.983   1.278   0.240  0.00  0.00    +0.050 A 
ATOM      3  C   UNL     1       5.978   2.202   0.138  0.00  0.00    +0.051 A 
ATOM      4  C   UNL     1       5.327   3.472  -0.199  0.00  0.00    +0.148 A 
ATOM      5  O   UNL     1       3.999   3.232  -0.283  0.00  0.00    -0.454 OA
ENDROOT
BRANCH   1  10
ATOM      6  C   UNL     1      -1.412  -0.553   0.009  0.00  0.00    +0.046 C 
ATOM      7  C   UNL     1      -0.054   0.100   0.002  0.00  0.00    -0.020 A 
ATOM      8  C   UNL     1       1.076  -0.656   0.276  0.00  0.00    +0.006 A 
ATOM      9  C   UNL     1       2.321  -0.070   0.271  0.00  0.00    +0.012 A 
ATOM     10  C   UNL     1       2.445   1.301  -0.012  0.00  0.00    +0.019 A 
ATOM     11  C   UNL     1       1.294   2.059  -0.289  0.00  0.00    +0.044 A 
ATOM     12  C   UNL     1       0.058   1.453  -0.279  0.00  0.00    +0.130 A 
BRANCH  12  13
ATOM     13  N   UNL     1      -1.155   2.247  -0.576  0.00  0.00    +0.057 N 
ATOM     14  O   UNL     1      -1.068   3.554  -0.720  0.00  0.00    -0.126 OA
ATOM     15  O   UNL     1      -2.321   1.648  -0.696  0.00  0.00    -0.126 OA
ENDBRANCH  12  13
ENDBRANCH   1  10
BRANCH   4  16
ATOM     16  C   UNL     1       5.955   4.689  -0.401  0.00  0.00    +0.176 C 
ATOM     17  N   UNL     1       5.236   5.769  -0.705  0.00  0.00    -0.187 NA
BRANCH  17  18
ATOM     18  N   UNL     1       5.821   6.903  -0.893  0.00  0.00    -0.238 N 
ATOM     19  H   UNL     1       6.786   6.969  -0.814  0.00  0.00    +0.174 HD
BRANCH  18  20
ATOM     20  C   UNL     1       5.074   8.024  -1.208  0.00  0.00    +0.048 A 
ATOM     21  C   UNL     1       3.687   7.929  -1.328  0.00  0.00    +0.026 A 
ATOM     22  C   UNL     1       2.946   9.050  -1.637  0.00  0.00    +0.016 A 
ATOM     23  C   UNL     1       3.578  10.267  -1.839  0.00  0.00    +0.013 A 
ATOM     24  C   UNL     1       4.955  10.365  -1.725  0.00  0.00    +0.016 A 
ATOM     25  C   UNL     1       5.705   9.251  -1.411  0.00  0.00    +0.026 A 
ATOM     26  I   UNL     1       2.446  11.964  -2.315  0.00  0.00    -0.044 I 
ENDBRANCH  18  20
ENDBRANCH  17  18
ENDBRANCH   4  16
TORSDOF 5
