REMARK  Name = ZINC10430828
REMARK  11 active torsions:
REMARK  status: ('A' for Active; 'I' for Inactive)
REMARK    1  A    between atoms: C_1  and  C_2
REMARK    2  A    between atoms: C_2  and  N_3
REMARK    3  A    between atoms: N_3  and  C_4
REMARK    4  A    between atoms: N_3  and  C_16
REMARK    5  A    between atoms: C_4  and  C_5
REMARK    6  A    between atoms: N_7  and  C_8
REMARK    7  A    between atoms: C_8  and  C_9
REMARK    8  A    between atoms: C_9  and  C_10
REMARK    9  A    between atoms: C_17  and  N_32
REMARK   10  A    between atoms: N_18  and  C_25
REMARK   11  A    between atoms: C_25  and  C_26
REMARK                            x       y       z     vdW  Elec       q    Type
REMARK                         _______ _______ _______ _____ _____    ______ ____
ROOT
ATOM      1  C   UNL     1       1.043   3.246  -0.122  0.00  0.00    +0.134 A 
ATOM      2  C   UNL     1      -0.044   4.076  -0.066  0.00  0.00    +0.127 A 
ATOM      3  N   UNL     1      -1.306   3.545  -0.209  0.00  0.00    -0.276 N 
ATOM      4  C   UNL     1      -1.471   2.224  -0.408  0.00  0.00    +0.331 A 
ATOM      5  O   UNL     1      -2.593   1.774  -0.538  0.00  0.00    -0.246 OA
ATOM      6  N   UNL     1      -0.414   1.394  -0.460  0.00  0.00    -0.273 N 
ATOM      7  H   UNL     1      -0.560   0.415  -0.600  0.00  0.00    +0.173 HD
ATOM      8  C   UNL     1       0.840   1.869  -0.325  0.00  0.00    +0.277 A 
ATOM      9  O   UNL     1       1.793   1.110  -0.378  0.00  0.00    -0.266 OA
ENDROOT
BRANCH   2  10
ATOM     10  N   UNL     1       0.123   5.427   0.131  0.00  0.00    -0.343 N 
ATOM     11  H   UNL     1       1.014   5.796   0.232  0.00  0.00    +0.144 HD
ATOM     12  H   UNL     1      -0.651   6.011   0.170  0.00  0.00    +0.144 HD
ENDBRANCH   2  10
BRANCH   1  13
ATOM     13  N   UNL     1       2.350   3.766   0.021  0.00  0.00    -0.315 N 
BRANCH  13  15
ATOM     14  C   UNL     1       2.424   3.933   2.463  0.00  0.00    +0.024 C 
ATOM     15  C   UNL     1       2.998   3.235   1.228  0.00  0.00    +0.102 C 
ENDBRANCH  13  15
BRANCH  13  16
ATOM     16  C   UNL     1       3.159   3.492  -1.174  0.00  0.00    +0.201 C 
BRANCH  16  17
ATOM     17  C   UNL     1       4.375   4.382  -1.172  0.00  0.00    +0.230 C 
ATOM     18  O   UNL     1       4.495   5.244  -0.327  0.00  0.00    -0.274 OA
ATOM     19  N   UNL     1       5.330   4.221  -2.109  0.00  0.00    -0.314 N 
ATOM     20  H   UNL     1       5.235   3.532  -2.785  0.00  0.00    +0.149 HD
BRANCH  19  21
ATOM     21  C   UNL     1       6.512   5.086  -2.107  0.00  0.00    +0.108 C 
BRANCH  21  22
ATOM     22  C   UNL     1       7.432   4.696  -3.266  0.00  0.00    +0.049 C 
BRANCH  22  23
ATOM     23  C   UNL     1       8.648   5.587  -3.264  0.00  0.00    -0.072 C 
ATOM     24  C   UNL     1       9.713   5.158  -2.666  0.00  0.00    -0.028 C 
ATOM     25  C   UNL     1      10.994   5.934  -2.572  0.00  0.00    +0.027 C 
ATOM     26  C   UNL     1      11.006   7.059  -3.608  0.00  0.00    +0.004 C 
ATOM     27  C   UNL     1       9.685   7.832  -3.501  0.00  0.00    +0.005 C 
ATOM     28  C   UNL     1       8.550   6.912  -3.961  0.00  0.00    +0.030 C 
ENDBRANCH  22  23
ENDBRANCH  21  22
ENDBRANCH  19  21
ENDBRANCH  16  17
ENDBRANCH  13  16
ENDBRANCH   1  13
BRANCH   3  29
ATOM     29  C   UNL     1      -2.477   4.424  -0.151  0.00  0.00    +0.163 C 
BRANCH  29  30
ATOM     30  C   UNL     1      -2.801   4.921  -1.536  0.00  0.00    -0.028 A 
ATOM     31  C   UNL     1      -2.237   6.096  -1.999  0.00  0.00    +0.005 A 
ATOM     32  C   UNL     1      -2.531   6.549  -3.271  0.00  0.00    +0.000 A 
ATOM     33  C   UNL     1      -3.397   5.834  -4.077  0.00  0.00    +0.000 A 
ATOM     34  C   UNL     1      -3.965   4.662  -3.613  0.00  0.00    +0.000 A 
ATOM     35  C   UNL     1      -3.667   4.206  -2.342  0.00  0.00    +0.005 A 
ENDBRANCH  29  30
ENDBRANCH   3  29
TORSDOF 10
