REMARK  Name = ZINC08855098
REMARK  11 active torsions:
REMARK  status: ('A' for Active; 'I' for Inactive)
REMARK    1  A    between atoms: C_1  and  C_2
REMARK    2  A    between atoms: C_5  and  S_8
REMARK    3  A    between atoms: S_8  and  N_11
REMARK    4  A    between atoms: N_14  and  C_17
REMARK    5  A    between atoms: C_20  and  N_34
REMARK    6  A    between atoms: C_21  and  N_23
REMARK    7  A    between atoms: N_23  and  C_24
REMARK    8  A    between atoms: C_24  and  C_25
REMARK    9  A    between atoms: C_28  and  C_31
REMARK   10  A    between atoms: C_31  and  C_32
REMARK   11  A    between atoms: C_31  and  C_33
REMARK                            x       y       z     vdW  Elec       q    Type
REMARK                         _______ _______ _______ _____ _____    ______ ____
ROOT
ATOM      1  C   UNL     1       1.175   2.071   0.226  0.00  0.00    +0.032 A 
ATOM      2  C   UNL     1       2.373   1.430  -0.068  0.00  0.00    +0.025 A 
ATOM      3  C   UNL     1       2.390   0.068  -0.298  0.00  0.00    +0.036 A 
ATOM      4  C   UNL     1       1.218  -0.661  -0.238  0.00  0.00    +0.147 A 
ATOM      5  C   UNL     1       0.017  -0.026   0.055  0.00  0.00    +0.060 A 
ATOM      6  C   UNL     1      -0.004   1.342   0.287  0.00  0.00    +0.048 A 
ENDROOT
BRANCH   1  10
ATOM      7  N   UNL     1       1.440   6.183   0.006  0.00  0.00    -0.174 NA
ATOM      8  C   UNL     1       2.477   5.486   0.782  0.00  0.00    +0.128 C 
ATOM      9  C   UNL     1       2.508   4.018   0.344  0.00  0.00    +0.122 C 
ATOM     10  N   UNL     1       1.158   3.448   0.459  0.00  0.00    -0.327 N 
ATOM     11  C   UNL     1       0.217   4.123  -0.445  0.00  0.00    +0.122 C 
ATOM     12  C   UNL     1       0.093   5.596  -0.040  0.00  0.00    +0.128 C 
BRANCH   7  13
ATOM     13  S   UNL     1       1.781   7.592  -0.794  0.00  0.00    +0.061 S 
ATOM     14  O   UNL     1       0.547   8.280  -0.948  0.00  0.00    -0.153 OA
ATOM     15  O   UNL     1       2.900   8.172  -0.138  0.00  0.00    -0.153 OA
BRANCH  13  20
ATOM     16  C   UNL     1       3.624   6.094  -6.341  0.00  0.00    +0.044 C 
ATOM     17  C   UNL     1       3.163   6.468  -4.956  0.00  0.00    -0.050 A 
ATOM     18  C   UNL     1       1.821   6.691  -4.710  0.00  0.00    +0.005 A 
ATOM     19  C   UNL     1       1.399   7.035  -3.439  0.00  0.00    +0.029 A 
ATOM     20  C   UNL     1       2.319   7.155  -2.414  0.00  0.00    +0.105 A 
ATOM     21  C   UNL     1       3.662   6.936  -2.661  0.00  0.00    +0.029 A 
ATOM     22  C   UNL     1       4.083   6.589  -3.931  0.00  0.00    +0.005 A 
ENDBRANCH  13  20
ENDBRANCH   7  13
ENDBRANCH   1  10
BRANCH   4  23
ATOM     23  N   UNL     1       1.241  -2.120  -0.486  0.00  0.00    +0.058 N 
ATOM     24  O   UNL     1       2.175  -2.791  -0.085  0.00  0.00    -0.126 OA
ATOM     25  O   UNL     1       0.326  -2.650  -1.091  0.00  0.00    -0.126 OA
ENDBRANCH   4  23
BRANCH   5  26
ATOM     26  N   UNL     1      -1.167  -0.764   0.115  0.00  0.00    -0.338 N 
ATOM     27  H   UNL     1      -1.141  -1.730   0.038  0.00  0.00    +0.146 HD
BRANCH  26  28
ATOM     28  C   UNL     1      -2.449  -0.078   0.297  0.00  0.00    +0.137 C 
BRANCH  28  29
ATOM     29  C   UNL     1      -3.562  -1.093   0.329  0.00  0.00    -0.030 A 
ATOM     30  C   UNL     1      -4.195  -1.462  -0.843  0.00  0.00    +0.005 A 
ATOM     31  C   UNL     1      -5.213  -2.397  -0.814  0.00  0.00    +0.004 A 
ATOM     32  C   UNL     1      -5.604  -2.956   0.388  0.00  0.00    -0.045 A 
ATOM     33  C   UNL     1      -4.975  -2.583   1.561  0.00  0.00    +0.004 A 
ATOM     34  C   UNL     1      -3.954  -1.651   1.531  0.00  0.00    +0.005 A 
BRANCH  32  35
ATOM     35  C   UNL     1      -6.717  -3.972   0.420  0.00  0.00    +0.013 C 
ATOM     36  C   UNL     1      -7.999  -3.342  -0.129  0.00  0.00    +0.012 C 
ATOM     37  C   UNL     1      -6.332  -5.177  -0.440  0.00  0.00    +0.012 C 
ENDBRANCH  32  35
ENDBRANCH  28  29
ENDBRANCH  26  28
ENDBRANCH   5  26
TORSDOF 8
