REMARK  Name = ZINC36643794
REMARK  8 active torsions:
REMARK  status: ('A' for Active; 'I' for Inactive)
REMARK    1  A    between atoms: C_1  and  N_2
REMARK    2  A    between atoms: N_2  and  C_3
REMARK    3  A    between atoms: N_2  and  C_4
REMARK    4  A    between atoms: C_4  and  C_5
REMARK    5  A    between atoms: C_5  and  C_6
REMARK    6  A    between atoms: C_6  and  N_7
REMARK    7  A    between atoms: C_19  and  C_21
REMARK    8  A    between atoms: C_23  and  C_31
REMARK                            x       y       z     vdW  Elec       q    Type
REMARK                         _______ _______ _______ _____ _____    ______ ____
ROOT
ATOM      1  N   UNL     1      -2.755  -4.042   0.005  0.00  0.00    -0.246 N 
ATOM      2  C   UNL     1      -2.740  -4.742   1.200  0.00  0.00    +0.168 A 
ATOM      3  N   UNL     1      -2.748  -4.276   2.427  0.00  0.00    -0.221 NA
ATOM      4  C   UNL     1      -2.731  -5.083   3.511  0.00  0.00    +0.116 A 
ATOM      5  C   UNL     1      -2.736  -4.712   4.877  0.00  0.00    +0.152 A 
ATOM      6  C   UNL     1      -2.716  -5.666   5.863  0.00  0.00    +0.079 A 
ATOM      7  C   UNL     1      -2.690  -7.022   5.559  0.00  0.00    +0.127 A 
ATOM      8  C   UNL     1      -2.685  -7.419   4.233  0.00  0.00    +0.055 A 
ATOM      9  C   UNL     1      -2.705  -6.470   3.241  0.00  0.00    +0.046 A 
ATOM     10  S   UNL     1      -2.714  -6.509   1.464  0.00  0.00    -0.052 S 
ATOM     11  F   UNL     1      -2.670  -7.943   6.548  0.00  0.00    -0.205 F 
ATOM     12  F   UNL     1      -2.761  -3.404   5.214  0.00  0.00    -0.203 F 
ATOM     13  C   UNL     1      -2.750  -4.709  -1.166  0.00  0.00    +0.253 C 
ATOM     14  O   UNL     1      -2.632  -5.918  -1.176  0.00  0.00    -0.270 OA
ENDROOT
BRANCH  13  15
ATOM     15  C   UNL     1      -2.889  -3.969  -2.438  0.00  0.00    +0.048 A 
ATOM     16  C   UNL     1      -3.959  -3.117  -2.664  0.00  0.00    +0.042 A 
ATOM     17  C   UNL     1      -4.051  -2.433  -3.889  0.00  0.00    +0.079 A 
ATOM     18  N   UNL     1      -3.149  -2.572  -4.841  0.00  0.00    -0.246 NA
ATOM     19  C   UNL     1      -2.088  -3.371  -4.707  0.00  0.00    +0.072 A 
ATOM     20  C   UNL     1      -1.897  -4.102  -3.507  0.00  0.00    +0.013 A 
ATOM     21  C   UNL     1      -0.781  -4.933  -3.369  0.00  0.00    +0.011 A 
ATOM     22  C   UNL     1       0.119  -5.028  -4.390  0.00  0.00    +0.001 A 
ATOM     23  C   UNL     1      -0.060  -4.308  -5.569  0.00  0.00    +0.002 A 
ATOM     24  C   UNL     1      -1.142  -3.499  -5.740  0.00  0.00    +0.028 A 
BRANCH  17  25
ATOM     25  C   UNL     1      -5.195  -1.530  -4.117  0.00  0.00    +0.038 A 
ATOM     26  C   UNL     1      -5.542  -0.846  -5.253  0.00  0.00    +0.017 A 
ATOM     27  C   UNL     1      -6.666  -0.053  -5.230  0.00  0.00    +0.008 A 
ATOM     28  C   UNL     1      -7.397   0.027  -4.087  0.00  0.00    +0.046 A 
ATOM     29  S   UNL     1      -6.493  -1.051  -2.988  0.00  0.00    -0.095 S 
ENDBRANCH  17  25
ENDBRANCH  13  15
BRANCH   1  30
ATOM     30  C   UNL     1      -2.776  -2.577   0.014  0.00  0.00    +0.114 C 
BRANCH  30  31
ATOM     31  C   UNL     1      -1.347  -2.046  -0.116  0.00  0.00    +0.001 C 
BRANCH  31  32
ATOM     32  C   UNL     1      -1.355  -0.522   0.018  0.00  0.00    -0.078 C 
BRANCH  32  34
ATOM     33  C   UNL     1       0.016   1.446   0.018  0.00  0.00    -0.097 C 
ATOM     34  N   UNL     1       0.027  -0.023   0.010  0.00  0.00    +0.376 N 
ATOM     35  C   UNL     1       0.732  -0.514   1.202  0.00  0.00    -0.097 C 
ATOM     36  H   UNL     1       0.498  -0.351  -0.819  0.00  0.00    -0.083 HD
ENDBRANCH  32  34
ENDBRANCH  31  32
ENDBRANCH  30  31
ENDBRANCH   1  30
TORSDOF 6
