REMARK  Name = ZINC12660064
REMARK  6 active torsions:
REMARK  status: ('A' for Active; 'I' for Inactive)
REMARK    1  A    between atoms: C_1  and  C_2
REMARK    2  A    between atoms: N_6  and  N_7
REMARK    3  A    between atoms: C_8  and  C_10
REMARK    4  A    between atoms: C_26  and  C_42
REMARK    5  A    between atoms: N_32  and  N_33
REMARK    6  A    between atoms: C_34  and  C_36
REMARK                            x       y       z     vdW  Elec       q    Type
REMARK                         _______ _______ _______ _____ _____    ______ ____
ROOT
ATOM      1  C   UNL     1      -2.254   1.686  -1.051  0.00  0.00    +0.016 C 
ATOM      2  C   UNL     1      -0.777   2.068  -1.201  0.00  0.00    -0.007 C 
ATOM      3  C   UNL     1      -0.708   3.587  -1.215  0.00  0.00    +0.017 C 
ATOM      4  C   UNL     1      -1.090   4.165  -2.576  0.00  0.00    +0.058 C 
ATOM      5  C   UNL     1      -0.162   3.568  -3.615  0.00  0.00    +0.059 C 
ATOM      6  N   UNL     1       0.382   4.303  -4.540  0.00  0.00    -0.185 NA
ATOM      7  C   UNL     1       0.073   2.119  -3.543  0.00  0.00    +0.024 C 
ATOM      8  C   UNL     1      -0.259   1.432  -2.455  0.00  0.00    -0.062 C 
ATOM      9  C   UNL     1      -0.082  -0.074  -2.491  0.00  0.00    +0.031 C 
ATOM     10  C   UNL     1       0.704  -0.515  -1.253  0.00  0.00    +0.008 C 
ATOM     11  C   UNL     1       0.002  -0.004   0.002  0.00  0.00    -0.003 C 
ATOM     12  C   UNL     1      -0.019   1.524   0.010  0.00  0.00    +0.002 C 
ATOM     13  C   UNL     1       1.428   2.024  -0.001  0.00  0.00    +0.005 C 
ATOM     14  C   UNL     1       2.105   1.585   1.297  0.00  0.00    +0.013 C 
ATOM     15  C   UNL     1       2.065   0.089   1.489  0.00  0.00    +0.011 C 
ATOM     16  C   UNL     1       0.680  -0.533   1.267  0.00  0.00    +0.004 C 
ATOM     17  C   UNL     1       1.007  -2.033   1.043  0.00  0.00    +0.010 C 
ATOM     18  C   UNL     1       2.430  -2.061   0.450  0.00  0.00    +0.053 C 
ATOM     19  C   UNL     1       2.996  -0.658   0.567  0.00  0.00    +0.043 C 
ATOM     20  N   UNL     1       4.049  -0.205   0.000  0.00  0.00    -0.188 NA
ATOM     21  C   UNL     1       2.495  -0.208   2.934  0.00  0.00    +0.018 C 
ENDROOT
BRANCH   6  22
ATOM     22  N   UNL     1       1.216   3.716  -5.501  0.00  0.00    -0.203 N 
ATOM     23  C   UNL     1       1.780   4.477  -6.460  0.00  0.00    +0.263 C 
ATOM     24  O   UNL     1       1.565   5.673  -6.491  0.00  0.00    -0.268 OA
ATOM     25  H   UNL     1       1.387   2.761  -5.476  0.00  0.00    +0.178 HD
BRANCH  23  26
ATOM     26  C   UNL     1       2.660   3.856  -7.475  0.00  0.00    +0.041 A 
ATOM     27  C   UNL     1       2.925   2.483  -7.454  0.00  0.00    +0.033 A 
ATOM     28  C   UNL     1       3.749   1.945  -8.424  0.00  0.00    +0.111 A 
ATOM     29  N   UNL     1       4.290   2.708  -9.352  0.00  0.00    -0.263 NA
ATOM     30  C   UNL     1       4.071   4.007  -9.405  0.00  0.00    +0.111 A 
ATOM     31  C   UNL     1       3.256   4.627  -8.479  0.00  0.00    +0.033 A 
ENDBRANCH  23  26
ENDBRANCH   6  22
BRANCH  20  32
ATOM     32  N   UNL     1       4.809  -1.035  -0.834  0.00  0.00    -0.203 N 
ATOM     33  C   UNL     1       5.919  -0.558  -1.431  0.00  0.00    +0.263 C 
ATOM     34  O   UNL     1       6.261   0.594  -1.246  0.00  0.00    -0.268 OA
ATOM     35  H   UNL     1       4.536  -1.954  -0.981  0.00  0.00    +0.178 HD
BRANCH  33  36
ATOM     36  C   UNL     1       6.722  -1.436  -2.312  0.00  0.00    +0.041 A 
ATOM     37  C   UNL     1       6.350  -2.765  -2.534  0.00  0.00    +0.033 A 
ATOM     38  C   UNL     1       7.125  -3.547  -3.368  0.00  0.00    +0.111 A 
ATOM     39  N   UNL     1       8.207  -3.059  -3.942  0.00  0.00    -0.263 NA
ATOM     40  C   UNL     1       8.596  -1.814  -3.755  0.00  0.00    +0.111 A 
ATOM     41  C   UNL     1       7.877  -0.960  -2.941  0.00  0.00    +0.033 A 
ENDBRANCH  33  36
ENDBRANCH  20  32
TORSDOF 4
