REMARK  Name = ZINC09293454
REMARK  9 active torsions:
REMARK  status: ('A' for Active; 'I' for Inactive)
REMARK    1  A    between atoms: C_1  and  C_2
REMARK    2  A    between atoms: C_5  and  S_8
REMARK    3  A    between atoms: S_8  and  N_11
REMARK    4  A    between atoms: N_11  and  C_12
REMARK    5  A    between atoms: C_17  and  C_18
REMARK    6  A    between atoms: C_18  and  N_20
REMARK    7  A    between atoms: N_22  and  C_32
REMARK    8  A    between atoms: C_25  and  C_31
REMARK    9  A    between atoms: C_26  and  C_30
REMARK                            x       y       z     vdW  Elec       q    Type
REMARK                         _______ _______ _______ _____ _____    ______ ____
ROOT
ATOM      1  C   UNL     1       1.199   1.625  -0.176  0.00  0.00    +0.060 A 
ATOM      2  C   UNL     1       1.345   2.944   0.235  0.00  0.00    +0.025 A 
ATOM      3  C   UNL     1       2.548   3.595   0.056  0.00  0.00    +0.002 A 
ATOM      4  C   UNL     1       3.615   2.944  -0.543  0.00  0.00    +0.001 A 
ATOM      5  C   UNL     1       3.486   1.637  -0.962  0.00  0.00    +0.015 A 
ATOM      6  C   UNL     1       2.276   0.964  -0.783  0.00  0.00    +0.061 A 
ENDROOT
BRANCH   1   7
ATOM      7  N   UNL     1      -0.011   0.966   0.007  0.00  0.00    -0.216 N 
ATOM      8  H   UNL     1      -0.020   0.020   0.222  0.00  0.00    +0.174 HD
BRANCH   7   9
ATOM      9  S   UNL     1      -1.437   1.794  -0.147  0.00  0.00    +0.072 S 
ATOM     10  O   UNL     1      -2.478   0.833  -0.038  0.00  0.00    -0.150 OA
ATOM     11  O   UNL     1      -1.347   2.921   0.713  0.00  0.00    -0.150 OA
BRANCH   9  16
ATOM     12  C   UNL     1      -1.655   3.939  -5.782  0.00  0.00    +0.044 C 
ATOM     13  C   UNL     1      -1.600   3.403  -4.375  0.00  0.00    -0.050 A 
ATOM     14  C   UNL     1      -2.118   2.154  -4.090  0.00  0.00    +0.005 A 
ATOM     15  C   UNL     1      -2.068   1.662  -2.799  0.00  0.00    +0.029 A 
ATOM     16  C   UNL     1      -1.500   2.420  -1.793  0.00  0.00    +0.109 A 
ATOM     17  C   UNL     1      -0.986   3.672  -2.076  0.00  0.00    +0.029 A 
ATOM     18  C   UNL     1      -1.031   4.161  -3.368  0.00  0.00    +0.005 A 
ENDBRANCH   9  16
ENDBRANCH   7   9
ENDBRANCH   1   7
BRANCH   6  19
ATOM     19  C   UNL     1       2.132  -0.437  -1.230  0.00  0.00    +0.271 C 
ATOM     20  O   UNL     1       1.075  -1.022  -1.071  0.00  0.00    -0.268 OA
BRANCH  19  21
ATOM     21  N   UNL     1       3.163  -1.064  -1.808  0.00  0.00    -0.152 NA
ATOM     22  C   UNL     1       3.034  -2.323  -2.210  0.00  0.00    +0.166 A 
ATOM     23  N   UNL     1       3.961  -3.117  -2.812  0.00  0.00    -0.324 N 
ATOM     24  C   UNL     1       3.640  -4.415  -3.161  0.00  0.00    +0.058 A 
ATOM     25  C   UNL     1       4.453  -5.376  -3.783  0.00  0.00    +0.030 A 
ATOM     26  C   UNL     1       3.969  -6.633  -4.061  0.00  0.00    -0.046 A 
ATOM     27  C   UNL     1       2.670  -6.989  -3.738  0.00  0.00    -0.046 A 
ATOM     28  C   UNL     1       1.847  -6.062  -3.125  0.00  0.00    +0.020 A 
ATOM     29  C   UNL     1       2.330  -4.805  -2.846  0.00  0.00    +0.039 A 
ATOM     30  S   UNL     1       1.645  -3.354  -2.087  0.00  0.00    -0.052 S 
ATOM     31  C   UNL     1       2.160  -8.372  -4.051  0.00  0.00    +0.044 C 
ATOM     32  C   UNL     1       4.868  -7.640  -4.729  0.00  0.00    +0.044 C 
ATOM     33  C   UNL     1       5.301  -2.595  -3.089  0.00  0.00    +0.151 C 
ENDBRANCH  19  21
ENDBRANCH   6  19
TORSDOF 5
