REMARK  Name = ZINC63373855
REMARK  10 active torsions:
REMARK  status: ('A' for Active; 'I' for Inactive)
REMARK    1  A    between atoms: C_1  and  C_2
REMARK    2  A    between atoms: C_2  and  C_3
REMARK    3  A    between atoms: C_3  and  C_4
REMARK    4  A    between atoms: C_4  and  O_5
REMARK    5  A    between atoms: O_5  and  C_6
REMARK    6  A    between atoms: C_6  and  C_7
REMARK    7  A    between atoms: C_7  and  C_8
REMARK    8  A    between atoms: C_8  and  N_9
REMARK    9  A    between atoms: C_15  and  C_31
REMARK   10  A    between atoms: C_27  and  C_30
REMARK                            x       y       z     vdW  Elec       q    Type
REMARK                         _______ _______ _______ _____ _____    ______ ____
ROOT
ATOM      1  N   UNL     1      -5.826  -6.326   0.017  0.00  0.00    -0.291 N 
ATOM      2  C   UNL     1      -6.558  -6.535   1.280  0.00  0.00    +0.203 C 
ATOM      3  C   UNL     1      -7.893  -5.827   1.189  0.00  0.00    +0.234 C 
ATOM      4  O   UNL     1      -8.334  -5.181   2.116  0.00  0.00    -0.274 OA
ATOM      5  N   UNL     1      -8.581  -5.951   0.005  0.00  0.00    -0.283 N 
ATOM      6  C   UNL     1      -9.752  -5.109  -0.170  0.00  0.00    +0.121 C 
ATOM      7  C   UNL     1     -10.662  -5.564  -1.315  0.00  0.00    +0.065 C 
ATOM      8  C   UNL     1      -9.746  -5.987  -2.435  0.00  0.00    -0.027 C 
ATOM      9  C   UNL     1      -9.596  -5.565  -3.682  0.00  0.00    -0.000 A 
ATOM     10  C   UNL     1     -10.357  -4.603  -4.495  0.00  0.00    +0.010 A 
ATOM     11  C   UNL     1      -9.900  -4.388  -5.756  0.00  0.00    +0.001 A 
ATOM     12  C   UNL     1      -8.773  -5.025  -6.285  0.00  0.00    +0.002 A 
ATOM     13  C   UNL     1      -8.019  -5.932  -5.614  0.00  0.00    +0.026 A 
ATOM     14  C   UNL     1      -8.409  -6.252  -4.281  0.00  0.00    +0.043 A 
ATOM     15  N   UNL     1      -7.896  -7.096  -3.433  0.00  0.00    -0.375 N 
ATOM     16  C   UNL     1      -8.728  -7.097  -2.231  0.00  0.00    +0.139 C 
ATOM     17  C   UNL     1      -7.986  -6.865  -0.953  0.00  0.00    +0.135 C 
ATOM     18  C   UNL     1      -6.533  -6.513  -1.138  0.00  0.00    +0.242 C 
ATOM     19  O   UNL     1      -6.025  -6.407  -2.235  0.00  0.00    -0.273 OA
ATOM     20  C   UNL     1      -7.959  -8.223  -0.247  0.00  0.00    +0.044 C 
ATOM     21  H   UNL     1      -7.100  -7.631  -3.575  0.00  0.00    +0.160 HD
ENDROOT
BRANCH   7  22
ATOM     22  C   UNL     1     -11.539  -4.423  -1.762  0.00  0.00    -0.039 A 
ATOM     23  C   UNL     1     -10.969  -3.262  -2.249  0.00  0.00    +0.006 A 
ATOM     24  C   UNL     1     -11.774  -2.216  -2.660  0.00  0.00    +0.020 A 
ATOM     25  C   UNL     1     -13.150  -2.332  -2.584  0.00  0.00    +0.041 A 
ATOM     26  C   UNL     1     -13.721  -3.494  -2.097  0.00  0.00    +0.020 A 
ATOM     27  C   UNL     1     -12.915  -4.542  -1.692  0.00  0.00    +0.006 A 
ATOM     28 CL   UNL     1     -14.162  -1.018  -3.099  0.00  0.00    -0.084 Cl
ENDBRANCH   7  22
BRANCH   1  29
ATOM     29  C   UNL     1      -4.415  -5.931   0.001  0.00  0.00    +0.110 C 
BRANCH  29  30
ATOM     30  C   UNL     1      -4.312  -4.404   0.008  0.00  0.00    +0.047 C 
BRANCH  30  31
ATOM     31  C   UNL     1      -2.839  -3.992  -0.008  0.00  0.00    +0.161 C 
BRANCH  31  32
ATOM     32  O   UNL     1      -2.743  -2.567  -0.002  0.00  0.00    -0.380 OA
BRANCH  32  33
ATOM     33  C   UNL     1      -1.402  -2.074  -0.016  0.00  0.00    +0.160 C 
BRANCH  33  34
ATOM     34  C   UNL     1      -1.420  -0.544  -0.008  0.00  0.00    +0.028 C 
BRANCH  34  36
ATOM     35  C   UNL     1      -0.002   1.513  -0.015  0.00  0.00    +0.004 C 
ATOM     36  C   UNL     1       0.016  -0.017  -0.023  0.00  0.00    -0.001 C 
ENDBRANCH  34  36
ENDBRANCH  33  34
ENDBRANCH  32  33
ENDBRANCH  31  32
ENDBRANCH  30  31
ENDBRANCH  29  30
ENDBRANCH   1  29
TORSDOF 8
