REMARK  Name = ZINC39553967
REMARK  10 active torsions:
REMARK  status: ('A' for Active; 'I' for Inactive)
REMARK    1  A    between atoms: C_1  and  C_2
REMARK    2  A    between atoms: C_3  and  C_35
REMARK    3  A    between atoms: C_7  and  N_8
REMARK    4  A    between atoms: C_9  and  C_11
REMARK    5  A    between atoms: C_18  and  S_20
REMARK    6  A    between atoms: S_20  and  C_21
REMARK    7  A    between atoms: C_21  and  C_23
REMARK    8  A    between atoms: C_21  and  C_24
REMARK    9  A    between atoms: N_26  and  C_27
REMARK   10  A    between atoms: C_27  and  C_33
REMARK                            x       y       z     vdW  Elec       q    Type
REMARK                         _______ _______ _______ _____ _____    ______ ____
ROOT
ATOM      1  C   UNL     1      -0.018   1.503   0.010  0.00  0.00    +0.048 C 
ATOM      2  C   UNL     1       0.002  -0.004   0.002  0.00  0.00    +0.003 A 
ATOM      3  C   UNL     1       0.009  -0.804  -1.073  0.00  0.00    +0.108 A 
ATOM      4  O   UNL     1       0.028  -2.095  -0.690  0.00  0.00    -0.442 OA
ATOM      5  C   UNL     1       0.034  -2.198   0.650  0.00  0.00    +0.233 A 
ATOM      6  C   UNL     1       0.025  -0.891   1.168  0.00  0.00    +0.083 A 
ATOM      7  C   UNL     1       0.036  -0.711   2.557  0.00  0.00    +0.141 A 
ATOM      8  N   UNL     1       0.058  -1.789   3.334  0.00  0.00    -0.206 NA
ATOM      9  C   UNL     1       0.070  -3.008   2.808  0.00  0.00    +0.194 A 
ATOM     10  N   UNL     1       0.052  -3.219   1.501  0.00  0.00    -0.186 NA
ATOM     11  C   UNL     1      -0.004  -0.328  -2.503  0.00  0.00    +0.086 C 
ENDROOT
BRANCH   7  12
ATOM     12  N   UNL     1       0.023   0.562   3.109  0.00  0.00    -0.266 N 
ATOM     13  C   UNL     1       0.034   0.716   4.448  0.00  0.00    +0.249 C 
ATOM     14  O   UNL     1       0.055  -0.260   5.172  0.00  0.00    -0.270 OA
ATOM     15  H   UNL     1       0.007   1.341   2.531  0.00  0.00    +0.157 HD
BRANCH  13  16
ATOM     16  C   UNL     1       0.021   2.072   5.035  0.00  0.00    +0.037 A 
ATOM     17  C   UNL     1      -0.009   3.195   4.207  0.00  0.00    +0.013 A 
ATOM     18  C   UNL     1      -0.022   4.458   4.762  0.00  0.00    +0.001 A 
ATOM     19  C   UNL     1      -0.005   4.613   6.136  0.00  0.00    +0.000 A 
ATOM     20  C   UNL     1       0.025   3.504   6.964  0.00  0.00    +0.001 A 
ATOM     21  C   UNL     1       0.032   2.235   6.422  0.00  0.00    +0.013 A 
ENDBRANCH  13  16
ENDBRANCH   7  12
BRANCH   9  22
ATOM     22  S   UNL     1       0.099  -4.398   3.890  0.00  0.00    -0.073 S 
BRANCH  22  23
ATOM     23  C   UNL     1       0.108  -5.825   2.771  0.00  0.00    +0.137 C 
ATOM     24  C   UNL     1      -1.207  -5.869   1.990  0.00  0.00    +0.029 C 
BRANCH  23  25
ATOM     25  C   UNL     1       0.257  -7.092   3.574  0.00  0.00    +0.227 C 
ATOM     26  O   UNL     1      -0.096  -7.120   4.734  0.00  0.00    -0.275 OA
ATOM     27  N   UNL     1       0.783  -8.194   3.003  0.00  0.00    -0.296 N 
ATOM     28  H   UNL     1       1.065  -8.171   2.075  0.00  0.00    +0.150 HD
BRANCH  27  29
ATOM     29  C   UNL     1       0.928  -9.425   3.783  0.00  0.00    +0.121 C 
ATOM     30  C   UNL     1       1.837  -9.163   4.985  0.00  0.00    +0.041 C 
ATOM     31  C   UNL     1       1.988 -10.449   5.800  0.00  0.00    +0.003 C 
ATOM     32  C   UNL     1       2.606 -11.539   4.923  0.00  0.00    +0.000 C 
ATOM     33  C   UNL     1       1.697 -11.801   3.720  0.00  0.00    +0.003 C 
ATOM     34  C   UNL     1       1.546 -10.515   2.905  0.00  0.00    +0.041 C 
BRANCH  29  35
ATOM     35  C   UNL     1      -0.395  -9.866   4.255  0.00  0.00    +0.088 C 
ATOM     36  N   UNL     1      -1.416 -10.206   4.619  0.00  0.00    -0.194 NA
ENDBRANCH  29  35
ENDBRANCH  27  29
ENDBRANCH  23  25
ENDBRANCH  22  23
ENDBRANCH   9  22
TORSDOF 7
