REMARK  Name = ZINC03414144
REMARK  10 active torsions:
REMARK  status: ('A' for Active; 'I' for Inactive)
REMARK    1  A    between atoms: C_1  and  N_49
REMARK    2  A    between atoms: C_2  and  N_49
REMARK    3  A    between atoms: C_3  and  C_5
REMARK    4  A    between atoms: C_3  and  C_26
REMARK    5  A    between atoms: C_3  and  N_49
REMARK    6  A    between atoms: C_5  and  N_6
REMARK    7  A    between atoms: C_7  and  C_9
REMARK    8  A    between atoms: C_12  and  N_15
REMARK    9  A    between atoms: N_15  and  S_16
REMARK   10  A    between atoms: S_16  and  C_19
REMARK                            x       y       z     vdW  Elec       q    Type
REMARK                         _______ _______ _______ _____ _____    ______ ____
ROOT
ATOM      1  C   UNL     1       6.031   1.637   2.069  0.00  0.00    +0.037 A 
ATOM      2  C   UNL     1       6.777   0.978   1.087  0.00  0.00    +0.015 A 
ATOM      3  C   UNL     1       8.078   0.610   1.345  0.00  0.00    +0.025 A 
ATOM      4  C   UNL     1       8.646   0.882   2.586  0.00  0.00    +0.048 A 
ATOM      5  C   UNL     1       7.904   1.533   3.568  0.00  0.00    +0.025 A 
ATOM      6  C   UNL     1       6.605   1.909   3.314  0.00  0.00    +0.015 A 
ENDROOT
BRANCH   1   8
ATOM      7  N   UNL     1       4.087   1.777   0.592  0.00  0.00    -0.312 N 
ATOM      8  C   UNL     1       4.639   2.040   1.793  0.00  0.00    +0.244 C 
ATOM      9  O   UNL     1       3.989   2.608   2.649  0.00  0.00    -0.270 OA
ATOM     10  H   UNL     1       4.605   1.323  -0.091  0.00  0.00    +0.149 HD
BRANCH   7  11
ATOM     11  C   UNL     1       2.704   2.176   0.318  0.00  0.00    +0.097 C 
BRANCH  11  12
ATOM     12  C   UNL     1       2.286   1.656  -1.059  0.00  0.00    +0.016 C 
BRANCH  12  13
ATOM     13  C   UNL     1       3.104   2.339  -2.124  0.00  0.00    +0.093 A 
ATOM     14  C   UNL     1       2.701   3.374  -2.883  0.00  0.00    +0.043 A 
ATOM     15  C   UNL     1       3.774   3.690  -3.747  0.00  0.00    +0.041 A 
ATOM     16  C   UNL     1       4.772   2.836  -3.458  0.00  0.00    +0.195 A 
ATOM     17  O   UNL     1       4.359   2.017  -2.477  0.00  0.00    -0.469 OA
ENDBRANCH  12  13
BRANCH  12  20
ATOM     18  C   UNL     1       1.656  -0.503  -0.161  0.00  0.00    -0.096 C 
ATOM     19  C   UNL     1       2.301  -0.300  -2.486  0.00  0.00    -0.096 C 
ATOM     20  N   UNL     1       2.538   0.201  -1.116  0.00  0.00    +0.384 N 
ATOM     21  H   UNL     1       3.516   0.021  -0.860  0.00  0.00    -0.082 HD
ENDBRANCH  12  20
ENDBRANCH  11  12
ENDBRANCH   7  11
ENDBRANCH   1   8
BRANCH   4  22
ATOM     22  N   UNL     1       9.959   0.503   2.846  0.00  0.00    -0.216 N 
ATOM     23  H   UNL     1      10.572   1.131   3.259  0.00  0.00    +0.174 HD
BRANCH  22  24
ATOM     24  S   UNL     1      10.475  -1.019   2.450  0.00  0.00    +0.074 S 
ATOM     25  O   UNL     1      10.140  -1.219   1.083  0.00  0.00    -0.150 OA
ATOM     26  O   UNL     1      11.807  -1.135   2.932  0.00  0.00    -0.150 OA
BRANCH  24  27
ATOM     27  C   UNL     1       9.502  -2.158   3.378  0.00  0.00    +0.135 A 
ATOM     28  C   UNL     1       8.647  -3.037   2.738  0.00  0.00    +0.058 A 
ATOM     29  C   UNL     1       7.917  -3.903   3.482  0.00  0.00    +0.081 A 
ATOM     30  S   UNL     1       8.420  -3.480   5.142  0.00  0.00    -0.063 S 
ATOM     31  C   UNL     1       9.576  -2.182   4.732  0.00  0.00    +0.106 A 
ATOM     32 CL   UNL     1      10.543  -1.205   5.792  0.00  0.00    -0.074 Cl
ATOM     33 CL   UNL     1       6.782  -5.107   2.958  0.00  0.00    -0.076 Cl
ENDBRANCH  24  27
ENDBRANCH  22  24
ENDBRANCH   4  22
TORSDOF 8
