REMARK  Name = ZINC47137997
REMARK  6 active torsions:
REMARK  status: ('A' for Active; 'I' for Inactive)
REMARK    1  A    between atoms: C_3  and  C_6
REMARK    2  A    between atoms: C_6  and  N_7
REMARK    3  A    between atoms: C_11  and  C_12
REMARK    4  A    between atoms: C_17  and  O_18
REMARK    5  A    between atoms: N_22  and  N_23
REMARK    6  A    between atoms: C_24  and  C_25
REMARK                            x       y       z     vdW  Elec       q    Type
REMARK                         _______ _______ _______ _____ _____    ______ ____
ROOT
ATOM      1  N   UNL     1       3.759   0.074   0.931  0.00  0.00    -0.237 N 
ATOM      2  C   UNL     1       4.149   1.258   1.372  0.00  0.00    +0.259 C 
ATOM      3  O   UNL     1       4.018   2.263   0.698  0.00  0.00    -0.269 OA
ATOM      4  C   UNL     1       4.750   1.305   2.718  0.00  0.00    +0.078 C 
ATOM      5  C   UNL     1       5.231   2.370   3.410  0.00  0.00    +0.032 C 
ATOM      6  S   UNL     1       4.674  -0.416   3.194  0.00  0.00    -0.047 S 
ATOM      7  C   UNL     1       3.910  -1.051   1.711  0.00  0.00    +0.190 C 
ATOM      8  N   UNL     1       3.574  -2.295   1.429  0.00  0.00    -0.126 NA
ENDROOT
BRANCH   5   9
ATOM      9  C   UNL     1       5.621   2.216   4.817  0.00  0.00    +0.019 A 
ATOM     10  C   UNL     1       5.165   1.119   5.558  0.00  0.00    +0.026 A 
ATOM     11  C   UNL     1       5.537   0.981   6.878  0.00  0.00    +0.019 A 
ATOM     12  C   UNL     1       6.359   1.923   7.476  0.00  0.00    +0.019 A 
ATOM     13  C   UNL     1       6.815   3.011   6.756  0.00  0.00    +0.047 A 
ATOM     14  C   UNL     1       6.458   3.165   5.427  0.00  0.00    +0.124 A 
ATOM     15 BR   UNL     1       4.921  -0.501   7.879  0.00  0.00    -0.050 Br
BRANCH  14  16
ATOM     16  O   UNL     1       6.911   4.230   4.718  0.00  0.00    -0.506 OA
ATOM     17  H   UNL     1       6.333   5.005   4.760  0.00  0.00    +0.292 HD
ENDBRANCH  14  16
ENDBRANCH   5   9
BRANCH   8  18
ATOM     18  N   UNL     1       3.792  -3.232   2.289  0.00  0.00    -0.155 NA
ATOM     19  C   UNL     1       3.459  -4.464   2.010  0.00  0.00    +0.143 C 
BRANCH  19  20
ATOM     20  C   UNL     1       2.948  -4.803   0.673  0.00  0.00    -0.005 A 
ATOM     21  C   UNL     1       2.682  -3.791  -0.255  0.00  0.00    +0.012 A 
ATOM     22  C   UNL     1       2.204  -4.117  -1.506  0.00  0.00    +0.039 A 
ATOM     23  C   UNL     1       1.987  -5.443  -1.846  0.00  0.00    +0.123 A 
ATOM     24  C   UNL     1       2.248  -6.451  -0.930  0.00  0.00    +0.039 A 
ATOM     25  C   UNL     1       2.732  -6.140   0.322  0.00  0.00    +0.012 A 
ATOM     26  F   UNL     1       1.518  -5.755  -3.074  0.00  0.00    -0.205 F 
ENDBRANCH  19  20
ENDBRANCH   8  18
BRANCH   1  27
ATOM     27  C   UNL     1       3.154  -0.041  -0.399  0.00  0.00    +0.190 C 
BRANCH  27  30
ATOM     28  C   UNL     1      -0.373   1.014  -0.220  0.00  0.00    +0.041 A 
ATOM     29  C   UNL     1       1.001   1.307  -0.378  0.00  0.00    +0.046 A 
ATOM     30  C   UNL     1       1.661   0.139  -0.289  0.00  0.00    +0.123 A 
ATOM     31  O   UNL     1       0.765  -0.841  -0.086  0.00  0.00    -0.466 OA
ATOM     32  C   UNL     1      -0.470  -0.316  -0.043  0.00  0.00    +0.195 A 
ENDBRANCH  27  30
ENDBRANCH   1  27
TORSDOF 6
