REMARK  Name = ZINC23957046
REMARK  7 active torsions:
REMARK  status: ('A' for Active; 'I' for Inactive)
REMARK    1  A    between atoms: C_3  and  C_34
REMARK    2  A    between atoms: C_6  and  C_7
REMARK    3  A    between atoms: C_7  and  N_8
REMARK    4  A    between atoms: C_14  and  C_16
REMARK    5  A    between atoms: C_19  and  N_22
REMARK    6  A    between atoms: N_22  and  S_23
REMARK    7  A    between atoms: S_23  and  C_26
REMARK                            x       y       z     vdW  Elec       q    Type
REMARK                         _______ _______ _______ _____ _____    ______ ____
ROOT
ATOM      1  C   UNL     1      -1.263  -4.274  -5.469  0.00  0.00    +0.037 A 
ATOM      2  C   UNL     1      -2.296  -5.214  -5.507  0.00  0.00    +0.015 A 
ATOM      3  C   UNL     1      -3.529  -4.859  -6.006  0.00  0.00    +0.027 A 
ATOM      4  C   UNL     1      -3.743  -3.569  -6.482  0.00  0.00    +0.074 A 
ATOM      5  C   UNL     1      -2.714  -2.632  -6.451  0.00  0.00    +0.027 A 
ATOM      6  C   UNL     1      -1.481  -2.979  -5.948  0.00  0.00    +0.015 A 
ENDROOT
BRANCH   1  13
ATOM      7  N   UNL     1       1.436  -2.650  -1.657  0.00  0.00    -0.295 NA
ATOM      8  C   UNL     1       0.094  -2.390  -2.196  0.00  0.00    +0.103 C 
ATOM      9  C   UNL     1       0.128  -2.515  -3.723  0.00  0.00    +0.123 C 
ATOM     10  N   UNL     1       0.695  -3.827  -4.072  0.00  0.00    -0.295 N 
ATOM     11  C   UNL     1       1.974  -4.217  -3.461  0.00  0.00    +0.123 C 
ATOM     12  C   UNL     1       1.868  -4.025  -1.944  0.00  0.00    +0.103 C 
ATOM     13  C   UNL     1       0.058  -4.649  -4.929  0.00  0.00    +0.247 C 
ATOM     14  O   UNL     1       0.573  -5.701  -5.258  0.00  0.00    -0.270 OA
BRANCH   7  15
ATOM     15  C   UNL     1       1.487  -2.373  -0.215  0.00  0.00    +0.119 C 
BRANCH  15  21
ATOM     16  C   UNL     1      -0.002  -0.406   0.204  0.00  0.00    +0.006 A 
ATOM     17  C   UNL     1      -0.200   0.942   0.421  0.00  0.00    +0.019 A 
ATOM     18  C   UNL     1       0.894   1.809   0.454  0.00  0.00    +0.052 A 
ATOM     19  C   UNL     1       2.182   1.305   0.267  0.00  0.00    +0.019 A 
ATOM     20  C   UNL     1       2.366  -0.045   0.051  0.00  0.00    +0.006 A 
ATOM     21  C   UNL     1       1.278  -0.899   0.020  0.00  0.00    -0.033 A 
BRANCH  18  22
ATOM     22  C   UNL     1       0.695   3.210   0.678  0.00  0.00    +0.099 C 
ATOM     23  N   UNL     1       0.537   4.321   0.856  0.00  0.00    -0.191 NA
ENDBRANCH  18  22
ENDBRANCH  15  21
ENDBRANCH   7  15
ENDBRANCH   1  13
BRANCH   4  24
ATOM     24  N   UNL     1      -4.988  -3.215  -6.991  0.00  0.00    -0.098 NA
BRANCH  24  25
ATOM     25  S   UNL     1      -5.773  -4.228  -8.040  0.00  0.00    +0.092 S 
ATOM     26  O   UNL     1      -5.786  -5.512  -7.430  0.00  0.00    -0.148 OA
ATOM     27  O   UNL     1      -6.963  -3.561  -8.436  0.00  0.00    -0.148 OA
BRANCH  25  28
ATOM     28  C   UNL     1      -4.769  -4.365  -9.481  0.00  0.00    +0.113 A 
ATOM     29  C   UNL     1      -4.868  -3.419 -10.484  0.00  0.00    +0.032 A 
ATOM     30  C   UNL     1      -4.077  -3.521 -11.613  0.00  0.00    +0.043 A 
ATOM     31  C   UNL     1      -3.194  -4.578 -11.746  0.00  0.00    +0.159 A 
ATOM     32  C   UNL     1      -3.099  -5.530 -10.743  0.00  0.00    +0.160 A 
ATOM     33  C   UNL     1      -3.887  -5.422  -9.611  0.00  0.00    +0.070 A 
ATOM     34  F   UNL     1      -2.236  -6.563 -10.870  0.00  0.00    -0.202 F 
ATOM     35  F   UNL     1      -2.424  -4.681 -12.852  0.00  0.00    -0.202 F 
ENDBRANCH  25  28
ENDBRANCH  24  25
ENDBRANCH   4  24
TORSDOF 7
