REMARK  Name = ZINC39007357
REMARK  9 active torsions:
REMARK  status: ('A' for Active; 'I' for Inactive)
REMARK    1  A    between atoms: C_1  and  C_2
REMARK    2  A    between atoms: C_2  and  C_3
REMARK    3  A    between atoms: C_5  and  C_19
REMARK    4  A    between atoms: C_6  and  O_18
REMARK    5  A    between atoms: C_8  and  O_9
REMARK    6  A    between atoms: O_9  and  C_10
REMARK    7  A    between atoms: C_10  and  C_11
REMARK    8  A    between atoms: C_21  and  C_26
REMARK    9  A    between atoms: C_22  and  C_25
REMARK                            x       y       z     vdW  Elec       q    Type
REMARK                         _______ _______ _______ _____ _____    ______ ____
ROOT
ATOM      1  C   UNL     1      -1.412  -0.526   0.013  0.00  0.00    -0.005 A 
ATOM      2  C   UNL     1      -2.014  -0.864   1.210  0.00  0.00    +0.016 A 
ATOM      3  C   UNL     1      -3.310  -1.342   1.223  0.00  0.00    +0.023 A 
ATOM      4  C   UNL     1      -4.010  -1.484   0.033  0.00  0.00    +0.126 A 
ATOM      5  C   UNL     1      -3.409  -1.146  -1.169  0.00  0.00    +0.091 A 
ATOM      6  C   UNL     1      -2.110  -0.661  -1.179  0.00  0.00    +0.128 A 
ENDROOT
BRANCH   3   7
ATOM      7  C   UNL     1      -3.963  -1.710   2.530  0.00  0.00    +0.164 C 
ATOM      8  C   UNL     1      -4.836  -0.573   3.034  0.00  0.00    +0.011 C 
ATOM      9  C   UNL     1      -4.268  -0.236   4.217  0.00  0.00    +0.064 C 
ATOM     10  N   UNL     1      -3.204  -1.008   4.465  0.00  0.00    -0.182 NA
ATOM     11  N   UNL     1      -2.956  -1.852   3.595  0.00  0.00    -0.297 N 
ATOM     12  C   UNL     1      -4.766   0.857   5.127  0.00  0.00    +0.068 C 
ATOM     13  H   UNL     1      -2.228  -2.493   3.610  0.00  0.00    +0.183 HD
BRANCH   8  14
ATOM     14  C   UNL     1      -6.017   0.020   2.390  0.00  0.00    -0.014 A 
ATOM     15  C   UNL     1      -7.176  -0.743   2.212  0.00  0.00    +0.012 A 
ATOM     16  C   UNL     1      -8.284  -0.185   1.609  0.00  0.00    +0.050 A 
ATOM     17  C   UNL     1      -8.248   1.134   1.179  0.00  0.00    +0.162 A 
ATOM     18  C   UNL     1      -7.100   1.898   1.353  0.00  0.00    +0.162 A 
ATOM     19  C   UNL     1      -5.987   1.353   1.960  0.00  0.00    +0.057 A 
ATOM     20  O   UNL     1      -7.082   3.195   0.926  0.00  0.00    -0.488 OA
ATOM     21  C   UNL     1      -7.123   3.387  -0.490  0.00  0.00    +0.232 C 
ATOM     22  C   UNL     1      -8.556   3.356  -0.997  0.00  0.00    +0.082 C 
ATOM     23  C   UNL     1      -9.209   1.997  -0.805  0.00  0.00    +0.232 C 
ATOM     24  O   UNL     1      -9.342   1.689   0.584  0.00  0.00    -0.488 OA
ENDBRANCH   8  14
ENDBRANCH   3   7
BRANCH   1  26
ATOM     25  C   UNL     1      -0.019   1.526   0.010  0.00  0.00    +0.009 C 
ATOM     26  C   UNL     1       0.002  -0.004   0.002  0.00  0.00    +0.035 C 
ENDBRANCH   1  26
BRANCH   4  27
ATOM     27  O   UNL     1      -5.285  -1.956   0.047  0.00  0.00    -0.506 OA
ATOM     28  H   UNL     1      -5.958  -1.266   0.131  0.00  0.00    +0.292 HD
ENDBRANCH   4  27
BRANCH   6  29
ATOM     29  O   UNL     1      -1.519  -0.323  -2.355  0.00  0.00    -0.487 OA
BRANCH  29  30
ATOM     30  C   UNL     1      -2.297  -0.488  -3.542  0.00  0.00    +0.264 C 
BRANCH  30  31
ATOM     31  C   UNL     1      -1.483  -0.065  -4.739  0.00  0.00    -0.010 A 
ATOM     32  C   UNL     1      -1.518   1.248  -5.169  0.00  0.00    +0.010 A 
ATOM     33  C   UNL     1      -0.772   1.637  -6.265  0.00  0.00    +0.039 A 
ATOM     34  C   UNL     1       0.011   0.710  -6.933  0.00  0.00    +0.123 A 
ATOM     35  C   UNL     1       0.045  -0.605  -6.501  0.00  0.00    +0.039 A 
ATOM     36  C   UNL     1      -0.698  -0.990  -5.401  0.00  0.00    +0.010 A 
ATOM     37  F   UNL     1       0.740   1.089  -8.005  0.00  0.00    -0.205 F 
ENDBRANCH  30  31
ENDBRANCH  29  30
ENDBRANCH   6  29
TORSDOF 7
