REMARK  Name = ZINC17076286
REMARK  7 active torsions:
REMARK  status: ('A' for Active; 'I' for Inactive)
REMARK    1  A    between atoms: C_1  and  C_2
REMARK    2  A    between atoms: C_2  and  C_27
REMARK    3  A    between atoms: C_6  and  C_16
REMARK    4  A    between atoms: C_11  and  S_13
REMARK    5  A    between atoms: S_13  and  C_14
REMARK    6  A    between atoms: C_19  and  O_23
REMARK    7  A    between atoms: C_20  and  O_22
REMARK                            x       y       z     vdW  Elec       q    Type
REMARK                         _______ _______ _______ _____ _____    ______ ____
ROOT
ATOM      1  C   UNL     1      -0.019   1.526   0.010  0.00  0.00    +0.011 C 
ATOM      2  C   UNL     1       0.002  -0.004   0.002  0.00  0.00    -0.023 C 
ATOM      3  C   UNL     1      -1.431  -0.539   0.041  0.00  0.00    +0.058 C 
ATOM      4  C   UNL     1      -1.407  -2.049   0.073  0.00  0.00    +0.020 C 
ATOM      5  C   UNL     1      -0.397  -2.714   0.673  0.00  0.00    +0.041 C 
ATOM      6  C   UNL     1      -0.354  -4.225   0.736  0.00  0.00    +0.176 C 
ATOM      7  N   UNL     1      -1.319  -4.790  -0.199  0.00  0.00    -0.220 N 
ATOM      8  C   UNL     1      -2.302  -4.064  -0.786  0.00  0.00    +0.219 A 
ATOM      9  N   UNL     1      -2.992  -4.861  -1.555  0.00  0.00    -0.187 NA
ATOM     10  C   UNL     1      -2.481  -6.099  -1.490  0.00  0.00    +0.210 A 
ATOM     11  N   UNL     1      -1.453  -6.096  -0.669  0.00  0.00    -0.141 NA
ATOM     12  N   UNL     1      -2.447  -2.709  -0.537  0.00  0.00    -0.287 N 
ATOM     13  C   UNL     1       0.672  -2.019   1.267  0.00  0.00    +0.164 C 
ATOM     14  O   UNL     1       1.558  -2.646   1.813  0.00  0.00    -0.292 OA
ATOM     15  C   UNL     1       0.742  -0.517   1.242  0.00  0.00    +0.086 C 
ATOM     16  C   UNL     1       0.705  -0.503  -1.262  0.00  0.00    +0.011 C 
ATOM     17  H   UNL     1      -3.259  -2.240  -0.785  0.00  0.00    +0.155 HD
ENDROOT
BRANCH   6  18
ATOM     18  C   UNL     1      -0.691  -4.677   2.133  0.00  0.00    -0.015 A 
ATOM     19  C   UNL     1      -1.917  -4.357   2.686  0.00  0.00    +0.010 A 
ATOM     20  C   UNL     1      -2.230  -4.770   3.967  0.00  0.00    +0.049 A 
ATOM     21  C   UNL     1      -1.314  -5.506   4.701  0.00  0.00    +0.158 A 
ATOM     22  C   UNL     1      -0.080  -5.829   4.145  0.00  0.00    +0.159 A 
ATOM     23  C   UNL     1       0.226  -5.416   2.858  0.00  0.00    +0.055 A 
BRANCH  22  24
ATOM     24  O   UNL     1       0.822  -6.552   4.862  0.00  0.00    -0.503 OA
ATOM     25  H   UNL     1       0.742  -7.508   4.745  0.00  0.00    +0.292 HD
ENDBRANCH  22  24
BRANCH  21  26
ATOM     26  O   UNL     1      -1.621  -5.912   5.963  0.00  0.00    -0.503 OA
ATOM     27  H   UNL     1      -2.051  -6.777   6.003  0.00  0.00    +0.292 HD
ENDBRANCH  21  26
ENDBRANCH   6  18
BRANCH  10  28
ATOM     28  S   UNL     1      -3.089  -7.504  -2.363  0.00  0.00    -0.088 S 
ATOM     29  C   UNL     1      -4.497  -6.859  -3.307  0.00  0.00    +0.093 C 
ENDBRANCH  10  28
TORSDOF 4
