REMARK  Name = ZINC04100146
REMARK  5 active torsions:
REMARK  status: ('A' for Active; 'I' for Inactive)
REMARK    1  A    between atoms: C_3  and  C_6
REMARK    2  A    between atoms: N_7  and  N_8
REMARK    3  A    between atoms: C_9  and  S_11
REMARK    4  A    between atoms: S_11  and  C_12
REMARK    5  A    between atoms: N_17  and  C_20
REMARK                            x       y       z     vdW  Elec       q    Type
REMARK                         _______ _______ _______ _____ _____    ______ ____
ROOT
ATOM      1  C   UNL     1       9.708  -0.376  -0.094  0.00  0.00    +0.149 C 
ATOM      2  C   UNL     1      11.211  -0.037  -0.035  0.00  0.00    +0.120 C 
ATOM      3  C   UNL     1      11.753  -0.603  -1.330  0.00  0.00    +0.228 C 
ATOM      4  O   UNL     1      12.910  -0.553  -1.688  0.00  0.00    -0.275 OA
ATOM      5  N   UNL     1      10.752  -1.167  -2.018  0.00  0.00    -0.208 N 
ATOM      6  C   UNL     1       9.555  -1.099  -1.414  0.00  0.00    +0.240 C 
ATOM      7  O   UNL     1       8.517  -1.544  -1.855  0.00  0.00    -0.274 OA
ENDROOT
BRANCH   5   8
ATOM      8  C   UNL     1      10.938  -1.780  -3.265  0.00  0.00    +0.064 A 
ATOM      9  C   UNL     1      11.239  -3.133  -3.336  0.00  0.00    +0.045 A 
ATOM     10  C   UNL     1      11.422  -3.735  -4.567  0.00  0.00    +0.043 A 
ATOM     11  C   UNL     1      11.306  -2.989  -5.728  0.00  0.00    +0.021 A 
ATOM     12  C   UNL     1      11.007  -1.641  -5.659  0.00  0.00    +0.023 A 
ATOM     13  C   UNL     1      10.817  -1.035  -4.431  0.00  0.00    +0.063 A 
ATOM     14 CL   UNL     1      10.434   0.656  -4.347  0.00  0.00    -0.082 Cl
ATOM     15 CL   UNL     1      11.799  -5.427  -4.658  0.00  0.00    -0.083 Cl
ENDBRANCH   5   8
BRANCH   1  16
ATOM     16  S   UNL     1       8.711   1.140  -0.077  0.00  0.00    -0.078 S 
BRANCH  16  18
ATOM     17  N   UNL     1       6.049   1.415  -0.049  0.00  0.00    -0.259 N 
ATOM     18  C   UNL     1       7.048   0.556  -0.063  0.00  0.00    +0.146 C 
ATOM     19  N   UNL     1       6.794  -0.794  -0.067  0.00  0.00    -0.338 N 
ATOM     20  H   UNL     1       5.879  -1.116  -0.060  0.00  0.00    +0.144 HD
ATOM     21  H   UNL     1       7.530  -1.427  -0.078  0.00  0.00    +0.144 HD
ATOM     22  H   UNL     1       6.229   2.368  -0.046  0.00  0.00    +0.191 HD
BRANCH  17  24
ATOM     23  C   UNL     1       3.735   1.803  -0.025  0.00  0.00    +0.147 C 
ATOM     24  N   UNL     1       4.727   0.951  -0.038  0.00  0.00    -0.179 NA
BRANCH  23  27
ATOM     25  C   UNL     1      -0.016   1.354   0.009  0.00  0.00    +0.008 A 
ATOM     26  C   UNL     1       1.174   2.044   0.002  0.00  0.00    +0.017 A 
ATOM     27  C   UNL     1       2.354   1.319  -0.013  0.00  0.00    +0.032 A 
ATOM     28  S   UNL     1       1.751  -0.362  -0.017  0.00  0.00    -0.096 S 
ATOM     29  C   UNL     1       0.002  -0.004   0.002  0.00  0.00    +0.046 A 
ENDBRANCH  23  27
ENDBRANCH  17  24
ENDBRANCH  16  18
ENDBRANCH   1  16
TORSDOF 5
