REMARK  Name = ZINC29087118
REMARK  9 active torsions:
REMARK  status: ('A' for Active; 'I' for Inactive)
REMARK    1  A    between atoms: C_1  and  C_2
REMARK    2  A    between atoms: C_2  and  C_4
REMARK    3  A    between atoms: C_2  and  N_13
REMARK    4  A    between atoms: C_7  and  C_10
REMARK    5  A    between atoms: C_10  and  C_11
REMARK    6  A    between atoms: C_10  and  C_12
REMARK    7  A    between atoms: C_14  and  C_16
REMARK    8  A    between atoms: C_16  and  C_17
REMARK    9  A    between atoms: C_17  and  N_18
REMARK                            x       y       z     vdW  Elec       q    Type
REMARK                         _______ _______ _______ _____ _____    ______ ____
ROOT
ATOM      1  N   UNL     1       0.688  -0.476  -1.203  0.00  0.00    -0.309 N 
ATOM      2  C   UNL     1       2.031  -0.587  -1.215  0.00  0.00    +0.215 C 
ATOM      3  O   UNL     1       2.672  -0.295  -0.228  0.00  0.00    -0.276 OA
ATOM      4  H   UNL     1       0.175  -0.710  -1.993  0.00  0.00    +0.149 HD
ENDROOT
BRANCH   1   6
ATOM      5  C   UNL     1      -0.019   1.526   0.010  0.00  0.00    +0.033 C 
ATOM      6  C   UNL     1       0.002  -0.004   0.002  0.00  0.00    +0.100 C 
BRANCH   6   7
ATOM      7  C   UNL     1      -1.412  -0.526   0.013  0.00  0.00    -0.027 A 
ATOM      8  C   UNL     1      -2.141  -0.569  -1.161  0.00  0.00    +0.006 A 
ATOM      9  C   UNL     1      -3.438  -1.047  -1.151  0.00  0.00    +0.004 A 
ATOM     10  C   UNL     1      -4.005  -1.483   0.032  0.00  0.00    -0.045 A 
ATOM     11  C   UNL     1      -3.275  -1.441   1.205  0.00  0.00    +0.004 A 
ATOM     12  C   UNL     1      -1.977  -0.966   1.195  0.00  0.00    +0.006 A 
BRANCH  10  13
ATOM     13  C   UNL     1      -5.419  -2.004   0.043  0.00  0.00    +0.013 C 
ATOM     14  C   UNL     1      -5.426  -3.453   0.534  0.00  0.00    +0.012 C 
ATOM     15  C   UNL     1      -6.272  -1.145   0.979  0.00  0.00    +0.012 C 
ENDBRANCH  10  13
ENDBRANCH   6   7
ENDBRANCH   1   6
BRANCH   2  16
ATOM     16  C   UNL     1       2.736  -1.073  -2.455  0.00  0.00    +0.117 C 
BRANCH  16  17
ATOM     17  C   UNL     1       4.245  -1.105  -2.204  0.00  0.00    +0.135 C 
BRANCH  17  18
ATOM     18  N   UNL     1       4.931  -1.578  -3.409  0.00  0.00    -0.298 N 
ATOM     19  C   UNL     1       5.153  -2.907  -3.580  0.00  0.00    +0.202 A 
ATOM     20  N   UNL     1       5.753  -3.404  -4.619  0.00  0.00    -0.237 NA
ATOM     21  C   UNL     1       6.207  -2.612  -5.623  0.00  0.00    +0.078 A 
ATOM     22  C   UNL     1       6.851  -3.146  -6.741  0.00  0.00    +0.029 A 
ATOM     23  C   UNL     1       7.295  -2.306  -7.737  0.00  0.00    +0.017 A 
ATOM     24  C   UNL     1       7.111  -0.932  -7.645  0.00  0.00    +0.019 A 
ATOM     25  C   UNL     1       6.477  -0.382  -6.551  0.00  0.00    +0.030 A 
ATOM     26  C   UNL     1       6.020  -1.215  -5.532  0.00  0.00    +0.066 A 
ATOM     27  C   UNL     1       5.333  -0.686  -4.345  0.00  0.00    +0.262 A 
ATOM     28  O   UNL     1       5.136   0.507  -4.207  0.00  0.00    -0.267 OA
ATOM     29 BR   UNL     1       7.734   0.193  -9.031  0.00  0.00    -0.050 Br
ENDBRANCH  17  18
ENDBRANCH  16  17
ENDBRANCH   2  16
TORSDOF 6
