REMARK  Name = ZINC35003665
REMARK  13 active torsions:
REMARK  status: ('A' for Active; 'I' for Inactive)
REMARK    1  A    between atoms: C_1  and  N_2
REMARK    2  A    between atoms: N_2  and  C_3
REMARK    3  A    between atoms: N_2  and  C_4
REMARK    4  A    between atoms: C_4  and  C_5
REMARK    5  A    between atoms: C_5  and  N_6
REMARK    6  A    between atoms: N_6  and  C_7
REMARK    7  A    between atoms: C_7  and  C_8
REMARK    8  A    between atoms: C_15  and  O_22
REMARK    9  A    between atoms: C_16  and  O_20
REMARK   10  A    between atoms: O_20  and  C_21
REMARK   11  A    between atoms: O_22  and  C_23
REMARK   12  A    between atoms: N_26  and  C_27
REMARK   13  A    between atoms: C_32  and  C_33
REMARK                            x       y       z     vdW  Elec       q    Type
REMARK                         _______ _______ _______ _____ _____    ______ ____
ROOT
ATOM      1  N   UNL     1      -2.738  -2.528  -0.110  0.00  0.00    -0.278 N 
ATOM      2  C   UNL     1      -3.320  -2.875   1.056  0.00  0.00    +0.307 C 
ATOM      3  O   UNL     1      -4.458  -3.303   1.063  0.00  0.00    -0.252 OA
ATOM      4  N   UNL     1      -2.640  -2.747   2.212  0.00  0.00    -0.269 N 
ATOM      5  H   UNL     1      -1.707  -2.483   2.200  0.00  0.00    +0.156 HD
ENDROOT
BRANCH   4   6
ATOM      6  C   UNL     1      -3.281  -2.994   3.432  0.00  0.00    +0.046 A 
ATOM      7  C   UNL     1      -4.660  -2.864   3.532  0.00  0.00    +0.024 A 
ATOM      8  C   UNL     1      -5.290  -3.109   4.736  0.00  0.00    +0.002 A 
ATOM      9  C   UNL     1      -4.549  -3.484   5.842  0.00  0.00    +0.001 A 
ATOM     10  C   UNL     1      -3.176  -3.615   5.745  0.00  0.00    +0.014 A 
ATOM     11  C   UNL     1      -2.541  -3.377   4.542  0.00  0.00    +0.076 A 
BRANCH  11  12
ATOM     12  C   UNL     1      -1.045  -3.526   4.436  0.00  0.00    +0.419 C 
ATOM     13  F   UNL     1      -0.526  -3.916   5.675  0.00  0.00    -0.166 F 
ATOM     14  F   UNL     1      -0.739  -4.496   3.476  0.00  0.00    -0.166 F 
ATOM     15  F   UNL     1      -0.480  -2.303   4.059  0.00  0.00    -0.166 F 
ENDBRANCH  11  12
ENDBRANCH   4   6
BRANCH   1  16
ATOM     16  C   UNL     1      -1.367  -2.012  -0.119  0.00  0.00    +0.091 C 
BRANCH  16  17
ATOM     17  C   UNL     1      -1.394  -0.489   0.026  0.00  0.00    -0.060 C 
BRANCH  17  19
ATOM     18  C   UNL     1      -0.048   1.496   0.035  0.00  0.00    -0.097 C 
ATOM     19  N   UNL     1      -0.019   0.028   0.017  0.00  0.00    +0.377 N 
ATOM     20  C   UNL     1       0.697  -0.463   1.202  0.00  0.00    -0.097 C 
ATOM     21  H   UNL     1       0.454  -0.289  -0.816  0.00  0.00    -0.083 HD
ENDBRANCH  17  19
ENDBRANCH  16  17
ENDBRANCH   1  16
BRANCH   1  22
ATOM     22  C   UNL     1      -3.477  -2.667  -1.367  0.00  0.00    +0.205 C 
BRANCH  22  23
ATOM     23  C   UNL     1      -3.233  -4.038  -1.944  0.00  0.00    +0.233 C 
ATOM     24  O   UNL     1      -2.513  -4.822  -1.362  0.00  0.00    -0.274 OA
ATOM     25  N   UNL     1      -3.815  -4.393  -3.107  0.00  0.00    -0.296 N 
ATOM     26  C   UNL     1      -3.603  -5.726  -3.693  0.00  0.00    +0.113 C 
ATOM     27  C   UNL     1      -4.946  -6.453  -3.707  0.00  0.00    +0.054 C 
ATOM     28  C   UNL     1      -6.030  -5.566  -4.260  0.00  0.00    -0.038 A 
ATOM     29  C   UNL     1      -7.184  -6.180  -4.736  0.00  0.00    +0.053 A 
ATOM     30  C   UNL     1      -8.223  -5.427  -5.248  0.00  0.00    +0.162 A 
ATOM     31  C   UNL     1      -8.114  -4.040  -5.288  0.00  0.00    +0.162 A 
ATOM     32  C   UNL     1      -6.964  -3.432  -4.817  0.00  0.00    +0.054 A 
ATOM     33  C   UNL     1      -5.921  -4.194  -4.308  0.00  0.00    -0.023 A 
ATOM     34  C   UNL     1      -4.691  -3.469  -3.835  0.00  0.00    +0.143 C 
BRANCH  31  35
ATOM     35  O   UNL     1      -9.131  -3.287  -5.786  0.00  0.00    -0.491 OA
ATOM     36  C   UNL     1      -8.947  -1.870  -5.794  0.00  0.00    +0.277 C 
ENDBRANCH  31  35
BRANCH  30  37
ATOM     37  O   UNL     1      -9.345  -6.038  -5.713  0.00  0.00    -0.491 OA
ATOM     38  C   UNL     1      -9.385  -7.465  -5.640  0.00  0.00    +0.277 C 
ENDBRANCH  30  37
ENDBRANCH  22  23
ENDBRANCH   1  22
TORSDOF 9
