REMARK  Name = ZINC05836687
REMARK  6 active torsions:
REMARK  status: ('A' for Active; 'I' for Inactive)
REMARK    1  A    between atoms: C_1  and  C_2
REMARK    2  A    between atoms: C_10  and  O_24
REMARK    3  A    between atoms: C_21  and  O_23
REMARK    4  A    between atoms: O_24  and  C_25
REMARK    5  A    between atoms: C_27  and  C_32
REMARK    6  A    between atoms: N_40  and  C_41
REMARK                            x       y       z     vdW  Elec       q    Type
REMARK                         _______ _______ _______ _____ _____    ______ ____
ROOT
ATOM      1  C   UNL     1       6.059  17.968   1.260  0.00  0.00    +0.014 C 
ATOM      2  C   UNL     1       4.991  16.873   1.283  0.00  0.00    -0.003 C 
ATOM      3  C   UNL     1       5.620  15.564   1.700  0.00  0.00    +0.010 C 
ATOM      4  C   UNL     1       4.608  14.422   1.642  0.00  0.00    +0.009 C 
ATOM      5  C   UNL     1       4.101  14.289   0.199  0.00  0.00    +0.023 C 
ATOM      6  C   UNL     1       3.123  13.139   0.150  0.00  0.00    -0.041 A 
ATOM      7  C   UNL     1       3.641  11.854   0.065  0.00  0.00    +0.008 A 
ATOM      8  C   UNL     1       2.800  10.761   0.028  0.00  0.00    +0.046 A 
ATOM      9  C   UNL     1       1.426  10.950   0.079  0.00  0.00    +0.132 A 
ATOM     10  C   UNL     1       0.912  12.233   0.156  0.00  0.00    +0.050 A 
ATOM     11  C   UNL     1       1.760  13.332   0.193  0.00  0.00    -0.040 A 
ATOM     12  C   UNL     1       1.129  14.697   0.268  0.00  0.00    +0.036 C 
ATOM     13  C   UNL     1       2.156  15.751   0.682  0.00  0.00    +0.009 C 
ATOM     14  C   UNL     1       3.397  15.579  -0.196  0.00  0.00    +0.000 C 
ATOM     15  C   UNL     1       4.303  16.799  -0.091  0.00  0.00    +0.001 C 
ATOM     16  C   UNL     1       3.380  18.048  -0.085  0.00  0.00    +0.007 C 
ATOM     17  C   UNL     1       3.076  18.352   1.394  0.00  0.00    +0.032 C 
ATOM     18  C   UNL     1       3.858  17.311   2.228  0.00  0.00    +0.121 C 
ENDROOT
BRANCH  18  19
ATOM     19  O   UNL     1       4.392  17.912   3.410  0.00  0.00    -0.391 OA
ATOM     20  H   UNL     1       3.720  18.206   4.040  0.00  0.00    +0.210 HD
ENDBRANCH  18  19
BRANCH   9  21
ATOM     21  O   UNL     1       0.589   9.880   0.048  0.00  0.00    -0.423 OA
BRANCH  21  22
ATOM     22  C   UNL     1       0.446   9.152   1.179  0.00  0.00    +0.329 A 
ATOM     23  N   UNL     1      -0.432   8.160   1.222  0.00  0.00    -0.173 NA
ATOM     24  C   UNL     1      -0.571   7.443   2.341  0.00  0.00    +0.186 A 
ATOM     25  N   UNL     1       0.172   7.734   3.413  0.00  0.00    -0.181 NA
ATOM     26  C   UNL     1       1.049   8.723   3.359  0.00  0.00    +0.315 A 
ATOM     27  N   UNL     1       1.185   9.433   2.248  0.00  0.00    -0.148 NA
ATOM     28  F   UNL     1       1.804   9.014   4.441  0.00  0.00    -0.161 F 
BRANCH  24  29
ATOM     29  C   UNL     1      -1.541   6.343   2.394  0.00  0.00    +0.094 A 
ATOM     30  C   UNL     1      -1.786   5.520   3.493  0.00  0.00    +0.011 A 
ATOM     31  C   UNL     1      -1.282   5.418   4.801  0.00  0.00    +0.011 A 
ATOM     32  C   UNL     1      -1.768   4.461   5.633  0.00  0.00    +0.001 A 
ATOM     33  C   UNL     1      -2.761   3.568   5.226  0.00  0.00    +0.001 A 
ATOM     34  C   UNL     1      -3.288   3.606   3.975  0.00  0.00    +0.010 A 
ATOM     35  C   UNL     1      -2.833   4.579   3.060  0.00  0.00    +0.000 A 
ATOM     36  C   UNL     1      -3.131   4.909   1.752  0.00  0.00    +0.094 A 
ATOM     37  N   UNL     1      -2.365   5.946   1.374  0.00  0.00    -0.346 N 
ATOM     38  C   UNL     1      -2.405   6.569   0.049  0.00  0.00    +0.149 C 
ENDBRANCH  24  29
ENDBRANCH  21  22
ENDBRANCH   9  21
TORSDOF 4
