REMARK  Name = ZINC63514101
REMARK  8 active torsions:
REMARK  status: ('A' for Active; 'I' for Inactive)
REMARK    1  A    between atoms: C_5  and  S_14
REMARK    2  A    between atoms: C_10  and  N_11
REMARK    3  A    between atoms: S_14  and  C_15
REMARK    4  A    between atoms: C_15  and  C_16
REMARK    5  A    between atoms: N_18  and  C_19
REMARK    6  A    between atoms: C_19  and  C_20
REMARK    7  A    between atoms: C_20  and  O_21
REMARK    8  A    between atoms: O_21  and  C_22
REMARK                            x       y       z     vdW  Elec       q    Type
REMARK                         _______ _______ _______ _____ _____    ______ ____
ROOT
ATOM      1  C   UNL     1       5.088   0.791  -4.209  0.00  0.00    +0.223 C 
ATOM      2  O   UNL     1       6.300   0.809  -4.230  0.00  0.00    -0.275 OA
ATOM      3  N   UNL     1       4.393   0.787  -5.364  0.00  0.00    -0.312 N 
ATOM      4  H   UNL     1       3.424   0.773  -5.346  0.00  0.00    +0.149 HD
ENDROOT
BRANCH   1   5
ATOM      5  C   UNL     1       4.358   0.773  -2.890  0.00  0.00    +0.168 C 
BRANCH   5   6
ATOM      6  S   UNL     1       5.561   0.784  -1.533  0.00  0.00    -0.106 S 
BRANCH   6  11
ATOM      7  C   UNL     1      -0.017   1.402   0.010  0.00  0.00    +0.035 A 
ATOM      8  C   UNL     1       1.108   2.144   0.003  0.00  0.00    +0.029 A 
ATOM      9  C   UNL     1       2.417   1.476  -0.013  0.00  0.00    +0.061 A 
ATOM     10  N   UNL     1       3.639   1.924  -0.022  0.00  0.00    -0.355 N 
ATOM     11  C   UNL     1       4.535   0.761  -0.037  0.00  0.00    +0.236 C 
ATOM     12  N   UNL     1       3.671  -0.427  -0.035  0.00  0.00    -0.355 N 
ATOM     13  C   UNL     1       2.437  -0.012  -0.021  0.00  0.00    +0.063 A 
ATOM     14  C   UNL     1       1.147  -0.715  -0.013  0.00  0.00    +0.060 A 
ATOM     15  C   UNL     1       0.002  -0.004   0.002  0.00  0.00    +0.128 A 
ATOM     16  H   UNL     1       3.966  -1.351  -0.043  0.00  0.00    +0.162 HD
ATOM     17  H   UNL     1       3.909   2.856  -0.020  0.00  0.00    +0.162 HD
BRANCH  15  18
ATOM     18  N   UNL     1      -1.286  -0.732   0.010  0.00  0.00    +0.056 N 
ATOM     19  O   UNL     1      -2.328  -0.118   0.024  0.00  0.00    -0.126 OA
ATOM     20  O   UNL     1      -1.298  -1.941   0.004  0.00  0.00    -0.126 OA
ENDBRANCH  15  18
ENDBRANCH   6  11
ENDBRANCH   5   6
ENDBRANCH   1   5
BRANCH   3  21
ATOM     21  C   UNL     1       5.103   0.804  -6.645  0.00  0.00    +0.132 C 
BRANCH  21  22
ATOM     22  C   UNL     1       4.088   0.796  -7.790  0.00  0.00    +0.179 C 
BRANCH  22  23
ATOM     23  O   UNL     1       3.328   2.006  -7.763  0.00  0.00    -0.372 OA
BRANCH  23  24
ATOM     24  C   UNL     1       2.346   2.099  -8.797  0.00  0.00    +0.070 C 
ATOM     25  C   UNL     1       3.035   2.029 -10.161  0.00  0.00    +0.038 C 
ATOM     26  C   UNL     1       1.983   2.130 -11.268  0.00  0.00    -0.008 C 
ATOM     27  C   UNL     1       1.235   3.458 -11.142  0.00  0.00    +0.007 C 
ATOM     28  C   UNL     1       0.546   3.528  -9.777  0.00  0.00    -0.008 C 
ATOM     29  C   UNL     1       1.598   3.428  -8.670  0.00  0.00    +0.038 C 
ATOM     30  C   UNL     1      -0.444   2.369  -9.646  0.00  0.00    +0.007 C 
ATOM     31  C   UNL     1       0.304   1.041  -9.772  0.00  0.00    -0.008 C 
ATOM     32  C   UNL     1       0.992   0.971 -11.137  0.00  0.00    +0.007 C 
ATOM     33  C   UNL     1       1.356   0.941  -8.665  0.00  0.00    +0.038 C 
ENDBRANCH  23  24
ENDBRANCH  22  23
ENDBRANCH  21  22
ENDBRANCH   3  21
TORSDOF 8
