REMARK  Name = ZINC39621559
REMARK  8 active torsions:
REMARK  status: ('A' for Active; 'I' for Inactive)
REMARK    1  A    between atoms: C_1  and  C_2
REMARK    2  A    between atoms: C_7  and  N_8
REMARK    3  A    between atoms: C_14  and  C_19
REMARK    4  A    between atoms: C_19  and  O_21
REMARK    5  A    between atoms: O_21  and  C_22
REMARK    6  A    between atoms: C_22  and  C_23
REMARK    7  A    between atoms: C_25  and  O_26
REMARK    8  A    between atoms: C_35  and  C_37
REMARK                            x       y       z     vdW  Elec       q    Type
REMARK                         _______ _______ _______ _____ _____    ______ ____
ROOT
ATOM      1  C   UNL     1       0.426   2.975   7.340  0.00  0.00    +0.340 C 
ATOM      2  O   UNL     1       1.592   2.983   6.998  0.00  0.00    -0.245 OA
ENDROOT
BRANCH   1   9
ATOM      3  N   UNL     1      -2.382   0.005   2.890  0.00  0.00    -0.202 N 
ATOM      4  C   UNL     1      -3.240   0.300   3.883  0.00  0.00    +0.258 C 
ATOM      5  O   UNL     1      -4.421   0.019   3.906  0.00  0.00    -0.269 OA
ATOM      6  C   UNL     1      -2.502   1.024   4.943  0.00  0.00    +0.050 A 
ATOM      7  C   UNL     1      -2.858   1.563   6.169  0.00  0.00    +0.014 A 
ATOM      8  C   UNL     1      -1.904   2.197   6.947  0.00  0.00    +0.016 A 
ATOM      9  C   UNL     1      -0.586   2.296   6.503  0.00  0.00    +0.060 A 
ATOM     10  C   UNL     1      -0.219   1.756   5.266  0.00  0.00    +0.028 A 
ATOM     11  C   UNL     1      -1.171   1.122   4.487  0.00  0.00    +0.051 A 
ATOM     12  C   UNL     1      -1.144   0.450   3.171  0.00  0.00    +0.258 C 
ATOM     13  O   UNL     1      -0.167   0.323   2.461  0.00  0.00    -0.269 OA
BRANCH   3  20
ATOM     14  C   UNL     1      -3.246   1.528   0.646  0.00  0.00    +0.045 C 
ATOM     15  C   UNL     1      -3.158   0.025   0.601  0.00  0.00    -0.029 A 
ATOM     16  C   UNL     1      -3.495  -0.653  -0.554  0.00  0.00    +0.005 A 
ATOM     17  C   UNL     1      -3.415  -2.033  -0.596  0.00  0.00    +0.000 A 
ATOM     18  C   UNL     1      -2.995  -2.738   0.517  0.00  0.00    +0.002 A 
ATOM     19  C   UNL     1      -2.656  -2.066   1.675  0.00  0.00    +0.024 A 
ATOM     20  C   UNL     1      -2.731  -0.680   1.718  0.00  0.00    +0.047 A 
ENDBRANCH   3  20
ENDBRANCH   1   9
BRANCH   1  21
ATOM     21  O   UNL     1       0.056   3.585   8.483  0.00  0.00    -0.456 OA
BRANCH  21  22
ATOM     22  C   UNL     1       1.064   4.315   9.185  0.00  0.00    +0.269 C 
BRANCH  22  23
ATOM     23  C   UNL     1       0.501   4.821  10.488  0.00  0.00    +0.007 A 
ATOM     24  C   UNL     1      -0.073   3.952  11.395  0.00  0.00    +0.095 A 
ATOM     25  C   UNL     1      -0.586   4.437  12.589  0.00  0.00    +0.285 A 
ATOM     26  O   UNL     1      -0.538   5.739  12.890  0.00  0.00    -0.425 OA
ATOM     27  C   UNL     1       0.012   6.632  12.041  0.00  0.00    +0.141 A 
ATOM     28  C   UNL     1       0.554   6.193  10.812  0.00  0.00    +0.024 A 
ATOM     29  C   UNL     1       1.132   7.120   9.927  0.00  0.00    +0.014 A 
ATOM     30  C   UNL     1       1.174   8.438  10.256  0.00  0.00    +0.024 A 
ATOM     31  C   UNL     1       0.641   8.882  11.479  0.00  0.00    +0.037 A 
ATOM     32  C   UNL     1       0.054   7.976  12.364  0.00  0.00    +0.070 A 
ATOM     33  N   UNL     1       0.689  10.205  11.797  0.00  0.00    -0.286 N 
ATOM     34  C   UNL     1       0.488  10.591  13.042  0.00  0.00    +0.214 C 
ATOM     35  O   UNL     1       0.382   9.762  13.928  0.00  0.00    -0.276 OA
ATOM     36  C   UNL     1       0.391  12.059  13.369  0.00  0.00    +0.109 C 
ATOM     37  H   UNL     1       0.871  10.864  11.109  0.00  0.00    +0.155 HD
BRANCH  25  38
ATOM     38  O   UNL     1      -1.143   3.578  13.464  0.00  0.00    -0.480 OA
ATOM     39  H   UNL     1      -1.474   3.998  14.270  0.00  0.00    +0.295 HD
ENDBRANCH  25  38
ENDBRANCH  22  23
ENDBRANCH  21  22
ENDBRANCH   1  21
TORSDOF 6
