REMARK  Name = ZINC22418017
REMARK  9 active torsions:
REMARK  status: ('A' for Active; 'I' for Inactive)
REMARK    1  A    between atoms: C_1  and  N_2
REMARK    2  A    between atoms: N_2  and  C_3
REMARK    3  A    between atoms: N_2  and  C_4
REMARK    4  A    between atoms: C_7  and  C_10
REMARK    5  A    between atoms: C_10  and  C_12
REMARK    6  A    between atoms: C_10  and  N_25
REMARK    7  A    between atoms: C_12  and  N_13
REMARK    8  A    between atoms: C_14  and  C_16
REMARK    9  A    between atoms: C_20  and  N_22
REMARK                            x       y       z     vdW  Elec       q    Type
REMARK                         _______ _______ _______ _____ _____    ______ ____
ROOT
ATOM      1  C   UNL     1       2.543   7.814  -0.092  0.00  0.00    +0.121 C 
ENDROOT
BRANCH   1   2
ATOM      2  N   UNL     1       3.354   7.189   0.961  0.00  0.00    -0.321 N 
ATOM      3  C   UNL     1       3.380   5.718   0.807  0.00  0.00    +0.110 C 
ATOM      4  C   UNL     1       4.771   5.343   1.369  0.00  0.00    +0.056 C 
ATOM      5  C   UNL     1       5.571   6.614   1.160  0.00  0.00    -0.025 A 
ATOM      6  C   UNL     1       4.676   7.649   0.916  0.00  0.00    +0.033 A 
ATOM      7  C   UNL     1       5.170   8.929   0.674  0.00  0.00    +0.023 A 
ATOM      8  C   UNL     1       6.530   9.162   0.685  0.00  0.00    +0.002 A 
ATOM      9  C   UNL     1       7.412   8.126   0.935  0.00  0.00    +0.000 A 
ATOM     10  C   UNL     1       6.929   6.852   1.173  0.00  0.00    +0.005 A 
ENDBRANCH   1   2
BRANCH   1  14
ATOM     11  C   UNL     1       1.842  11.913   0.894  0.00  0.00    +0.029 A 
ATOM     12  C   UNL     1       2.096  11.547  -0.422  0.00  0.00    +0.023 A 
ATOM     13  C   UNL     1       2.322  10.222  -0.737  0.00  0.00    +0.007 A 
ATOM     14  C   UNL     1       2.296   9.259   0.256  0.00  0.00    -0.025 A 
ATOM     15  C   UNL     1       2.038   9.620   1.566  0.00  0.00    +0.007 A 
ATOM     16  C   UNL     1       1.817  10.944   1.889  0.00  0.00    +0.023 A 
BRANCH  11  18
ATOM     17  C   UNL     1       1.517  14.256   0.152  0.00  0.00    +0.129 C 
ATOM     18  N   UNL     1       1.613  13.253   1.216  0.00  0.00    -0.336 N 
ATOM     19  C   UNL     1       1.468  13.655   2.617  0.00  0.00    +0.129 C 
ENDBRANCH  11  18
ENDBRANCH   1  14
BRANCH   1  20
ATOM     20  C   UNL     1       1.204   7.081  -0.208  0.00  0.00    +0.131 C 
BRANCH  20  21
ATOM     21  N   UNL     1       0.423   7.661  -1.303  0.00  0.00    -0.309 N 
ATOM     22  C   UNL     1      -0.838   7.242  -1.527  0.00  0.00    +0.244 C 
ATOM     23  O   UNL     1      -1.360   6.452  -0.765  0.00  0.00    -0.270 OA
ATOM     24  H   UNL     1       0.867   8.438  -1.944  0.00  0.00    +0.149 HD
BRANCH  22  25
ATOM     25  C   UNL     1      -1.587   7.745  -2.698  0.00  0.00    +0.039 A 
ATOM     26  C   UNL     1      -1.032   8.732  -3.514  0.00  0.00    +0.013 A 
ATOM     27  C   UNL     1      -1.737   9.197  -4.605  0.00  0.00    +0.003 A 
ATOM     28  C   UNL     1      -2.991   8.687  -4.891  0.00  0.00    +0.033 A 
ATOM     29  C   UNL     1      -3.549   7.713  -4.083  0.00  0.00    +0.127 A 
ATOM     30  C   UNL     1      -2.852   7.235  -2.992  0.00  0.00    +0.045 A 
BRANCH  29  31
ATOM     31  N   UNL     1      -4.894   7.178  -4.393  0.00  0.00    +0.056 N 
ATOM     32  O   UNL     1      -5.508   7.596  -5.358  0.00  0.00    -0.126 OA
ATOM     33  O   UNL     1      -5.386   6.320  -3.683  0.00  0.00    -0.126 OA
ENDBRANCH  29  31
ENDBRANCH  22  25
ENDBRANCH  20  21
ENDBRANCH   1  20
TORSDOF 7
