REMARK  Name = ZINC39541893
REMARK  7 active torsions:
REMARK  status: ('A' for Active; 'I' for Inactive)
REMARK    1  A    between atoms: C_1  and  O_2
REMARK    2  A    between atoms: O_2  and  C_3
REMARK    3  A    between atoms: C_8  and  N_9
REMARK    4  A    between atoms: C_11  and  C_14
REMARK    5  A    between atoms: C_14  and  N_15
REMARK    6  A    between atoms: N_15  and  C_16
REMARK    7  A    between atoms: C_26  and  C_29
REMARK                            x       y       z     vdW  Elec       q    Type
REMARK                         _______ _______ _______ _____ _____    ______ ____
ROOT
ATOM      1  N   UNL     1       0.813  -6.246   2.440  0.00  0.00    +0.385 N 
ATOM      2  H   UNL     1       1.628  -6.358   1.856  0.00  0.00    -0.085 HD
ATOM      3  H   UNL     1       1.046  -5.672   3.237  0.00  0.00    -0.085 HD
ENDROOT
BRANCH   1   4
ATOM      4  C   UNL     1       0.356  -7.563   2.903  0.00  0.00    -0.054 C 
ATOM      5  C   UNL     1       0.122  -8.475   1.697  0.00  0.00    -0.013 C 
ATOM      6  C   UNL     1      -0.385  -9.837   2.176  0.00  0.00    +0.017 C 
ATOM      7  C   UNL     1       0.673 -10.485   3.074  0.00  0.00    +0.106 C 
ATOM      8  N   UNL     1       1.010  -9.551   4.157  0.00  0.00    -0.317 N 
ATOM      9  C   UNL     1       1.423  -8.185   3.810  0.00  0.00    +0.091 C 
ATOM     10  C   UNL     1       0.939  -9.953   5.486  0.00  0.00    +0.121 A 
ATOM     11  C   UNL     1       0.767 -11.300   5.791  0.00  0.00    +0.044 A 
ATOM     12  C   UNL     1       0.698 -11.685   7.117  0.00  0.00    +0.017 A 
ATOM     13  C   UNL     1       0.804 -10.708   8.098  0.00  0.00    +0.073 A 
ATOM     14  C   UNL     1       0.974  -9.390   7.724  0.00  0.00    +0.125 A 
ATOM     15  N   UNL     1       1.041  -9.052   6.450  0.00  0.00    -0.240 NA
BRANCH  13  16
ATOM     16  C   UNL     1       0.734 -11.082   9.556  0.00  0.00    +0.419 C 
ATOM     17  F   UNL     1       2.021 -11.361  10.028  0.00  0.00    -0.166 F 
ATOM     18  F   UNL     1       0.190 -10.019  10.285  0.00  0.00    -0.166 F 
ATOM     19  F   UNL     1      -0.074 -12.214   9.709  0.00  0.00    -0.166 F 
ENDBRANCH  13  16
ENDBRANCH   1   4
BRANCH   1  20
ATOM     20  C   UNL     1      -0.257  -5.600   1.668  0.00  0.00    -0.043 C 
BRANCH  20  23
ATOM     21  N   UNL     1       1.094  -2.663  -0.023  0.00  0.00    -0.236 N 
ATOM     22  C   UNL     1       0.846  -3.990   0.026  0.00  0.00    +0.116 A 
ATOM     23  C   UNL     1       0.211  -4.248   1.194  0.00  0.00    -0.027 A 
ATOM     24  C   UNL     1       0.068  -3.039   1.882  0.00  0.00    +0.136 A 
ATOM     25  N   UNL     1       0.602  -2.089   1.157  0.00  0.00    -0.175 NA
BRANCH  21  31
ATOM     26  C   UNL     1       1.935  -0.604  -0.984  0.00  0.00    +0.145 A 
ATOM     27  C   UNL     1       2.575   0.063  -2.016  0.00  0.00    +0.048 A 
ATOM     28  C   UNL     1       3.011  -0.636  -3.126  0.00  0.00    +0.004 A 
ATOM     29  C   UNL     1       2.810  -2.001  -3.211  0.00  0.00    +0.002 A 
ATOM     30  C   UNL     1       2.173  -2.674  -2.186  0.00  0.00    +0.031 A 
ATOM     31  C   UNL     1       1.737  -1.981  -1.067  0.00  0.00    +0.107 A 
BRANCH  26  33
ATOM     32  C   UNL     1       1.742   1.491   0.124  0.00  0.00    +0.277 C 
ATOM     33  O   UNL     1       1.505   0.082   0.108  0.00  0.00    -0.493 OA
ENDBRANCH  26  33
ENDBRANCH  21  31
ENDBRANCH  20  23
ENDBRANCH   1  20
TORSDOF 6
