REMARK  Name = ZINC08963216
REMARK  7 active torsions:
REMARK  status: ('A' for Active; 'I' for Inactive)
REMARK    1  A    between atoms: C_1  and  N_2
REMARK    2  A    between atoms: C_9  and  C_11
REMARK    3  A    between atoms: C_11  and  C_13
REMARK    4  A    between atoms: C_11  and  N_55
REMARK    5  A    between atoms: C_13  and  N_14
REMARK    6  A    between atoms: C_15  and  C_17
REMARK    7  A    between atoms: C_21  and  N_23
REMARK                            x       y       z     vdW  Elec       q    Type
REMARK                         _______ _______ _______ _____ _____    ______ ____
ROOT
ATOM      1  C   UNL     1      -1.931   4.806   0.056  0.00  0.00    -0.020 C 
ENDROOT
BRANCH   1  10
ATOM      2  C   UNL     1       3.264   1.819  -2.365  0.00  0.00    +0.129 C 
ATOM      3  N   UNL     1       1.860   1.388  -2.412  0.00  0.00    -0.332 N 
ATOM      4  C   UNL     1       1.663   0.140  -1.643  0.00  0.00    +0.109 C 
ATOM      5  C   UNL     1       0.211   0.283  -1.132  0.00  0.00    +0.056 C 
ATOM      6  C   UNL     1       0.011   1.786  -1.105  0.00  0.00    -0.025 A 
ATOM      7  C   UNL     1       1.016   2.365  -1.871  0.00  0.00    +0.033 A 
ATOM      8  C   UNL     1       1.056   3.752  -1.999  0.00  0.00    +0.023 A 
ATOM      9  C   UNL     1       0.105   4.534  -1.376  0.00  0.00    +0.004 A 
ATOM     10  C   UNL     1      -0.893   3.947  -0.620  0.00  0.00    -0.059 A 
ATOM     11  C   UNL     1      -0.935   2.572  -0.483  0.00  0.00    +0.007 A 
ENDBRANCH   1  10
BRANCH   1  16
ATOM     12  C   UNL     1      -2.251   6.674   1.584  0.00  0.00    -0.078 C 
ATOM     13  C   UNL     1      -1.382   7.353   2.673  0.00  0.00    -0.020 C 
ATOM     14  C   UNL     1      -0.357   6.253   3.032  0.00  0.00    -0.020 C 
ATOM     15  C   UNL     1      -0.330   5.314   1.811  0.00  0.00    -0.078 C 
ATOM     16  N   UNL     1      -1.258   5.888   0.835  0.00  0.00    +0.385 N 
ATOM     17  H   UNL     1      -0.747   6.500   0.189  0.00  0.00    -0.081 HD
ENDBRANCH   1  16
BRANCH   1  18
ATOM     18  C   UNL     1      -2.849   5.424  -1.001  0.00  0.00    +0.094 C 
BRANCH  18  19
ATOM     19  N   UNL     1      -3.986   6.070  -0.342  0.00  0.00    -0.313 N 
ATOM     20  C   UNL     1      -4.855   6.805  -1.064  0.00  0.00    +0.244 C 
ATOM     21  O   UNL     1      -4.695   6.931  -2.262  0.00  0.00    -0.270 OA
ATOM     22  H   UNL     1      -4.114   5.970   0.615  0.00  0.00    +0.149 HD
BRANCH  20  23
ATOM     23  C   UNL     1      -6.003   7.457  -0.399  0.00  0.00    +0.039 A 
ATOM     24  C   UNL     1      -6.193   7.310   0.976  0.00  0.00    +0.013 A 
ATOM     25  C   UNL     1      -7.264   7.925   1.591  0.00  0.00    +0.003 A 
ATOM     26  C   UNL     1      -8.154   8.679   0.847  0.00  0.00    +0.033 A 
ATOM     27  C   UNL     1      -7.974   8.825  -0.517  0.00  0.00    +0.127 A 
ATOM     28  C   UNL     1      -6.905   8.219  -1.144  0.00  0.00    +0.045 A 
BRANCH  27  29
ATOM     29  N   UNL     1      -8.931   9.633  -1.306  0.00  0.00    +0.056 N 
ATOM     30  O   UNL     1      -8.775   9.762  -2.507  0.00  0.00    -0.126 OA
ATOM     31  O   UNL     1      -9.876  10.168  -0.754  0.00  0.00    -0.126 OA
ENDBRANCH  27  29
ENDBRANCH  20  23
ENDBRANCH  18  19
ENDBRANCH   1  18
TORSDOF 6
