REMARK  Name = ZINC61685165
REMARK  5 active torsions:
REMARK  status: ('A' for Active; 'I' for Inactive)
REMARK    1  A    between atoms: C_1  and  C_2
REMARK    2  A    between atoms: C_4  and  N_17
REMARK    3  A    between atoms: C_7  and  S_8
REMARK    4  A    between atoms: S_8  and  N_11
REMARK    5  A    between atoms: N_11  and  C_12
REMARK                            x       y       z     vdW  Elec       q    Type
REMARK                         _______ _______ _______ _____ _____    ______ ____
ROOT
ATOM      1  C   UNL     1      -0.018   1.503   0.010  0.00  0.00    +0.046 C 
ATOM      2  C   UNL     1       0.002  -0.004   0.002  0.00  0.00    -0.022 A 
ATOM      3  C   UNL     1       0.006  -0.687  -1.198  0.00  0.00    +0.028 A 
ATOM      4  C   UNL     1       0.025  -2.076  -1.205  0.00  0.00    +0.025 A 
ATOM      5  C   UNL     1       0.041  -2.773  -0.004  0.00  0.00    +0.024 A 
ATOM      6  C   UNL     1       0.037  -2.084   1.193  0.00  0.00    +0.031 A 
ATOM      7  C   UNL     1       0.023  -0.701   1.196  0.00  0.00    +0.113 A 
ENDROOT
BRANCH   7   8
ATOM      8  S   UNL     1       0.025   0.175   2.725  0.00  0.00    +0.093 S 
ATOM      9  O   UNL     1      -1.014   1.140   2.642  0.00  0.00    -0.148 OA
ATOM     10  O   UNL     1       0.076  -0.804   3.754  0.00  0.00    -0.148 OA
BRANCH   8  11
ATOM     11  N   UNL     1       1.449   1.018   2.804  0.00  0.00    -0.074 NA
BRANCH  11  12
ATOM     12  C   UNL     1       1.728   1.809   3.914  0.00  0.00    +0.204 A 
ATOM     13  C   UNL     1       2.894   2.583   4.112  0.00  0.00    +0.091 A 
ATOM     14  C   UNL     1       2.788   3.201   5.301  0.00  0.00    +0.232 A 
ATOM     15  O   UNL     1       1.615   2.850   5.852  0.00  0.00    -0.361 OA
ATOM     16  N   UNL     1       0.955   1.973   4.957  0.00  0.00    -0.060 NA
ENDBRANCH  11  12
ENDBRANCH   8  11
ENDBRANCH   7   8
BRANCH   4  17
ATOM     17  N   UNL     1       0.028  -2.770  -2.417  0.00  0.00    -0.358 N 
ATOM     18  H   UNL     1       0.017  -2.282  -3.256  0.00  0.00    +0.142 HD
ATOM     19  H   UNL     1       0.042  -3.740  -2.421  0.00  0.00    +0.142 HD
ENDBRANCH   4  17
TORSDOF 4
