REMARK  Name = ZINC39543446
REMARK  6 active torsions:
REMARK  status: ('A' for Active; 'I' for Inactive)
REMARK    1  A    between atoms: C_1  and  C_2
REMARK    2  A    between atoms: C_2  and  C_3
REMARK    3  A    between atoms: C_2  and  S_4
REMARK    4  A    between atoms: S_4  and  C_7
REMARK    5  A    between atoms: C_9  and  C_21
REMARK    6  A    between atoms: N_23  and  C_24
REMARK                            x       y       z     vdW  Elec       q    Type
REMARK                         _______ _______ _______ _____ _____    ______ ____
ROOT
ATOM      1  C   UNL     1      -1.399  -2.333  -0.554  0.00  0.00    +0.102 C 
ATOM      2  C   UNL     1      -0.953  -3.561  -1.315  0.00  0.00    +0.088 C 
ATOM      3  C   UNL     1      -1.011  -4.692  -0.270  0.00  0.00    +0.151 C 
ATOM      4  N   UNL     1      -1.502  -4.028   0.949  0.00  0.00    -0.369 NA
ATOM      5  C   UNL     1      -1.670  -2.662   0.683  0.00  0.00    +0.096 C 
ATOM      6  N   UNL     1      -2.074  -1.782   1.704  0.00  0.00    -0.302 N 
ATOM      7  C   UNL     1      -1.564  -2.080   2.979  0.00  0.00    +0.037 A 
ATOM      8  C   UNL     1      -1.807  -1.219   4.039  0.00  0.00    +0.023 A 
ATOM      9  C   UNL     1      -1.312  -1.517   5.294  0.00  0.00    +0.002 A 
ATOM     10  C   UNL     1      -0.579  -2.674   5.487  0.00  0.00    +0.000 A 
ATOM     11  C   UNL     1      -0.335  -3.530   4.431  0.00  0.00    +0.007 A 
ATOM     12  C   UNL     1      -0.822  -3.238   3.168  0.00  0.00    -0.010 A 
ATOM     13  C   UNL     1      -0.528  -4.178   2.035  0.00  0.00    +0.124 C 
ATOM     14  H   UNL     1      -2.660  -1.027   1.540  0.00  0.00    +0.153 HD
ATOM     15  H   UNL     1      -2.385  -4.432   1.224  0.00  0.00    +0.129 HD
ENDROOT
BRANCH   3  16
ATOM     16  C   UNL     1       0.361  -5.272  -0.042  0.00  0.00    +0.243 C 
ATOM     17  O   UNL     1       1.314  -4.536   0.104  0.00  0.00    -0.273 OA
ATOM     18  N   UNL     1       0.529  -6.609  -0.002  0.00  0.00    -0.246 N 
ATOM     19  C   UNL     1       1.863  -7.173   0.220  0.00  0.00    +0.144 C 
ATOM     20  I   UNL     1      -1.081  -7.853  -0.249  0.00  0.00    +0.048 I 
ENDBRANCH   3  16
BRANCH   1  21
ATOM     21  S   UNL     1      -1.527  -0.710  -1.226  0.00  0.00    -0.002 S 
ATOM     22  O   UNL     1      -1.995   0.092  -0.151  0.00  0.00    -0.169 OA
ATOM     23  O   UNL     1      -2.304  -0.866  -2.406  0.00  0.00    -0.169 OA
BRANCH  21  25
ATOM     24  C   UNL     1       0.202   1.204  -2.139  0.00  0.00    +0.032 C 
ATOM     25  C   UNL     1       0.174  -0.248  -1.656  0.00  0.00    +0.130 C 
ATOM     26  C   UNL     1       1.068  -0.392  -0.423  0.00  0.00    +0.032 C 
ENDBRANCH  21  25
ENDBRANCH   1  21
TORSDOF 3
