REMARK  Name = ZINC39585899
REMARK  11 active torsions:
REMARK  status: ('A' for Active; 'I' for Inactive)
REMARK    1  A    between atoms: C_1  and  C_2
REMARK    2  A    between atoms: C_2  and  C_4
REMARK    3  A    between atoms: C_2  and  O_15
REMARK    4  A    between atoms: N_6  and  C_7
REMARK    5  A    between atoms: N_11  and  C_12
REMARK    6  A    between atoms: C_12  and  C_13
REMARK    7  A    between atoms: C_12  and  C_14
REMARK    8  A    between atoms: O_15  and  C_16
REMARK    9  A    between atoms: C_16  and  C_18
REMARK   10  A    between atoms: C_20  and  S_25
REMARK   11  A    between atoms: S_25  and  C_26
REMARK                            x       y       z     vdW  Elec       q    Type
REMARK                         _______ _______ _______ _____ _____    ______ ____
ROOT
ATOM      1  C   UNL     1      -0.019   1.526   0.010  0.00  0.00    +0.062 C 
ATOM      2  C   UNL     1       0.002  -0.004   0.002  0.00  0.00    +0.259 C 
ENDROOT
BRANCH   2   3
ATOM      3  C   UNL     1      -1.412  -0.526   0.013  0.00  0.00    +0.259 C 
ATOM      4  O   UNL     1      -1.818  -1.157   0.965  0.00  0.00    -0.271 OA
ATOM      5  N   UNL     1      -2.225  -0.290  -1.036  0.00  0.00    -0.268 N 
ATOM      6  H   UNL     1      -1.900   0.215  -1.798  0.00  0.00    +0.156 HD
BRANCH   5   7
ATOM      7  C   UNL     1      -3.533  -0.773  -1.026  0.00  0.00    +0.123 A 
ATOM      8  C   UNL     1      -4.119  -1.487  -0.027  0.00  0.00    +0.065 A 
ATOM      9  C   UNL     1      -5.431  -1.771  -0.416  0.00  0.00    +0.136 A 
ATOM     10  N   UNL     1      -5.631  -1.251  -1.600  0.00  0.00    -0.178 NA
ATOM     11  N   UNL     1      -4.452  -0.612  -2.006  0.00  0.00    -0.248 N 
BRANCH  11  12
ATOM     12  C   UNL     1      -4.249   0.102  -3.269  0.00  0.00    +0.103 C 
ATOM     13  C   UNL     1      -4.471  -0.859  -4.439  0.00  0.00    +0.032 C 
ATOM     14  C   UNL     1      -5.244   1.261  -3.365  0.00  0.00    +0.032 C 
ENDBRANCH  11  12
ENDBRANCH   5   7
ENDBRANCH   2   3
BRANCH   2  15
ATOM     15  O   UNL     1       0.693  -0.477   1.160  0.00  0.00    -0.449 OA
BRANCH  15  16
ATOM     16  C   UNL     1       2.023  -0.663   1.045  0.00  0.00    +0.341 C 
ATOM     17  O   UNL     1       2.580  -0.429  -0.009  0.00  0.00    -0.245 OA
BRANCH  16  18
ATOM     18  C   UNL     1       2.802  -1.150   2.201  0.00  0.00    +0.078 A 
ATOM     19  C   UNL     1       2.164  -1.425   3.411  0.00  0.00    +0.031 A 
ATOM     20  C   UNL     1       2.903  -1.882   4.491  0.00  0.00    +0.008 A 
ATOM     21  C   UNL     1       4.276  -2.065   4.367  0.00  0.00    +0.016 A 
ATOM     22  C   UNL     1       4.910  -1.793   3.170  0.00  0.00    +0.022 A 
ATOM     23  C   UNL     1       4.182  -1.343   2.085  0.00  0.00    +0.055 A 
ATOM     24 CL   UNL     1       4.982  -1.011   0.580  0.00  0.00    -0.083 Cl
BRANCH  20  25
ATOM     25  S   UNL     1       2.102  -2.231   6.021  0.00  0.00    -0.129 S 
ATOM     26  C   UNL     1       3.448  -2.787   7.104  0.00  0.00    +0.090 C 
ENDBRANCH  20  25
ENDBRANCH  16  18
ENDBRANCH  15  16
ENDBRANCH   2  15
TORSDOF 7
