REMARK  Name = ZINC21175095
REMARK  14 active torsions:
REMARK  status: ('A' for Active; 'I' for Inactive)
REMARK    1  A    between atoms: C_1  and  C_2
REMARK    2  A    between atoms: C_2  and  C_3
REMARK    3  A    between atoms: C_3  and  C_4
REMARK    4  A    between atoms: C_4  and  C_5
REMARK    5  A    between atoms: C_8  and  N_11
REMARK    6  A    between atoms: C_12  and  S_16
REMARK    7  A    between atoms: S_16  and  C_17
REMARK    8  A    between atoms: C_17  and  C_19
REMARK    9  A    between atoms: C_17  and  C_20
REMARK   10  A    between atoms: C_26  and  C_36
REMARK   11  A    between atoms: C_27  and  C_31
REMARK   12  A    between atoms: C_31  and  O_33
REMARK   13  A    between atoms: O_33  and  C_34
REMARK   14  A    between atoms: C_34  and  C_35
REMARK                            x       y       z     vdW  Elec       q    Type
REMARK                         _______ _______ _______ _____ _____    ______ ____
ROOT
ATOM      1  C   UNL     1       2.143  -2.631   9.526  0.00  0.00    +0.117 C 
ATOM      2  C   UNL     1       3.479  -1.994   9.912  0.00  0.00    +0.027 C 
ENDROOT
BRANCH   1   3
ATOM      3  C   UNL     1       1.016  -1.865  10.171  0.00  0.00    +0.124 A 
ATOM      4  N   UNL     1       0.523  -2.297  11.358  0.00  0.00    -0.309 N 
ATOM      5  H   UNL     1       0.901  -3.089  11.770  0.00  0.00    +0.170 HD
ATOM      6  C   UNL     1      -0.483  -1.648  11.976  0.00  0.00    +0.260 A 
ATOM      7  O   UNL     1      -0.919  -2.043  13.043  0.00  0.00    -0.267 OA
ATOM      8  C   UNL     1      -1.044  -0.441  11.327  0.00  0.00    +0.076 A 
ATOM      9  C   UNL     1      -2.074   0.395  11.759  0.00  0.00    -0.015 A 
ATOM     10  C   UNL     1      -2.442   1.469  11.000  0.00  0.00    +0.102 A 
ATOM     11  S   UNL     1      -1.335   1.362   9.604  0.00  0.00    -0.062 S 
ATOM     12  C   UNL     1      -0.445  -0.094  10.094  0.00  0.00    +0.116 A 
ATOM     13  N   UNL     1       0.548  -0.803   9.574  0.00  0.00    -0.225 NA
ATOM     14  C   UNL     1      -2.780   0.114  13.061  0.00  0.00    +0.046 C 
BRANCH  10  15
ATOM     15  C   UNL     1      -3.484   2.462  11.266  0.00  0.00    +0.346 C 
ATOM     16  O   UNL     1      -4.154   2.385  12.278  0.00  0.00    -0.244 OA
BRANCH  15  17
ATOM     17  O   UNL     1      -3.702   3.463  10.388  0.00  0.00    -0.461 OA
BRANCH  17  18
ATOM     18  C   UNL     1      -4.735   4.396  10.711  0.00  0.00    +0.229 C 
ATOM     19  C   UNL     1      -4.834   5.450   9.606  0.00  0.00    +0.048 C 
ENDBRANCH  17  18
ENDBRANCH  15  17
ENDBRANCH  10  15
ENDBRANCH   1   3
BRANCH   1  20
ATOM     20  S   UNL     1       1.950  -2.585   7.723  0.00  0.00    -0.073 S 
BRANCH  20  22
ATOM     21  N   UNL     1       3.508  -3.921   5.832  0.00  0.00    -0.187 N 
ATOM     22  C   UNL     1       3.237  -3.632   7.129  0.00  0.00    +0.215 A 
ATOM     23  N   UNL     1       4.117  -4.280   7.861  0.00  0.00    -0.101 NA
ATOM     24  N   UNL     1       4.917  -4.952   7.113  0.00  0.00    -0.022 NA
ATOM     25  N   UNL     1       4.611  -4.792   5.871  0.00  0.00    -0.038 NA
BRANCH  21  29
ATOM     26  C   UNL     1       1.492  -2.540   2.454  0.00  0.00    -0.047 A 
ATOM     27  C   UNL     1       2.858  -2.746   2.406  0.00  0.00    +0.006 A 
ATOM     28  C   UNL     1       3.529  -3.203   3.523  0.00  0.00    +0.028 A 
ATOM     29  C   UNL     1       2.830  -3.456   4.696  0.00  0.00    +0.070 A 
ATOM     30  C   UNL     1       1.458  -3.248   4.741  0.00  0.00    +0.028 A 
ATOM     31  C   UNL     1       0.793  -2.786   3.622  0.00  0.00    +0.006 A 
BRANCH  26  32
ATOM     32  C   UNL     1       0.763  -2.041   1.233  0.00  0.00    +0.035 C 
BRANCH  32  33
ATOM     33  C   UNL     1       0.742  -0.511   1.242  0.00  0.00    +0.004 C 
BRANCH  33  35
ATOM     34  C   UNL     1      -0.019   1.526   0.010  0.00  0.00    +0.004 C 
ATOM     35  C   UNL     1       0.002  -0.004   0.002  0.00  0.00    -0.003 C 
ENDBRANCH  33  35
ENDBRANCH  32  33
ENDBRANCH  26  32
ENDBRANCH  21  29
ENDBRANCH  20  22
ENDBRANCH   1  20
TORSDOF 10
