REMARK  Name = ZINC12055205
REMARK  10 active torsions:
REMARK  status: ('A' for Active; 'I' for Inactive)
REMARK    1  A    between atoms: C_1  and  C_2
REMARK    2  A    between atoms: C_2  and  C_3
REMARK    3  A    between atoms: C_2  and  C_4
REMARK    4  A    between atoms: C_4  and  C_6
REMARK    5  A    between atoms: C_4  and  N_25
REMARK    6  A    between atoms: C_15  and  C_16
REMARK    7  A    between atoms: C_15  and  N_65
REMARK    8  A    between atoms: C_16  and  C_24
REMARK    9  A    between atoms: C_17  and  C_18
REMARK   10  A    between atoms: C_26  and  C_28
REMARK                            x       y       z     vdW  Elec       q    Type
REMARK                         _______ _______ _______ _____ _____    ______ ____
ROOT
ATOM      1  C   UNL     1      -4.855   0.137  -0.377  0.00  0.00    +0.154 A 
ATOM      2  N   UNL     1      -5.151   1.375  -0.079  0.00  0.00    -0.132 NA
ATOM      3  N   UNL     1      -6.159   1.762  -0.781  0.00  0.00    -0.134 NA
ATOM      4  C   UNL     1      -6.551   0.790  -1.552  0.00  0.00    +0.132 A 
ATOM      5  N   UNL     1      -5.745  -0.272  -1.307  0.00  0.00    -0.315 N 
ATOM      6  C   UNL     1      -5.849  -1.592  -1.928  0.00  0.00    +0.106 C 
ATOM      7  C   UNL     1      -6.478  -1.447  -3.317  0.00  0.00    -0.056 C 
ATOM      8  C   UNL     1      -8.505  -0.471  -2.389  0.00  0.00    -0.071 C 
ATOM      9  C   UNL     1      -7.675   0.806  -2.555  0.00  0.00    +0.058 C 
ATOM     10  N   UNL     1      -7.949  -1.573  -3.204  0.00  0.00    +0.384 N 
ATOM     11  H   UNL     1      -8.170  -2.466  -2.748  0.00  0.00    -0.081 HD
ENDROOT
BRANCH   1  12
ATOM     12  C   UNL     1      -3.736  -0.683   0.211  0.00  0.00    +0.144 C 
BRANCH  12  13
ATOM     13  N   UNL     1      -2.511   0.119   0.249  0.00  0.00    -0.300 N 
ATOM     14  C   UNL     1      -1.307  -0.488   0.243  0.00  0.00    +0.263 C 
ATOM     15  O   UNL     1      -1.238  -1.700   0.208  0.00  0.00    -0.269 OA
ATOM     16  H   UNL     1      -2.566   1.087   0.277  0.00  0.00    +0.150 HD
BRANCH  14  17
ATOM     17  C   UNL     1      -0.068   0.324   0.282  0.00  0.00    +0.125 A 
ATOM     18  C   UNL     1       1.173  -0.309   0.276  0.00  0.00    +0.033 A 
ATOM     19  C   UNL     1       2.323   0.463   0.311  0.00  0.00    +0.004 A 
ATOM     20  C   UNL     1       2.192   1.843   0.352  0.00  0.00    +0.020 A 
ATOM     21  C   UNL     1       0.925   2.405   0.355  0.00  0.00    +0.111 A 
ATOM     22  N   UNL     1      -0.150   1.648   0.321  0.00  0.00    -0.250 NA
ENDBRANCH  14  17
ENDBRANCH  12  13
BRANCH  12  24
ATOM     23  C   UNL     1      -5.389  -1.949   1.592  0.00  0.00    +0.009 C 
ATOM     24  C   UNL     1      -4.109  -1.111   1.632  0.00  0.00    +0.011 C 
ATOM     25  C   UNL     1      -2.973  -1.943   2.229  0.00  0.00    +0.009 C 
ENDBRANCH  12  24
ENDBRANCH   1  12
BRANCH  10  26
ATOM     26  C   UNL     1      -8.559  -1.559  -4.546  0.00  0.00    -0.048 C 
BRANCH  26  27
ATOM     27  C   UNL     1     -10.012  -1.938  -4.417  0.00  0.00    -0.089 C 
ATOM     28  C   UNL     1     -10.939  -0.993  -4.348  0.00  0.00    +0.005 C 
ATOM     29  C   UNL     1     -10.411  -3.390  -4.368  0.00  0.00    +0.037 C 
BRANCH  28  30
ATOM     30  C   UNL     1     -12.342  -1.354  -4.052  0.00  0.00    -0.025 A 
ATOM     31  C   UNL     1     -13.387  -0.621  -4.613  0.00  0.00    +0.008 A 
ATOM     32  C   UNL     1     -14.694  -0.967  -4.338  0.00  0.00    +0.001 A 
ATOM     33  C   UNL     1     -14.969  -2.031  -3.498  0.00  0.00    +0.000 A 
ATOM     34  C   UNL     1     -13.936  -2.759  -2.933  0.00  0.00    +0.001 A 
ATOM     35  C   UNL     1     -12.625  -2.427  -3.205  0.00  0.00    +0.008 A 
ENDBRANCH  28  30
ENDBRANCH  26  27
ENDBRANCH  10  26
TORSDOF 7
