REMARK  Name = ZINC09419101
REMARK  4 active torsions:
REMARK  status: ('A' for Active; 'I' for Inactive)
REMARK    1  A    between atoms: C_1  and  C_2
REMARK    2  A    between atoms: C_2  and  C_20
REMARK    3  A    between atoms: C_6  and  C_9
REMARK    4  A    between atoms: C_9  and  O_18
REMARK                            x       y       z     vdW  Elec       q    Type
REMARK                         _______ _______ _______ _____ _____    ______ ____
ROOT
ATOM      1  C   UNL     1       2.117  -2.121   2.451  0.00  0.00    +0.252 C 
ATOM      2  C   UNL     1       3.612  -2.087   2.188  0.00  0.00    +0.266 C 
ATOM      3  N   UNL     1       4.289  -3.247   2.337  0.00  0.00    -0.235 N 
ATOM      4  C   UNL     1       3.667  -4.376   2.701  0.00  0.00    +0.332 C 
ATOM      5  N   UNL     1       2.357  -4.479   2.948  0.00  0.00    -0.125 NA
ATOM      6  C   UNL     1       1.539  -3.463   2.856  0.00  0.00    +0.286 C 
ATOM      7  O   UNL     1       0.228  -3.603   3.112  0.00  0.00    -0.269 OA
ATOM      8  O   UNL     1       4.343  -5.380   2.813  0.00  0.00    -0.250 OA
ATOM      9  O   UNL     1       4.173  -1.064   1.859  0.00  0.00    -0.271 OA
ATOM     10  H   UNL     1       5.245  -3.262   2.177  0.00  0.00    +0.159 HD
ENDROOT
BRANCH   1  16
ATOM     11  C   UNL     1      -0.019   1.526   0.010  0.00  0.00    +0.019 C 
ATOM     12  C   UNL     1       0.002  -0.004   0.002  0.00  0.00    +0.028 C 
ATOM     13  C   UNL     1       0.718  -0.498  -1.258  0.00  0.00    +0.022 C 
ATOM     14  C   UNL     1       0.788  -2.028  -1.220  0.00  0.00    +0.080 C 
ATOM     15  C   UNL     1       1.479  -2.458   0.048  0.00  0.00    +0.166 C 
ATOM     16  C   UNL     1       1.411  -1.663   1.202  0.00  0.00    +0.087 C 
ATOM     17  C   UNL     1       0.730  -0.503   1.222  0.00  0.00    +0.172 C 
ATOM     18  O   UNL     1       0.700   0.226   2.353  0.00  0.00    -0.292 OA
ATOM     19  O   UNL     1       2.101  -3.501   0.072  0.00  0.00    -0.292 OA
ATOM     20  C   UNL     1      -1.433  -0.534   0.013  0.00  0.00    +0.019 C 
ENDBRANCH   1  16
BRANCH   1  21
ATOM     21  O   UNL     1       1.831  -1.182   3.490  0.00  0.00    -0.368 OA
ATOM     22  H   UNL     1       2.245  -1.394   4.338  0.00  0.00    +0.212 HD
ENDBRANCH   1  21
TORSDOF 2
