REMARK  Name = ZINC02261002
REMARK  8 active torsions:
REMARK  status: ('A' for Active; 'I' for Inactive)
REMARK    1  A    between atoms: C_1  and  C_2
REMARK    2  A    between atoms: C_2  and  C_3
REMARK    3  A    between atoms: C_8  and  N_9
REMARK    4  A    between atoms: C_10  and  C_12
REMARK    5  A    between atoms: C_12  and  S_13
REMARK    6  A    between atoms: S_13  and  C_14
REMARK    7  A    between atoms: N_27  and  C_28
REMARK    8  A    between atoms: C_31  and  C_34
REMARK                            x       y       z     vdW  Elec       q    Type
REMARK                         _______ _______ _______ _____ _____    ______ ____
ROOT
ATOM      1  C   UNL     1       0.066  -4.603  -0.066  0.00  0.00    +0.178 A 
ATOM      2  N   UNL     1      -0.730  -3.556   0.105  0.00  0.00    -0.215 NA
ATOM      3  C   UNL     1      -0.197  -2.353  -0.066  0.00  0.00    +0.117 A 
ATOM      4  C   UNL     1       1.155  -2.130  -0.415  0.00  0.00    +0.076 A 
ATOM      5  C   UNL     1       1.557  -0.740  -0.559  0.00  0.00    -0.023 A 
ATOM      6  C   UNL     1       0.603   0.193  -0.345  0.00  0.00    -0.004 A 
ATOM      7  S   UNL     1      -0.864  -0.723   0.054  0.00  0.00    -0.073 S 
ATOM      8  C   UNL     1       0.755   1.681  -0.427  0.00  0.00    +0.043 C 
ATOM      9  C   UNL     1       2.252   2.018  -0.433  0.00  0.00    +0.005 C 
ATOM     10  C   UNL     1       2.955   1.113  -1.449  0.00  0.00    +0.005 C 
ATOM     11  C   UNL     1       2.978  -0.326  -0.933  0.00  0.00    +0.037 C 
ATOM     12  C   UNL     1       1.985  -3.284  -0.592  0.00  0.00    +0.268 A 
ATOM     13  O   UNL     1       3.163  -3.194  -0.893  0.00  0.00    -0.267 OA
ATOM     14  N   UNL     1       1.381  -4.481  -0.403  0.00  0.00    -0.255 N 
ENDROOT
BRANCH  14  15
ATOM     15  C   UNL     1       2.143  -5.647  -0.562  0.00  0.00    +0.052 A 
ATOM     16  C   UNL     1       2.397  -6.465   0.531  0.00  0.00    +0.026 A 
ATOM     17  C   UNL     1       3.144  -7.616   0.370  0.00  0.00    +0.005 A 
ATOM     18  C   UNL     1       3.647  -7.948  -0.874  0.00  0.00    -0.050 A 
ATOM     19  C   UNL     1       3.399  -7.132  -1.963  0.00  0.00    +0.005 A 
ATOM     20  C   UNL     1       2.649  -5.982  -1.810  0.00  0.00    +0.026 A 
ATOM     21  C   UNL     1       4.466  -9.201  -1.044  0.00  0.00    +0.044 C 
ENDBRANCH  14  15
BRANCH   1  22
ATOM     22  S   UNL     1      -0.604  -6.218   0.153  0.00  0.00    -0.078 S 
BRANCH  22  23
ATOM     23  C   UNL     1      -2.313  -5.795   0.574  0.00  0.00    +0.173 C 
BRANCH  23  25
ATOM     24  N   UNL     1      -4.404  -6.989   1.140  0.00  0.00    -0.285 N 
ATOM     25  C   UNL     1      -3.099  -7.059   0.811  0.00  0.00    +0.227 C 
ATOM     26  O   UNL     1      -2.558  -8.139   0.706  0.00  0.00    -0.275 OA
ATOM     27  H   UNL     1      -4.851  -6.128   1.170  0.00  0.00    +0.155 HD
BRANCH  24  33
ATOM     28  C   UNL     1      -6.237  -8.100   2.255  0.00  0.00    -0.026 A 
ATOM     29  C   UNL     1      -6.935  -9.255   2.547  0.00  0.00    +0.005 A 
ATOM     30  C   UNL     1      -6.519 -10.466   2.028  0.00  0.00    +0.000 A 
ATOM     31  C   UNL     1      -5.403 -10.527   1.214  0.00  0.00    +0.002 A 
ATOM     32  C   UNL     1      -4.702  -9.375   0.914  0.00  0.00    +0.023 A 
ATOM     33  C   UNL     1      -5.115  -8.157   1.438  0.00  0.00    +0.037 A 
BRANCH  28  35
ATOM     34  C   UNL     1      -7.579  -6.065   1.799  0.00  0.00    +0.009 C 
ATOM     35  C   UNL     1      -6.691  -6.779   2.821  0.00  0.00    +0.033 C 
ENDBRANCH  28  35
ENDBRANCH  24  33
ENDBRANCH  23  25
ENDBRANCH  22  23
ENDBRANCH   1  22
TORSDOF 6
