REMARK  Name = ZINC40036440
REMARK  8 active torsions:
REMARK  status: ('A' for Active; 'I' for Inactive)
REMARK    1  A    between atoms: C_1  and  C_2
REMARK    2  A    between atoms: C_2  and  C_3
REMARK    3  A    between atoms: C_3  and  C_4
REMARK    4  A    between atoms: C_4  and  C_34
REMARK    5  A    between atoms: N_16  and  C_32
REMARK    6  A    between atoms: N_19  and  N_20
REMARK    7  A    between atoms: C_21  and  C_22
REMARK    8  A    between atoms: C_32  and  C_33
REMARK                            x       y       z     vdW  Elec       q    Type
REMARK                         _______ _______ _______ _____ _____    ______ ____
ROOT
ATOM      1  C   UNL     1      -1.413  -2.063   0.004  0.00  0.00    +0.004 C 
ATOM      2  C   UNL     1      -2.911  -2.263   0.215  0.00  0.00    +0.047 C 
ATOM      3  C   UNL     1      -3.666  -1.982  -1.056  0.00  0.00    -0.037 A 
ATOM      4  C   UNL     1      -4.912  -1.392  -1.013  0.00  0.00    +0.004 A 
ATOM      5  C   UNL     1      -5.602  -1.142  -2.187  0.00  0.00    +0.000 A 
ATOM      6  C   UNL     1      -5.049  -1.478  -3.409  0.00  0.00    +0.001 A 
ATOM      7  C   UNL     1      -3.801  -2.068  -3.466  0.00  0.00    +0.010 A 
ATOM      8  C   UNL     1      -3.104  -2.321  -2.288  0.00  0.00    +0.004 A 
ATOM      9  C   UNL     1      -1.761  -2.942  -2.317  0.00  0.00    +0.084 A 
ATOM     10  C   UNL     1      -0.942  -2.822  -1.204  0.00  0.00    +0.049 A 
ATOM     11  C   UNL     1       0.325  -3.418  -1.231  0.00  0.00    +0.260 A 
ATOM     12  O   UNL     1       1.073  -3.335  -0.270  0.00  0.00    -0.267 OA
ATOM     13  N   UNL     1       0.702  -4.086  -2.342  0.00  0.00    -0.280 N 
ATOM     14  C   UNL     1      -0.139  -4.170  -3.411  0.00  0.00    +0.219 A 
ATOM     15  N   UNL     1      -1.333  -3.612  -3.392  0.00  0.00    -0.214 NA
ATOM     16  N   UNL     1       0.266  -4.849  -4.530  0.00  0.00    -0.206 N 
ATOM     17  C   UNL     1      -0.660  -2.564   1.239  0.00  0.00    +0.017 C 
ATOM     18  H   UNL     1       1.143  -5.263  -4.556  0.00  0.00    +0.177 HD
ENDROOT
BRANCH  16  19
ATOM     19  N   UNL     1      -0.587  -4.944  -5.638  0.00  0.00    -0.188 NA
ATOM     20  C   UNL     1      -0.202  -5.589  -6.702  0.00  0.00    +0.137 C 
BRANCH  20  21
ATOM     21  C   UNL     1      -1.064  -5.686  -7.823  0.00  0.00    +0.010 C 
ATOM     22  C   UNL     1      -2.288  -5.103  -7.793  0.00  0.00    +0.020 C 
ATOM     23  C   UNL     1      -3.151  -5.253  -8.977  0.00  0.00    +0.017 A 
ATOM     24  C   UNL     1      -4.260  -4.434  -9.176  0.00  0.00    +0.011 A 
ATOM     25  C   UNL     1      -5.042  -4.609 -10.301  0.00  0.00    +0.001 A 
ATOM     26  C   UNL     1      -4.726  -5.590 -11.225  0.00  0.00    +0.004 A 
ATOM     27  C   UNL     1      -3.627  -6.408 -11.037  0.00  0.00    +0.046 A 
ATOM     28  C   UNL     1      -2.833  -6.247  -9.916  0.00  0.00    +0.128 A 
ATOM     29  O   UNL     1      -1.748  -7.034  -9.702  0.00  0.00    -0.487 OA
ATOM     30  C   UNL     1      -0.622  -6.431  -9.056  0.00  0.00    +0.266 C 
ENDBRANCH  20  21
ENDBRANCH  16  19
BRANCH  13  31
ATOM     31  C   UNL     1       2.020  -4.723  -2.400  0.00  0.00    +0.125 C 
ATOM     32  C   UNL     1       1.916  -6.159  -1.881  0.00  0.00    +0.027 C 
ENDBRANCH  13  31
BRANCH   1  33
ATOM     33  C   UNL     1      -1.125  -0.574  -0.192  0.00  0.00    +0.011 C 
BRANCH  33  35
ATOM     34  C   UNL     1       0.667   1.125  -0.571  0.00  0.00    +0.004 C 
ATOM     35  C   UNL     1       0.380  -0.364  -0.375  0.00  0.00    -0.003 C 
ENDBRANCH  33  35
ENDBRANCH   1  33
TORSDOF 5
