REMARK  Name = ZINC16001088
REMARK  4 active torsions:
REMARK  status: ('A' for Active; 'I' for Inactive)
REMARK    1  A    between atoms: C_1  and  C_2
REMARK    2  A    between atoms: C_5  and  N_11
REMARK    3  A    between atoms: C_7  and  N_8
REMARK    4  A    between atoms: C_31  and  C_36
REMARK                            x       y       z     vdW  Elec       q    Type
REMARK                         _______ _______ _______ _____ _____    ______ ____
ROOT
ATOM      1  N   UNL     1       1.144   2.163  -0.200  0.00  0.00    -0.210 N 
ATOM      2  C   UNL     1       0.014   1.447  -0.241  0.00  0.00    +0.228 C 
ATOM      3  O   UNL     1      -0.051   0.237  -0.209  0.00  0.00    -0.275 OA
ATOM      4  C   UNL     1      -1.169   2.383  -0.340  0.00  0.00    +0.074 C 
ATOM      5  C   UNL     1      -1.833   2.236  -1.714  0.00  0.00    -0.054 C 
ATOM      6  C   UNL     1      -1.507   0.848  -2.293  0.00  0.00    -0.016 C 
ATOM      7  C   UNL     1      -0.222   1.038  -3.122  0.00  0.00    -0.020 C 
ATOM      8  C   UNL     1       0.149   2.526  -2.955  0.00  0.00    -0.076 C 
ATOM      9  N   UNL     1      -1.119   3.206  -2.599  0.00  0.00    +0.395 N 
ATOM     10  C   UNL     1      -0.839   4.361  -1.730  0.00  0.00    +0.053 C 
ATOM     11  C   UNL     1      -0.514   3.791  -0.344  0.00  0.00    +0.089 C 
ATOM     12  C   UNL     1       0.965   3.488  -0.252  0.00  0.00    +0.229 C 
ATOM     13  O   UNL     1       1.850   4.316  -0.228  0.00  0.00    -0.275 OA
ATOM     14  C   UNL     1      -2.006   5.307  -1.675  0.00  0.00    -0.027 A 
ATOM     15  C   UNL     1      -3.319   5.171  -1.283  0.00  0.00    +0.006 A 
ATOM     16  C   UNL     1      -4.177   6.254  -1.348  0.00  0.00    +0.020 A 
ATOM     17  C   UNL     1      -3.713   7.474  -1.808  0.00  0.00    +0.046 A 
ATOM     18  C   UNL     1      -2.398   7.615  -2.203  0.00  0.00    -0.011 A 
ATOM     19  C   UNL     1      -1.528   6.529  -2.140  0.00  0.00    +0.040 A 
ATOM     20  N   UNL     1      -0.176   6.423  -2.475  0.00  0.00    -0.286 N 
ATOM     21  C   UNL     1       0.304   5.182  -2.264  0.00  0.00    +0.212 C 
ATOM     22  O   UNL     1       1.438   4.801  -2.464  0.00  0.00    -0.277 OA
ATOM     23  C   UNL     1      -1.902   8.947  -2.702  0.00  0.00    +0.047 C 
ATOM     24 CL   UNL     1      -4.790   8.833  -1.889  0.00  0.00    -0.083 Cl
ATOM     25  H   UNL     1       0.365   7.298  -2.863  0.00  0.00    +0.155 HD
ATOM     26  H   UNL     1      -1.658   3.525  -3.503  0.00  0.00    -0.079 HD
ENDROOT
BRANCH   1  31
ATOM     27  C   UNL     1       6.280  -0.226   0.162  0.00  0.00    +0.046 C 
ATOM     28  C   UNL     1       4.916   0.408   0.066  0.00  0.00    -0.020 A 
ATOM     29  C   UNL     1       4.551   1.089  -1.081  0.00  0.00    +0.007 A 
ATOM     30  C   UNL     1       3.302   1.671  -1.172  0.00  0.00    +0.024 A 
ATOM     31  C   UNL     1       2.413   1.572  -0.111  0.00  0.00    +0.046 A 
ATOM     32  C   UNL     1       2.784   0.892   1.041  0.00  0.00    +0.057 A 
ATOM     33  C   UNL     1       4.033   0.308   1.125  0.00  0.00    +0.131 A 
BRANCH  33  34
ATOM     34  N   UNL     1       4.428  -0.421   2.351  0.00  0.00    +0.057 N 
ATOM     35  O   UNL     1       3.613  -0.609   3.236  0.00  0.00    -0.126 OA
ATOM     36  O   UNL     1       5.567  -0.833   2.474  0.00  0.00    -0.126 OA
ENDBRANCH  33  34
ENDBRANCH   1  31
TORSDOF 2
