REMARK  Name = ZINC64679515
REMARK  6 active torsions:
REMARK  status: ('A' for Active; 'I' for Inactive)
REMARK    1  A    between atoms: C_1  and  C_2
REMARK    2  A    between atoms: C_6  and  C_8
REMARK    3  A    between atoms: C_8  and  O_9
REMARK    4  A    between atoms: O_9  and  C_10
REMARK    5  A    between atoms: C_13  and  C_16
REMARK    6  A    between atoms: C_25  and  C_28
REMARK                            x       y       z     vdW  Elec       q    Type
REMARK                         _______ _______ _______ _____ _____    ______ ____
ROOT
ATOM      1  C   UNL     1       1.599  -3.745   4.055  0.00  0.00    +0.121 A 
ATOM      2  C   UNL     1       0.509  -4.191   4.788  0.00  0.00    +0.046 A 
ATOM      3  C   UNL     1       0.708  -4.880   5.969  0.00  0.00    +0.008 A 
ATOM      4  C   UNL     1       1.991  -5.125   6.420  0.00  0.00    -0.039 A 
ATOM      5  C   UNL     1       3.079  -4.681   5.692  0.00  0.00    +0.008 A 
ATOM      6  C   UNL     1       2.886  -3.997   4.507  0.00  0.00    +0.046 A 
ENDROOT
BRANCH   4   7
ATOM      7  C   UNL     1       2.205  -5.876   7.709  0.00  0.00    +0.059 C 
ATOM      8  C   UNL     1       3.015  -5.018   8.695  0.00  0.00    +0.108 C 
ATOM      9  C   UNL     1       3.753  -5.852   9.690  0.00  0.00    +0.216 C 
ATOM     10  O   UNL     1       4.135  -5.277  10.687  0.00  0.00    -0.276 OA
ATOM     11  N   UNL     1       4.045  -7.153   9.617  0.00  0.00    -0.289 N 
ATOM     12  C   UNL     1       3.456  -8.020   8.607  0.00  0.00    +0.243 C 
ATOM     13  C   UNL     1       3.028  -7.108   7.460  0.00  0.00    +0.004 C 
ATOM     14  C   UNL     1       3.551  -7.656   6.389  0.00  0.00    +0.064 C 
ATOM     15  N   UNL     1       4.360  -8.690   6.736  0.00  0.00    -0.157 NA
ATOM     16  N   UNL     1       4.392  -8.938   7.964  0.00  0.00    -0.160 NA
ATOM     17  C   UNL     1       3.291  -7.203   4.975  0.00  0.00    +0.067 C 
ATOM     18  H   UNL     1       4.667  -7.532  10.257  0.00  0.00    +0.151 HD
ENDBRANCH   4   7
BRANCH   1  19
ATOM     19  O   UNL     1       1.406  -3.067   2.893  0.00  0.00    -0.487 OA
BRANCH  19  20
ATOM     20  C   UNL     1       0.054  -2.845   2.489  0.00  0.00    +0.264 C 
BRANCH  20  26
ATOM     21  C   UNL     1      -0.018   1.503   0.010  0.00  0.00    +0.044 C 
ATOM     22  C   UNL     1       0.002  -0.004   0.002  0.00  0.00    -0.050 A 
ATOM     23  C   UNL     1       0.006  -0.689  -1.199  0.00  0.00    +0.003 A 
ATOM     24  C   UNL     1       0.025  -2.071  -1.207  0.00  0.00    +0.001 A 
ATOM     25  C   UNL     1       0.040  -2.768  -0.013  0.00  0.00    +0.007 A 
ATOM     26  C   UNL     1       0.037  -2.084   1.188  0.00  0.00    -0.010 A 
ATOM     27  C   UNL     1       0.023  -0.702   1.195  0.00  0.00    +0.010 A 
ENDBRANCH  20  26
ENDBRANCH  19  20
ENDBRANCH   1  19
TORSDOF 4
