REMARK  Name = ZINC20556487
REMARK  5 active torsions:
REMARK  status: ('A' for Active; 'I' for Inactive)
REMARK    1  A    between atoms: C_4  and  O_21
REMARK    2  A    between atoms: C_5  and  C_7
REMARK    3  A    between atoms: C_8  and  C_9
REMARK    4  A    between atoms: C_12  and  C_14
REMARK    5  A    between atoms: C_19  and  O_20
REMARK                            x       y       z     vdW  Elec       q    Type
REMARK                         _______ _______ _______ _____ _____    ______ ____
ROOT
ATOM      1  C   UNL     1      -0.014   1.213   0.009  0.00  0.00    +0.243 C 
ATOM      2  O   UNL     1       0.002  -0.004   0.002  0.00  0.00    -0.270 OA
ATOM      3  N   UNL     1       1.143   1.902   0.001  0.00  0.00    -0.249 N 
ATOM      4  C   UNL     1       2.320   1.244  -0.013  0.00  0.00    +0.254 C 
ATOM      5  O   UNL     1       2.336   0.029  -0.020  0.00  0.00    -0.270 OA
ATOM      6  H   UNL     1       1.129   3.002   0.007  0.00  0.00    +0.158 HD
ENDROOT
BRANCH   4   7
ATOM      7  C   UNL     1       3.587   1.999  -0.021  0.00  0.00    +0.078 A 
ATOM      8  C   UNL     1       3.572   3.397  -0.020  0.00  0.00    +0.017 A 
ATOM      9  C   UNL     1       4.760   4.096  -0.022  0.00  0.00    +0.001 A 
ATOM     10  C   UNL     1       5.969   3.419  -0.037  0.00  0.00    +0.004 A 
ATOM     11  C   UNL     1       5.997   2.039  -0.044  0.00  0.00    +0.046 A 
ATOM     12  C   UNL     1       4.812   1.319  -0.037  0.00  0.00    +0.129 A 
BRANCH  12  13
ATOM     13  O   UNL     1       4.839  -0.037  -0.045  0.00  0.00    -0.506 OA
ATOM     14  H   UNL     1       5.802  -0.568  -0.057  0.00  0.00    +0.292 HD
ENDBRANCH  12  13
ENDBRANCH   4   7
BRANCH   1  16
ATOM     15  C   UNL     1      -2.413   1.214   0.020  0.00  0.00    +0.016 C 
ATOM     16  C   UNL     1      -1.252   1.905   0.018  0.00  0.00    +0.068 C 
BRANCH  15  21
ATOM     17  C   UNL     1      -4.925   3.996   0.047  0.00  0.00    +0.001 A 
ATOM     18  C   UNL     1      -6.116   3.286   0.049  0.00  0.00    +0.004 A 
ATOM     19  C   UNL     1      -6.107   1.905   0.042  0.00  0.00    +0.046 A 
ATOM     20  C   UNL     1      -4.904   1.217   0.026  0.00  0.00    +0.124 A 
ATOM     21  C   UNL     1      -3.695   1.931   0.030  0.00  0.00    +0.017 A 
ATOM     22  C   UNL     1      -3.719   3.330   0.038  0.00  0.00    +0.011 A 
BRANCH  20  23
ATOM     23  O   UNL     1      -4.895  -0.140   0.013  0.00  0.00    -0.506 OA
ATOM     24  H   UNL     1      -3.938  -0.683   0.000  0.00  0.00    +0.292 HD
ENDBRANCH  20  23
ENDBRANCH  15  21
ENDBRANCH   1  16
TORSDOF 5
