REMARK  Name = ZINC08982868
REMARK  17 active torsions:
REMARK  status: ('A' for Active; 'I' for Inactive)
REMARK    1  A    between atoms: C_1  and  N_67
REMARK    2  A    between atoms: C_2  and  N_67
REMARK    3  A    between atoms: C_3  and  C_4
REMARK    4  A    between atoms: C_3  and  N_67
REMARK    5  A    between atoms: C_4  and  C_5
REMARK    6  A    between atoms: C_5  and  N_6
REMARK    7  A    between atoms: C_7  and  C_26
REMARK    8  A    between atoms: C_10  and  C_11
REMARK    9  A    between atoms: C_10  and  O_21
REMARK   10  A    between atoms: C_14  and  O_19
REMARK   11  A    between atoms: C_15  and  O_17
REMARK   12  A    between atoms: O_17  and  C_18
REMARK   13  A    between atoms: O_19  and  C_20
REMARK   14  A    between atoms: C_29  and  O_34
REMARK   15  A    between atoms: C_30  and  O_32
REMARK   16  A    between atoms: O_32  and  C_33
REMARK   17  A    between atoms: O_34  and  C_35
REMARK                            x       y       z     vdW  Elec       q    Type
REMARK                         _______ _______ _______ _____ _____    ______ ____
ROOT
ATOM      1  N   UNL     1      -1.721   5.364   0.678  0.00  0.00    -0.284 N 
ATOM      2  C   UNL     1      -2.216   4.192  -0.051  0.00  0.00    +0.145 C 
ATOM      3  C   UNL     1      -2.562   4.663  -1.444  0.00  0.00    +0.071 C 
ATOM      4  C   UNL     1      -3.066   3.897  -2.478  0.00  0.00    +0.133 C 
ATOM      5  C   UNL     1      -2.270   6.034  -1.476  0.00  0.00    +0.249 C 
ATOM      6  O   UNL     1      -2.417   6.774  -2.433  0.00  0.00    -0.282 OA
ATOM      7  C   UNL     1      -1.751   6.430  -0.139  0.00  0.00    +0.288 C 
ATOM      8  O   UNL     1      -1.404   7.552   0.168  0.00  0.00    -0.266 OA
ENDROOT
BRANCH   4   9
ATOM      9  C   UNL     1      -3.489   4.541  -3.731  0.00  0.00    +0.021 A 
ATOM     10  C   UNL     1      -4.373   5.625  -3.700  0.00  0.00    +0.015 A 
ATOM     11  C   UNL     1      -4.764   6.228  -4.875  0.00  0.00    +0.050 A 
ATOM     12  C   UNL     1      -4.290   5.757  -6.093  0.00  0.00    +0.162 A 
ATOM     13  C   UNL     1      -3.412   4.674  -6.132  0.00  0.00    +0.162 A 
ATOM     14  C   UNL     1      -3.012   4.066  -4.959  0.00  0.00    +0.061 A 
BRANCH  13  15
ATOM     15  O   UNL     1      -2.951   4.215  -7.327  0.00  0.00    -0.491 OA
ATOM     16  C   UNL     1      -2.056   3.102  -7.293  0.00  0.00    +0.277 C 
ENDBRANCH  13  15
BRANCH  12  17
ATOM     17  O   UNL     1      -4.683   6.353  -7.248  0.00  0.00    -0.491 OA
ATOM     18  C   UNL     1      -5.583   7.457  -7.135  0.00  0.00    +0.277 C 
ENDBRANCH  12  17
ENDBRANCH   4   9
BRANCH   2  19
ATOM     19  C   UNL     1      -1.144   3.134  -0.115  0.00  0.00    -0.019 A 
ATOM     20  C   UNL     1       0.176   3.501  -0.306  0.00  0.00    +0.009 A 
ATOM     21  C   UNL     1       1.163   2.535  -0.367  0.00  0.00    +0.050 A 
ATOM     22  C   UNL     1       0.831   1.196  -0.237  0.00  0.00    +0.162 A 
ATOM     23  C   UNL     1      -0.497   0.827  -0.044  0.00  0.00    +0.162 A 
ATOM     24  C   UNL     1      -1.482   1.800   0.010  0.00  0.00    +0.055 A 
BRANCH  23  25
ATOM     25  O   UNL     1      -0.828  -0.486   0.085  0.00  0.00    -0.491 OA
ATOM     26  C   UNL     1      -2.211  -0.790   0.280  0.00  0.00    +0.277 C 
ENDBRANCH  23  25
BRANCH  22  27
ATOM     27  O   UNL     1       1.800   0.244  -0.297  0.00  0.00    -0.491 OA
ATOM     28  C   UNL     1       3.141   0.696  -0.496  0.00  0.00    +0.277 C 
ENDBRANCH  22  27
ENDBRANCH   2  19
BRANCH   4  29
ATOM     29  O   UNL     1      -3.171   2.558  -2.337  0.00  0.00    -0.506 OA
ATOM     30  H   UNL     1      -3.551   2.164  -3.174  0.00  0.00    +0.292 HD
ENDBRANCH   4  29
BRANCH   1  31
ATOM     31  C   UNL     1      -1.269   5.371   2.071  0.00  0.00    +0.107 C 
BRANCH  31  32
ATOM     32  C   UNL     1       0.231   5.077   2.122  0.00  0.00    +0.000 C 
BRANCH  32  33
ATOM     33  C   UNL     1       0.703   5.085   3.578  0.00  0.00    -0.078 C 
BRANCH  33  36
ATOM     34  C   UNL     1       2.680   5.034   4.974  0.00  0.00    -0.097 C 
ATOM     35  C   UNL     1       2.428   3.435   3.175  0.00  0.00    -0.097 C 
ATOM     36  N   UNL     1       2.157   4.821   3.609  0.00  0.00    +0.376 N 
ATOM     37  H   UNL     1       2.628   5.470   2.966  0.00  0.00    -0.083 HD
ENDBRANCH  33  36
ENDBRANCH  32  33
ENDBRANCH  31  32
ENDBRANCH   1  31
TORSDOF 11
