REMARK  Name = ZINC39696555
REMARK  14 active torsions:
REMARK  status: ('A' for Active; 'I' for Inactive)
REMARK    1  A    between atoms: C_1  and  C_2
REMARK    2  A    between atoms: C_2  and  C_3
REMARK    3  A    between atoms: C_2  and  C_4
REMARK    4  A    between atoms: C_4  and  C_6
REMARK    5  A    between atoms: C_4  and  O_29
REMARK    6  A    between atoms: C_10  and  C_19
REMARK    7  A    between atoms: N_21  and  C_22
REMARK    8  A    between atoms: C_22  and  C_23
REMARK    9  A    between atoms: C_23  and  S_24
REMARK   10  A    between atoms: S_24  and  C_25
REMARK   11  A    between atoms: C_25  and  C_26
REMARK   12  A    between atoms: C_25  and  C_27
REMARK   13  A    between atoms: C_25  and  C_28
REMARK   14  A    between atoms: O_29  and  C_30
REMARK                            x       y       z     vdW  Elec       q    Type
REMARK                         _______ _______ _______ _____ _____    ______ ____
ROOT
ATOM      1  C   UNL     1       0.379  -1.574  -1.140  0.00  0.00    +0.257 C 
ATOM      2  O   UNL     1       1.307  -2.341  -0.996  0.00  0.00    -0.272 OA
ATOM      3  N   UNL     1      -0.868  -2.052  -1.326  0.00  0.00    -0.297 N 
ATOM      4  C   UNL     1      -2.097  -1.285  -1.636  0.00  0.00    +0.121 C 
ATOM      5  C   UNL     1      -2.856  -2.162  -2.658  0.00  0.00    +0.100 C 
ATOM      6  C   UNL     1      -2.342  -3.590  -2.408  0.00  0.00    -0.004 C 
ATOM      7  C   UNL     1      -1.317  -3.464  -1.272  0.00  0.00    +0.115 C 
ATOM      8  C   UNL     1      -3.491  -4.499  -1.986  0.00  0.00    -0.010 C 
ATOM      9  C   UNL     1      -2.966  -5.925  -1.800  0.00  0.00    -0.082 C 
ATOM     10  N   UNL     1      -2.377  -6.400  -3.058  0.00  0.00    +0.379 N 
ATOM     11  C   UNL     1      -1.214  -5.576  -3.409  0.00  0.00    -0.082 C 
ATOM     12  C   UNL     1      -1.665  -4.135  -3.663  0.00  0.00    -0.010 C 
ATOM     13  H   UNL     1      -2.087  -7.360  -2.951  0.00  0.00    -0.086 HD
ATOM     14  H   UNL     1      -3.065  -6.339  -3.794  0.00  0.00    -0.086 HD
ENDROOT
BRANCH   5  15
ATOM     15  C   UNL     1      -4.341  -2.086  -2.414  0.00  0.00    +0.218 C 
ATOM     16  O   UNL     1      -4.761  -1.833  -1.304  0.00  0.00    -0.275 OA
ATOM     17  N   UNL     1      -5.202  -2.299  -3.428  0.00  0.00    -0.314 N 
ATOM     18  H   UNL     1      -4.866  -2.502  -4.316  0.00  0.00    +0.149 HD
BRANCH  17  19
ATOM     19  C   UNL     1      -6.646  -2.226  -3.191  0.00  0.00    +0.115 C 
BRANCH  19  20
ATOM     20  C   UNL     1      -7.393  -2.506  -4.497  0.00  0.00    +0.088 C 
BRANCH  20  21
ATOM     21  S   UNL     1      -9.180  -2.415  -4.203  0.00  0.00    -0.153 S 
BRANCH  21  22
ATOM     22  C   UNL     1      -9.910  -2.765  -5.826  0.00  0.00    +0.008 C 
ATOM     23  C   UNL     1      -9.473  -4.155  -6.293  0.00  0.00    +0.022 C 
ATOM     24  C   UNL     1     -11.436  -2.720  -5.720  0.00  0.00    +0.022 C 
ATOM     25  C   UNL     1      -9.438  -1.716  -6.835  0.00  0.00    +0.022 C 
ENDBRANCH  21  22
ENDBRANCH  20  21
ENDBRANCH  19  20
ENDBRANCH  17  19
ENDBRANCH   5  15
BRANCH   1  26
ATOM     26  C   UNL     1       0.619  -0.086  -1.111  0.00  0.00    +0.261 C 
BRANCH  26  28
ATOM     27  C   UNL     1       0.507   1.970   0.304  0.00  0.00    +0.011 C 
ATOM     28  C   UNL     1       0.319   0.451   0.290  0.00  0.00    +0.033 C 
ATOM     29  C   UNL     1      -1.124   0.113   0.668  0.00  0.00    +0.011 C 
ENDBRANCH  26  28
BRANCH  26  30
ATOM     30  O   UNL     1       1.982   0.183  -1.443  0.00  0.00    -0.479 OA
BRANCH  30  31
ATOM     31  C   UNL     1       2.220   1.234  -2.271  0.00  0.00    +0.122 A 
ATOM     32  C   UNL     1       3.505   1.475  -2.736  0.00  0.00    +0.045 A 
ATOM     33  C   UNL     1       3.744   2.544  -3.578  0.00  0.00    +0.004 A 
ATOM     34  C   UNL     1       2.704   3.373  -3.957  0.00  0.00    +0.000 A 
ATOM     35  C   UNL     1       1.423   3.134  -3.495  0.00  0.00    +0.004 A 
ATOM     36  C   UNL     1       1.178   2.063  -2.657  0.00  0.00    +0.045 A 
ENDBRANCH  30  31
ENDBRANCH  26  30
ENDBRANCH   1  26
TORSDOF 9
