REMARK  Name = ZINC39654608
REMARK  10 active torsions:
REMARK  status: ('A' for Active; 'I' for Inactive)
REMARK    1  A    between atoms: C_1  and  C_2
REMARK    2  A    between atoms: C_2  and  C_3
REMARK    3  A    between atoms: C_6  and  C_9
REMARK    4  A    between atoms: C_9  and  C_10
REMARK    5  A    between atoms: C_10  and  N_11
REMARK    6  A    between atoms: C_12  and  C_14
REMARK    7  A    between atoms: C_25  and  C_27
REMARK    8  A    between atoms: C_31  and  O_33
REMARK    9  A    between atoms: O_33  and  C_34
REMARK   10  A    between atoms: C_34  and  C_35
REMARK                            x       y       z     vdW  Elec       q    Type
REMARK                         _______ _______ _______ _____ _____    ______ ____
ROOT
ATOM      1  C   UNL     1     -10.733  -1.465   0.070  0.00  0.00    +0.100 C 
ATOM      2  C   UNL     1     -10.670  -2.202   1.427  0.00  0.00    +0.121 C 
ATOM      3  N   UNL     1     -11.217  -1.234   2.405  0.00  0.00    -0.296 N 
ATOM      4  C   UNL     1     -12.343  -0.585   1.691  0.00  0.00    +0.115 C 
ATOM      5  C   UNL     1     -11.834  -0.406   0.247  0.00  0.00    -0.004 C 
ATOM      6  C   UNL     1     -11.257   0.994   0.061  0.00  0.00    -0.010 C 
ATOM      7  C   UNL     1     -12.381   2.025   0.186  0.00  0.00    -0.082 C 
ATOM      8  N   UNL     1     -13.407   1.759  -0.830  0.00  0.00    +0.379 N 
ATOM      9  C   UNL     1     -14.022   0.448  -0.589  0.00  0.00    -0.082 C 
ATOM     10  C   UNL     1     -12.967  -0.650  -0.746  0.00  0.00    -0.010 C 
ATOM     11  C   UNL     1     -10.789  -0.996   3.661  0.00  0.00    +0.247 C 
ATOM     12  O   UNL     1      -9.769  -1.521   4.064  0.00  0.00    -0.270 OA
ATOM     13  H   UNL     1     -14.116   2.475  -0.786  0.00  0.00    -0.086 HD
ATOM     14  H   UNL     1     -12.982   1.766  -1.745  0.00  0.00    -0.086 HD
ENDROOT
BRANCH  11  15
ATOM     15  C   UNL     1     -11.559  -0.097   4.547  0.00  0.00    +0.040 A 
ATOM     16  C   UNL     1     -12.906   0.159   4.286  0.00  0.00    +0.013 A 
ATOM     17  C   UNL     1     -13.621   0.998   5.115  0.00  0.00    +0.004 A 
ATOM     18  C   UNL     1     -13.008   1.587   6.205  0.00  0.00    +0.046 A 
ATOM     19  C   UNL     1     -11.669   1.338   6.473  0.00  0.00    +0.121 A 
ATOM     20  C   UNL     1     -10.943   0.493   5.651  0.00  0.00    +0.058 A 
BRANCH  19  21
ATOM     21  O   UNL     1     -11.071   1.920   7.546  0.00  0.00    -0.492 OA
BRANCH  21  22
ATOM     22  C   UNL     1     -11.881   2.777   8.355  0.00  0.00    +0.225 C 
ATOM     23  C   UNL     1     -11.042   3.335   9.505  0.00  0.00    +0.048 C 
ENDBRANCH  21  22
ENDBRANCH  19  21
ENDBRANCH  11  15
BRANCH   1  25
ATOM     24  N   UNL     1      -9.071  -0.525  -1.503  0.00  0.00    -0.315 N 
ATOM     25  C   UNL     1      -9.412  -0.803  -0.229  0.00  0.00    +0.218 C 
ATOM     26  O   UNL     1      -8.656  -0.520   0.676  0.00  0.00    -0.275 OA
ATOM     27  H   UNL     1      -9.676  -0.751  -2.227  0.00  0.00    +0.149 HD
BRANCH  24  28
ATOM     28  C   UNL     1      -7.787   0.119  -1.794  0.00  0.00    +0.109 C 
BRANCH  28  29
ATOM     29  C   UNL     1      -7.649   0.320  -3.304  0.00  0.00    +0.054 C 
BRANCH  29  33
ATOM     30  C   UNL     1      -3.906   2.196  -4.155  0.00  0.00    -0.048 A 
ATOM     31  C   UNL     1      -3.995   0.817  -4.112  0.00  0.00    +0.004 A 
ATOM     32  C   UNL     1      -5.206   0.210  -3.837  0.00  0.00    +0.004 A 
ATOM     33  C   UNL     1      -6.328   0.982  -3.603  0.00  0.00    -0.046 A 
ATOM     34  C   UNL     1      -6.240   2.361  -3.645  0.00  0.00    +0.004 A 
ATOM     35  C   UNL     1      -5.028   2.968  -3.916  0.00  0.00    +0.004 A 
BRANCH  30  37
ATOM     36  C   UNL     1      -1.828   3.099  -3.148  0.00  0.00    +0.009 C 
ATOM     37  C   UNL     1      -2.586   2.858  -4.455  0.00  0.00    +0.032 C 
ENDBRANCH  30  37
ENDBRANCH  29  33
ENDBRANCH  28  29
ENDBRANCH  24  28
ENDBRANCH   1  25
TORSDOF 8
