REMARK  Name = ZINC21654246
REMARK  9 active torsions:
REMARK  status: ('A' for Active; 'I' for Inactive)
REMARK    1  A    between atoms: C_1  and  C_2
REMARK    2  A    between atoms: C_5  and  N_8
REMARK    3  A    between atoms: N_8  and  C_9
REMARK    4  A    between atoms: C_9  and  C_10
REMARK    5  A    between atoms: N_23  and  C_24
REMARK    6  A    between atoms: C_24  and  C_25
REMARK    7  A    between atoms: C_32  and  C_34
REMARK    8  A    between atoms: C_34  and  C_35
REMARK    9  A    between atoms: C_34  and  C_36
REMARK                            x       y       z     vdW  Elec       q    Type
REMARK                         _______ _______ _______ _____ _____    ______ ____
ROOT
ATOM      1  C   UNL     1       6.287   0.714   4.712  0.00  0.00    -0.029 A 
ATOM      2  C   UNL     1       7.371   1.001   3.904  0.00  0.00    +0.009 A 
ATOM      3  C   UNL     1       8.581   1.364   4.463  0.00  0.00    +0.046 A 
ATOM      4  C   UNL     1       8.710   1.439   5.843  0.00  0.00    +0.125 A 
ATOM      5  C   UNL     1       7.628   1.113   6.647  0.00  0.00    +0.012 A 
ATOM      6  C   UNL     1       6.416   0.771   6.089  0.00  0.00    +0.014 A 
ATOM      7  C   UNL     1       7.825   1.082   8.154  0.00  0.00    +0.148 C 
ATOM      8  N   UNL     1       8.113   2.445   8.613  0.00  0.00    -0.278 N 
ATOM      9  C   UNL     1       9.461   3.001   8.484  0.00  0.00    +0.150 C 
ATOM     10  C   UNL     1       9.867   3.127   7.023  0.00  0.00    +0.248 C 
ATOM     11  O   UNL     1       9.880   1.837   6.401  0.00  0.00    -0.490 OA
ATOM     12  C   UNL     1       7.132   3.188   9.162  0.00  0.00    +0.303 C 
ATOM     13  O   UNL     1       6.033   2.702   9.348  0.00  0.00    -0.253 OA
ATOM     14  N   UNL     1       7.368   4.470   9.504  0.00  0.00    -0.295 N 
ATOM     15  H   UNL     1       8.378   4.891   9.393  0.00  0.00    +0.151 HD
ENDROOT
BRANCH   1  16
ATOM     16  C   UNL     1       4.964   0.340   4.094  0.00  0.00    +0.148 C 
BRANCH  16  17
ATOM     17  N   UNL     1       4.164   1.550   3.883  0.00  0.00    -0.267 N 
ATOM     18  C   UNL     1       3.394   2.030   4.880  0.00  0.00    +0.223 C 
ATOM     19  O   UNL     1       3.410   1.497   5.969  0.00  0.00    -0.275 OA
BRANCH  17  24
ATOM     20  C   UNL     1       4.307   4.210  -1.125  0.00  0.00    +0.044 C 
ATOM     21  C   UNL     1       4.269   3.503   0.205  0.00  0.00    -0.050 A 
ATOM     22  C   UNL     1       3.106   2.883   0.624  0.00  0.00    +0.005 A 
ATOM     23  C   UNL     1       3.068   2.234   1.843  0.00  0.00    +0.024 A 
ATOM     24  C   UNL     1       4.199   2.205   2.648  0.00  0.00    +0.037 A 
ATOM     25  C   UNL     1       5.364   2.834   2.227  0.00  0.00    +0.024 A 
ATOM     26  C   UNL     1       5.397   3.477   1.004  0.00  0.00    +0.005 A 
ENDBRANCH  17  24
BRANCH  18  27
ATOM     27  C   UNL     1       2.514   3.230   4.640  0.00  0.00    +0.069 C 
ATOM     28  C   UNL     1       1.063   2.871   4.965  0.00  0.00    +0.017 C 
ATOM     29  C   UNL     1       2.968   4.383   5.539  0.00  0.00    +0.017 C 
ENDBRANCH  18  27
ENDBRANCH  16  17
ENDBRANCH   1  16
BRANCH  14  30
ATOM     30  C   UNL     1       6.280   5.302  10.023  0.00  0.00    +0.141 C 
BRANCH  30  31
ATOM     31  C   UNL     1       6.804   6.682  10.326  0.00  0.00    -0.030 A 
ATOM     32  C   UNL     1       6.778   7.661   9.351  0.00  0.00    +0.008 A 
ATOM     33  C   UNL     1       7.259   8.927   9.628  0.00  0.00    +0.038 A 
ATOM     34  C   UNL     1       7.766   9.214  10.884  0.00  0.00    +0.123 A 
ATOM     35  C   UNL     1       7.792   8.233  11.860  0.00  0.00    +0.038 A 
ATOM     36  C   UNL     1       7.311   6.968  11.580  0.00  0.00    +0.008 A 
ATOM     37  F   UNL     1       8.237  10.451  11.156  0.00  0.00    -0.205 F 
ENDBRANCH  30  31
ENDBRANCH  14  30
TORSDOF 6
