REMARK  Name = ZINC00816212
REMARK  14 active torsions:
REMARK  status: ('A' for Active; 'I' for Inactive)
REMARK    1  A    between atoms: C_1  and  C_2
REMARK    2  A    between atoms: C_7  and  C_19
REMARK    3  A    between atoms: C_9  and  C_13
REMARK    4  A    between atoms: C_10  and  C_12
REMARK    5  A    between atoms: C_13  and  O_15
REMARK    6  A    between atoms: O_15  and  C_16
REMARK    7  A    between atoms: C_16  and  C_17
REMARK    8  A    between atoms: C_16  and  C_18
REMARK    9  A    between atoms: C_22  and  N_25
REMARK   10  A    between atoms: N_25  and  C_26
REMARK   11  A    between atoms: N_25  and  C_27
REMARK   12  A    between atoms: C_30  and  C_32
REMARK   13  A    between atoms: C_32  and  O_34
REMARK   14  A    between atoms: O_34  and  C_35
REMARK                            x       y       z     vdW  Elec       q    Type
REMARK                         _______ _______ _______ _____ _____    ______ ____
ROOT
ATOM      1  C   UNL     1       0.177   1.892   0.032  0.00  0.00    +0.009 C 
ATOM      2  C   UNL     1      -0.052   0.401  -0.223  0.00  0.00    +0.013 C 
ATOM      3  C   UNL     1       0.651  -0.015  -1.516  0.00  0.00    +0.055 C 
ATOM      4  C   UNL     1       2.136   0.215  -1.381  0.00  0.00    +0.016 C 
ATOM      5  C   UNL     1       2.749   0.117  -0.182  0.00  0.00    +0.025 C 
ATOM      6  C   UNL     1       4.234   0.349  -0.055  0.00  0.00    +0.092 C 
ATOM      7  C   UNL     1       4.910   0.257  -1.391  0.00  0.00    +0.065 C 
ATOM      8  C   UNL     1       4.210   0.350  -2.535  0.00  0.00    +0.016 C 
ATOM      9  N   UNL     1       2.854   0.524  -2.506  0.00  0.00    -0.321 N 
ATOM     10  C   UNL     1       4.925   0.263  -3.859  0.00  0.00    +0.061 C 
ATOM     11  C   UNL     1       2.023  -0.198   0.980  0.00  0.00    +0.176 C 
ATOM     12  O   UNL     1       2.608  -0.295   2.040  0.00  0.00    -0.291 OA
ATOM     13  C   UNL     1       0.531  -0.415   0.936  0.00  0.00    +0.171 C 
ATOM     14  H   UNL     1       2.397   0.869  -3.288  0.00  0.00    +0.152 HD
ENDROOT
BRANCH   6  15
ATOM     15  C   UNL     1       4.473   1.719   0.526  0.00  0.00    -0.035 A 
ATOM     16  C   UNL     1       4.005   2.840  -0.134  0.00  0.00    +0.006 A 
ATOM     17  C   UNL     1       4.222   4.096   0.396  0.00  0.00    +0.023 A 
ATOM     18  C   UNL     1       4.912   4.233   1.594  0.00  0.00    +0.029 A 
ATOM     19  C   UNL     1       5.380   3.105   2.255  0.00  0.00    +0.023 A 
ATOM     20  C   UNL     1       5.154   1.851   1.722  0.00  0.00    +0.006 A 
BRANCH  18  21
ATOM     21  N   UNL     1       5.133   5.503   2.133  0.00  0.00    -0.336 N 
ATOM     22  C   UNL     1       4.534   6.681   1.502  0.00  0.00    +0.129 C 
ATOM     23  C   UNL     1       5.966   5.656   3.328  0.00  0.00    +0.129 C 
ENDBRANCH  18  21
ENDBRANCH   6  15
BRANCH   7  24
ATOM     24  C   UNL     1       6.311   0.070  -1.449  0.00  0.00    +0.338 C 
ATOM     25  O   UNL     1       6.851  -0.159  -2.515  0.00  0.00    -0.245 OA
BRANCH  24  26
ATOM     26  O   UNL     1       7.048   0.146  -0.321  0.00  0.00    -0.459 OA
BRANCH  26  27
ATOM     27  C   UNL     1       8.457  -0.053  -0.453  0.00  0.00    +0.171 C 
ATOM     28  C   UNL     1       9.140   1.291  -0.713  0.00  0.00    +0.052 C 
ATOM     29  C   UNL     1       9.008  -0.665   0.837  0.00  0.00    +0.052 C 
ENDBRANCH  26  27
ENDBRANCH  24  26
ENDBRANCH   7  24
BRANCH  13  30
ATOM     30  C   UNL     1      -0.090   0.036   2.233  0.00  0.00    +0.318 C 
ATOM     31  O   UNL     1      -0.914   0.920   2.233  0.00  0.00    -0.250 OA
BRANCH  30  32
ATOM     32  O   UNL     1       0.273  -0.543   3.388  0.00  0.00    -0.467 OA
ATOM     33  C   UNL     1      -0.355  -0.065   4.579  0.00  0.00    +0.280 C 
ENDBRANCH  30  32
ENDBRANCH  13  30
TORSDOF 7
