REMARK  Name = ZINC12299817
REMARK  11 active torsions:
REMARK  status: ('A' for Active; 'I' for Inactive)
REMARK    1  A    between atoms: C_1  and  C_2
REMARK    2  A    between atoms: C_3  and  C_17
REMARK    3  A    between atoms: N_6  and  C_7
REMARK    4  A    between atoms: C_17  and  C_19
REMARK    5  A    between atoms: C_17  and  N_57
REMARK    6  A    between atoms: C_20  and  C_21
REMARK    7  A    between atoms: C_20  and  N_57
REMARK    8  A    between atoms: C_23  and  C_27
REMARK    9  A    between atoms: C_27  and  C_28
REMARK   10  A    between atoms: C_28  and  C_29
REMARK   11  A    between atoms: C_28  and  C_30
REMARK                            x       y       z     vdW  Elec       q    Type
REMARK                         _______ _______ _______ _____ _____    ______ ____
ROOT
ATOM      1  C   UNL     1       1.590   4.392  -0.046  0.00  0.00    +0.066 C 
ATOM      2  C   UNL     1       0.697   3.178  -0.012  0.00  0.00    +0.043 A 
ATOM      3  C   UNL     1       1.103   1.887  -0.011  0.00  0.00    -0.021 A 
ATOM      4  C   UNL     1      -0.036   1.077   0.025  0.00  0.00    +0.137 A 
ATOM      5  N   UNL     1      -1.092   1.850   0.040  0.00  0.00    -0.174 NA
ATOM      6  N   UNL     1      -0.660   3.183   0.022  0.00  0.00    -0.236 N 
ENDROOT
BRANCH   6   7
ATOM      7  C   UNL     1      -1.481   4.315   0.032  0.00  0.00    +0.073 A 
ATOM      8  C   UNL     1      -1.276   5.330  -0.877  0.00  0.00    +0.028 A 
ATOM      9  C   UNL     1      -2.087   6.461  -0.876  0.00  0.00    +0.003 A 
ATOM     10  C   UNL     1      -3.103   6.597   0.021  0.00  0.00    +0.008 A 
ATOM     11  C   UNL     1      -3.344   5.585   0.966  0.00  0.00    -0.016 A 
ATOM     12  C   UNL     1      -2.529   4.426   0.970  0.00  0.00    +0.008 A 
ATOM     13  C   UNL     1      -2.776   3.413   1.909  0.00  0.00    +0.010 A 
ATOM     14  C   UNL     1      -3.797   3.553   2.799  0.00  0.00    +0.001 A 
ATOM     15  C   UNL     1      -4.602   4.690   2.793  0.00  0.00    +0.001 A 
ATOM     16  C   UNL     1      -4.385   5.698   1.904  0.00  0.00    +0.008 A 
ENDBRANCH   6   7
BRANCH   3  17
ATOM     17  C   UNL     1       2.531   1.407  -0.042  0.00  0.00    -0.040 C 
ATOM     18  C   UNL     1       3.059   1.470  -1.476  0.00  0.00    -0.009 C 
BRANCH  17  19
ATOM     19  N   UNL     1       2.585   0.015   0.443  0.00  0.00    +0.387 N 
ATOM     20  H   UNL     1       2.384  -0.623  -0.336  0.00  0.00    -0.085 HD
ATOM     21  H   UNL     1       1.883  -0.114   1.181  0.00  0.00    -0.085 HD
BRANCH  19  22
ATOM     22  C   UNL     1       3.923  -0.287   0.986  0.00  0.00    -0.024 C 
BRANCH  22  23
ATOM     23  C   UNL     1       3.948  -1.713   1.472  0.00  0.00    +0.046 A 
ATOM     24  C   UNL     1       4.388  -2.821   0.741  0.00  0.00    +0.045 A 
ATOM     25  C   UNL     1       4.255  -3.917   1.525  0.00  0.00    +0.036 A 
ATOM     26  N   UNL     1       3.740  -3.517   2.707  0.00  0.00    -0.281 N 
ATOM     27  H   UNL     1       3.528  -4.107   3.486  0.00  0.00    +0.189 HD
ATOM     28  N   UNL     1       3.556  -2.129   2.649  0.00  0.00    -0.181 NA
BRANCH  25  29
ATOM     29  C   UNL     1       4.611  -5.330   1.144  0.00  0.00    +0.057 C 
BRANCH  29  30
ATOM     30  C   UNL     1       3.441  -5.966   0.391  0.00  0.00    -0.011 C 
ATOM     31  C   UNL     1       3.847  -7.356  -0.104  0.00  0.00    +0.007 C 
ATOM     32  C   UNL     1       2.238  -6.091   1.329  0.00  0.00    +0.007 C 
ENDBRANCH  29  30
ENDBRANCH  25  29
ENDBRANCH  22  23
ENDBRANCH  19  22
ENDBRANCH  17  19
ENDBRANCH   3  17
TORSDOF 7
