REMARK  Name = ZINC31157350
REMARK  14 active torsions:
REMARK  status: ('A' for Active; 'I' for Inactive)
REMARK    1  A    between atoms: C_1  and  C_2
REMARK    2  A    between atoms: C_4  and  O_26
REMARK    3  A    between atoms: C_8  and  C_25
REMARK    4  A    between atoms: C_10  and  O_17
REMARK    5  A    between atoms: C_12  and  C_13
REMARK    6  A    between atoms: C_12  and  O_16
REMARK    7  A    between atoms: C_13  and  C_14
REMARK    8  A    between atoms: C_13  and  C_15
REMARK    9  A    between atoms: O_17  and  C_18
REMARK   10  A    between atoms: C_18  and  C_20
REMARK   11  A    between atoms: C_21  and  O_24
REMARK   12  A    between atoms: O_26  and  C_27
REMARK   13  A    between atoms: C_27  and  C_29
REMARK   14  A    between atoms: C_32  and  O_35
REMARK                            x       y       z     vdW  Elec       q    Type
REMARK                         _______ _______ _______ _____ _____    ______ ____
ROOT
ATOM      1  C   UNL     1       3.924   1.415  -0.054  0.00  0.00    +0.039 C 
ATOM      2  C   UNL     1       2.542   1.238   0.522  0.00  0.00    -0.071 C 
ATOM      3  C   UNL     1       2.395   0.353   1.457  0.00  0.00    +0.016 C 
ATOM      4  C   UNL     1       1.075  -0.013   2.058  0.00  0.00    +0.206 C 
ATOM      5  C   UNL     1       0.318   1.235   2.538  0.00  0.00    +0.078 C 
ATOM      6  C   UNL     1      -0.558   1.711   1.376  0.00  0.00    +0.007 C 
ATOM      7  C   UNL     1      -1.928   1.048   1.521  0.00  0.00    +0.057 C 
ATOM      8  C   UNL     1      -1.892   0.234   2.826  0.00  0.00    +0.209 C 
ATOM      9  C   UNL     1      -0.684   0.766   3.622  0.00  0.00    +0.112 C 
ATOM     10  C   UNL     1       0.095   1.379   0.038  0.00  0.00    +0.125 C 
ATOM     11  C   UNL     1       1.446   2.101  -0.033  0.00  0.00    +0.062 C 
ATOM     12  C   UNL     1      -0.744   3.227   1.478  0.00  0.00    +0.014 C 
ENDROOT
BRANCH   9  13
ATOM     13  C   UNL     1      -0.070  -0.348   4.471  0.00  0.00    +0.019 C 
ATOM     14  C   UNL     1       1.258   0.132   5.060  0.00  0.00    +0.010 C 
ATOM     15  C   UNL     1      -1.029  -0.713   5.605  0.00  0.00    +0.010 C 
ENDBRANCH   9  13
BRANCH   9  16
ATOM     16  O   UNL     1      -1.076   1.865   4.447  0.00  0.00    -0.384 OA
ATOM     17  H   UNL     1      -1.788   1.708   5.271  0.00  0.00    +0.210 HD
ENDBRANCH   9  16
BRANCH  10  18
ATOM     18  O   UNL     1      -0.743   1.821  -1.031  0.00  0.00    -0.391 OA
ATOM     19  H   UNL     1      -0.432   1.665  -2.075  0.00  0.00    +0.210 HD
ENDBRANCH  10  18
BRANCH   8  20
ATOM     20  O   UNL     1      -3.116   0.438   3.579  0.00  0.00    -0.459 OA
BRANCH  20  21
ATOM     21  C   UNL     1      -4.122  -0.421   3.352  0.00  0.00    +0.304 C 
ATOM     22  O   UNL     1      -3.983  -1.315   2.551  0.00  0.00    -0.251 OA
ATOM     23  C   UNL     1      -5.424  -0.271   4.096  0.00  0.00    +0.136 C 
ENDBRANCH  20  21
ENDBRANCH   8  20
BRANCH   4  24
ATOM     24  O   UNL     1       0.274  -0.702   1.062  0.00  0.00    -0.453 OA
BRANCH  24  25
ATOM     25  C   UNL     1       0.445  -2.034   0.955  0.00  0.00    +0.340 C 
ATOM     26  O   UNL     1       1.200  -2.613   1.711  0.00  0.00    -0.245 OA
BRANCH  25  27
ATOM     27  C   UNL     1      -0.283  -2.790  -0.082  0.00  0.00    +0.059 A 
ATOM     28  C   UNL     1      -1.156  -2.127  -0.949  0.00  0.00    +0.018 A 
ATOM     29  C   UNL     1      -1.830  -2.835  -1.919  0.00  0.00    +0.046 A 
ATOM     30  C   UNL     1      -1.652  -4.209  -2.028  0.00  0.00    +0.117 A 
ATOM     31  C   UNL     1      -0.789  -4.873  -1.164  0.00  0.00    +0.046 A 
ATOM     32  C   UNL     1      -0.107  -4.172  -0.195  0.00  0.00    +0.018 A 
BRANCH  30  33
ATOM     33  O   UNL     1      -2.322  -4.904  -2.982  0.00  0.00    -0.507 OA
ATOM     34  H   UNL     1      -2.182  -5.992  -3.070  0.00  0.00    +0.292 HD
ENDBRANCH  30  33
ENDBRANCH  25  27
ENDBRANCH  24  25
ENDBRANCH   4  24
TORSDOF 9
