REMARK  Name = ZINC12532614
REMARK  12 active torsions:
REMARK  status: ('A' for Active; 'I' for Inactive)
REMARK    1  A    between atoms: C_1  and  C_2
REMARK    2  A    between atoms: N_4  and  C_5
REMARK    3  A    between atoms: C_8  and  C_11
REMARK    4  A    between atoms: C_11  and  O_13
REMARK    5  A    between atoms: O_13  and  C_14
REMARK    6  A    between atoms: C_14  and  C_15
REMARK    7  A    between atoms: C_18  and  C_28
REMARK    8  A    between atoms: C_21  and  C_23
REMARK    9  A    between atoms: C_31  and  O_36
REMARK   10  A    between atoms: C_32  and  O_34
REMARK   11  A    between atoms: O_34  and  C_35
REMARK   12  A    between atoms: O_36  and  C_37
REMARK                            x       y       z     vdW  Elec       q    Type
REMARK                         _______ _______ _______ _____ _____    ______ ____
ROOT
ATOM      1  C   UNL     1      -5.381  -2.505   1.692  0.00  0.00    +0.273 C 
ATOM      2  O   UNL     1      -4.495  -2.360   2.509  0.00  0.00    -0.270 OA
ATOM      3  N   UNL     1      -5.980  -1.427   1.149  0.00  0.00    -0.182 N 
ATOM      4  C   UNL     1      -5.658  -0.025   1.455  0.00  0.00    +0.137 C 
ATOM      5  C   UNL     1      -6.631   0.774   0.565  0.00  0.00    +0.087 C 
ATOM      6  C   UNL     1      -7.416  -0.293  -0.165  0.00  0.00    +0.075 C 
ATOM      7  N   UNL     1      -7.004  -1.459   0.205  0.00  0.00    -0.180 NA
ENDROOT
BRANCH   4   8
ATOM      8  C   UNL     1      -4.229   0.284   1.088  0.00  0.00    -0.021 A 
ATOM      9  C   UNL     1      -3.680  -0.257  -0.060  0.00  0.00    +0.009 A 
ATOM     10  C   UNL     1      -2.370   0.023  -0.400  0.00  0.00    +0.050 A 
ATOM     11  C   UNL     1      -1.604   0.848   0.409  0.00  0.00    +0.162 A 
ATOM     12  C   UNL     1      -2.156   1.387   1.567  0.00  0.00    +0.162 A 
ATOM     13  C   UNL     1      -3.471   1.107   1.900  0.00  0.00    +0.055 A 
BRANCH  12  14
ATOM     14  O   UNL     1      -1.407   2.192   2.367  0.00  0.00    -0.491 OA
ATOM     15  C   UNL     1      -2.038   2.711   3.539  0.00  0.00    +0.277 C 
ENDBRANCH  12  14
BRANCH  11  16
ATOM     16  O   UNL     1      -0.315   1.124   0.075  0.00  0.00    -0.491 OA
ATOM     17  C   UNL     1       0.186   0.530  -1.125  0.00  0.00    +0.277 C 
ENDBRANCH  11  16
ENDBRANCH   4   8
BRANCH   6  18
ATOM     18  C   UNL     1      -8.480  -0.041  -1.143  0.00  0.00    +0.035 A 
ATOM     19  C   UNL     1      -9.244  -0.950  -1.854  0.00  0.00    +0.017 A 
ATOM     20  C   UNL     1     -10.193  -0.466  -2.724  0.00  0.00    +0.008 A 
ATOM     21  C   UNL     1     -10.350   0.877  -2.857  0.00  0.00    +0.046 A 
ATOM     22  S   UNL     1      -9.132   1.517  -1.720  0.00  0.00    -0.095 S 
ENDBRANCH   6  18
BRANCH   1  23
ATOM     23  C   UNL     1      -5.811  -3.891   1.286  0.00  0.00    +0.330 C 
BRANCH  23  24
ATOM     24  O   UNL     1      -5.021  -4.874   2.006  0.00  0.00    -0.452 OA
BRANCH  24  25
ATOM     25  C   UNL     1      -5.283  -6.172   1.755  0.00  0.00    +0.340 C 
ATOM     26  O   UNL     1      -6.147  -6.474   0.957  0.00  0.00    -0.245 OA
BRANCH  25  30
ATOM     27  C   UNL     1      -3.086  -9.205   3.755  0.00  0.00    +0.033 A 
ATOM     28  C   UNL     1      -4.076  -9.553   2.841  0.00  0.00    +0.024 A 
ATOM     29  C   UNL     1      -4.790  -8.573   2.191  0.00  0.00    +0.017 A 
ATOM     30  C   UNL     1      -4.520  -7.226   2.450  0.00  0.00    +0.059 A 
ATOM     31  C   UNL     1      -3.521  -6.880   3.365  0.00  0.00    +0.017 A 
ATOM     32  C   UNL     1      -2.814  -7.866   4.015  0.00  0.00    +0.024 A 
BRANCH  27  36
ATOM     33  C   UNL     1      -1.412 -12.481   4.525  0.00  0.00    +0.109 C 
ATOM     34  C   UNL     1      -2.087 -11.360   3.780  0.00  0.00    +0.214 C 
ATOM     35  O   UNL     1      -2.381 -11.499   2.611  0.00  0.00    -0.276 OA
ATOM     36  N   UNL     1      -2.364 -10.201   4.411  0.00  0.00    -0.286 N 
ATOM     37  H   UNL     1      -2.061 -10.061   5.321  0.00  0.00    +0.155 HD
ENDBRANCH  27  36
ENDBRANCH  25  30
ENDBRANCH  24  25
ENDBRANCH  23  24
ENDBRANCH   1  23
TORSDOF 9
