REMARK  Name = ZINC12883169
REMARK  6 active torsions:
REMARK  status: ('A' for Active; 'I' for Inactive)
REMARK    1  A    between atoms: C_1  and  C_2
REMARK    2  A    between atoms: C_13  and  C_15
REMARK    3  A    between atoms: C_15  and  C_17
REMARK    4  A    between atoms: C_15  and  O_18
REMARK    5  A    between atoms: N_21  and  C_24
REMARK    6  A    between atoms: C_24  and  C_25
REMARK                            x       y       z     vdW  Elec       q    Type
REMARK                         _______ _______ _______ _____ _____    ______ ____
ROOT
ATOM      1  C   UNL     1      -4.524   4.875  -0.185  0.00  0.00    +0.044 C 
ATOM      2  C   UNL     1      -3.881   3.784   0.632  0.00  0.00    -0.050 A 
ATOM      3  C   UNL     1      -4.644   3.032   1.507  0.00  0.00    +0.005 A 
ATOM      4  C   UNL     1      -4.060   2.032   2.257  0.00  0.00    +0.024 A 
ATOM      5  C   UNL     1      -2.697   1.772   2.139  0.00  0.00    +0.036 A 
ATOM      6  C   UNL     1      -1.939   2.535   1.256  0.00  0.00    -0.027 A 
ATOM      7  C   UNL     1      -2.526   3.533   0.509  0.00  0.00    +0.008 A 
ATOM      8  C   UNL     1      -0.535   2.013   1.362  0.00  0.00    +0.050 C 
ATOM      9  C   UNL     1      -0.018   1.507   0.010  0.00  0.00    +0.088 C 
ATOM     10  C   UNL     1       1.489   1.887  -0.002  0.00  0.00    +0.075 C 
ATOM     11  C   UNL     1       1.737   2.563   1.363  0.00  0.00    -0.028 C 
ATOM     12  C   UNL     1       2.185   0.545  -0.024  0.00  0.00    +0.224 C 
ATOM     13  O   UNL     1       3.386   0.379  -0.043  0.00  0.00    -0.275 OA
ATOM     14  N   UNL     1       1.270  -0.431  -0.019  0.00  0.00    -0.237 N 
ATOM     15  C   UNL     1       0.002  -0.004   0.002  0.00  0.00    +0.225 C 
ATOM     16  O   UNL     1      -0.978  -0.718   0.013  0.00  0.00    -0.275 OA
ATOM     17  C   UNL     1      -0.605   0.904   2.376  0.00  0.00    +0.211 C 
ATOM     18  O   UNL     1       0.315   0.212   2.757  0.00  0.00    -0.277 OA
ATOM     19  N   UNL     1      -1.889   0.828   2.777  0.00  0.00    -0.286 N 
ATOM     20  H   UNL     1      -2.214   0.193   3.434  0.00  0.00    +0.155 HD
ATOM     21  N   UNL     1       0.412   3.038   1.768  0.00  0.00    +0.396 N 
ATOM     22  H   UNL     1       0.378   3.169   2.786  0.00  0.00    -0.083 HD
ATOM     23  H   UNL     1       0.195   3.926   1.301  0.00  0.00    -0.083 HD
ENDROOT
BRANCH  11  24
ATOM     24  C   UNL     1       2.723   3.723   1.212  0.00  0.00    +0.098 C 
ATOM     25  C   UNL     1       2.954   4.378   2.575  0.00  0.00    +0.036 C 
BRANCH  24  26
ATOM     26  O   UNL     1       2.188   4.688   0.304  0.00  0.00    -0.394 OA
ATOM     27  H   UNL     1       2.761   5.453   0.160  0.00  0.00    +0.210 HD
ENDBRANCH  24  26
ENDBRANCH  11  24
BRANCH  14  28
ATOM     28  C   UNL     1       1.627  -1.852  -0.035  0.00  0.00    +0.151 C 
BRANCH  28  29
ATOM     29  C   UNL     1       1.729  -2.328  -1.461  0.00  0.00    -0.026 A 
ATOM     30  C   UNL     1       2.938  -2.254  -2.128  0.00  0.00    +0.009 A 
ATOM     31  C   UNL     1       3.037  -2.690  -3.436  0.00  0.00    +0.050 A 
ATOM     32  C   UNL     1       1.923  -3.203  -4.082  0.00  0.00    +0.166 A 
ATOM     33  C   UNL     1       0.706  -3.277  -3.411  0.00  0.00    +0.167 A 
ATOM     34  C   UNL     1       0.615  -2.844  -2.098  0.00  0.00    +0.054 A 
ATOM     35  O   UNL     1      -0.225  -3.812  -4.253  0.00  0.00    -0.453 OA
ATOM     36  C   UNL     1       0.333  -3.685  -5.574  0.00  0.00    +0.466 C 
ATOM     37  O   UNL     1       1.755  -3.691  -5.346  0.00  0.00    -0.453 OA
ENDBRANCH  28  29
ENDBRANCH  14  28
TORSDOF 4
