REMARK  Name = ZINC09377053
REMARK  13 active torsions:
REMARK  status: ('A' for Active; 'I' for Inactive)
REMARK    1  A    between atoms: C_1  and  C_2
REMARK    2  A    between atoms: C_2  and  O_3
REMARK    3  A    between atoms: O_3  and  C_4
REMARK    4  A    between atoms: C_4  and  C_6
REMARK    5  A    between atoms: C_7  and  C_33
REMARK    6  A    between atoms: C_8  and  C_22
REMARK    7  A    between atoms: C_10  and  N_11
REMARK    8  A    between atoms: C_12  and  C_14
REMARK    9  A    between atoms: C_14  and  N_64
REMARK   10  A    between atoms: C_18  and  C_21
REMARK   11  A    between atoms: N_24  and  C_25
REMARK   12  A    between atoms: C_28  and  C_32
REMARK   13  A    between atoms: C_30  and  C_31
REMARK                            x       y       z     vdW  Elec       q    Type
REMARK                         _______ _______ _______ _____ _____    ______ ____
ROOT
ATOM      1  C   UNL     1       3.643   1.753  -0.059  0.00  0.00    +0.091 A 
ATOM      2  C   UNL     1       4.705   0.861  -0.057  0.00  0.00    -0.015 A 
ATOM      3  C   UNL     1       4.412  -0.476  -0.057  0.00  0.00    +0.080 A 
ATOM      4  S   UNL     1       2.629  -0.487  -0.052  0.00  0.00    -0.068 S 
ATOM      5  C   UNL     1       2.348   1.224  -0.050  0.00  0.00    +0.087 A 
ATOM      6  C   UNL     1       6.131   1.347  -0.060  0.00  0.00    +0.046 C 
ENDROOT
BRANCH   5   7
ATOM      7  N   UNL     1       1.142   1.898  -0.046  0.00  0.00    -0.281 N 
ATOM      8  C   UNL     1      -0.015   1.208  -0.043  0.00  0.00    +0.201 C 
ATOM      9  O   UNL     1       0.001  -0.005  -0.043  0.00  0.00    -0.278 OA
ATOM     10  H   UNL     1       1.129   2.868  -0.045  0.00  0.00    +0.155 HD
BRANCH   8  11
ATOM     11  C   UNL     1      -1.331   1.943  -0.045  0.00  0.00    +0.019 C 
BRANCH  11  18
ATOM     12  C   UNL     1      -2.464   0.206   1.206  0.00  0.00    -0.050 C 
ATOM     13  C   UNL     1      -3.588  -0.831   1.137  0.00  0.00    +0.141 C 
ATOM     14  O   UNL     1      -4.828  -0.166   0.880  0.00  0.00    -0.380 OA
ATOM     15  C   UNL     1      -4.834   0.590  -0.334  0.00  0.00    +0.099 C 
ATOM     16  C   UNL     1      -3.723   1.642  -0.280  0.00  0.00    -0.046 C 
ATOM     17  C   UNL     1      -6.188   1.286  -0.496  0.00  0.00    +0.036 C 
ATOM     18  N   UNL     1      -2.431   0.955  -0.067  0.00  0.00    +0.389 N 
ATOM     19  H   UNL     1      -2.272   0.296  -0.839  0.00  0.00    -0.081 HD
ENDBRANCH  11  18
ENDBRANCH   8  11
ENDBRANCH   5   7
BRANCH   3  20
ATOM     20  C   UNL     1       5.333  -1.613  -0.062  0.00  0.00    +0.255 C 
ATOM     21  O   UNL     1       6.535  -1.423  -0.065  0.00  0.00    -0.269 OA
ATOM     22  N   UNL     1       4.850  -2.872  -0.062  0.00  0.00    -0.281 N 
ATOM     23  H   UNL     1       3.896  -3.025   0.022  0.00  0.00    +0.155 HD
BRANCH  22  24
ATOM     24  C   UNL     1       5.724  -3.956  -0.182  0.00  0.00    +0.037 A 
ATOM     25  C   UNL     1       6.958  -3.791  -0.799  0.00  0.00    +0.024 A 
ATOM     26  C   UNL     1       7.819  -4.864  -0.916  0.00  0.00    +0.005 A 
ATOM     27  C   UNL     1       7.455  -6.102  -0.420  0.00  0.00    -0.050 A 
ATOM     28  C   UNL     1       6.228  -6.270   0.195  0.00  0.00    +0.008 A 
ATOM     29  C   UNL     1       5.364  -5.200   0.320  0.00  0.00    -0.029 A 
ATOM     30  C   UNL     1       4.029  -5.383   0.995  0.00  0.00    +0.045 C 
ATOM     31  C   UNL     1       8.398  -7.271  -0.549  0.00  0.00    +0.044 C 
ENDBRANCH  22  24
ENDBRANCH   3  20
BRANCH   1  32
ATOM     32  C   UNL     1       3.869   3.203  -0.066  0.00  0.00    +0.342 C 
ATOM     33  O   UNL     1       3.970   3.808   0.984  0.00  0.00    -0.245 OA
BRANCH  32  34
ATOM     34  O   UNL     1       3.967   3.864  -1.237  0.00  0.00    -0.461 OA
BRANCH  34  36
ATOM     35  C   UNL     1       4.273   5.869  -2.585  0.00  0.00    +0.048 C 
ATOM     36  C   UNL     1       4.191   5.297  -1.169  0.00  0.00    +0.229 C 
ENDBRANCH  34  36
ENDBRANCH  32  34
ENDBRANCH   1  32
TORSDOF 8
