REMARK  Name = ZINC38597735
REMARK  6 active torsions:
REMARK  status: ('A' for Active; 'I' for Inactive)
REMARK    1  A    between atoms: C_7  and  C_15
REMARK    2  A    between atoms: N_17  and  C_18
REMARK    3  A    between atoms: C_18  and  C_19
REMARK    4  A    between atoms: C_19  and  C_21
REMARK    5  A    between atoms: C_19  and  N_26
REMARK    6  A    between atoms: N_29  and  C_32
REMARK                            x       y       z     vdW  Elec       q    Type
REMARK                         _______ _______ _______ _____ _____    ______ ____
ROOT
ATOM      1  C   UNL     1       0.668  -5.845   3.057  0.00  0.00    +0.017 C 
ENDROOT
BRANCH   1   2
ATOM      2  N   UNL     1      -0.156  -6.639   2.136  0.00  0.00    +0.389 N 
ATOM      3  C   UNL     1      -1.574  -6.449   2.463  0.00  0.00    -0.059 C 
ATOM      4  C   UNL     1      -2.438  -7.184   1.433  0.00  0.00    +0.086 C 
ATOM      5  N   UNL     1      -2.010  -8.591   1.385  0.00  0.00    -0.333 N 
ATOM      6  C   UNL     1      -0.575  -8.873   1.223  0.00  0.00    +0.086 C 
ATOM      7  C   UNL     1       0.201  -8.058   2.263  0.00  0.00    -0.059 C 
ATOM      8  H   UNL     1       0.012  -6.335   1.189  0.00  0.00    -0.081 HD
BRANCH   5   9
ATOM      9  C   UNL     1      -2.940  -9.629   1.489  0.00  0.00    +0.030 A 
ATOM     10  C   UNL     1      -4.299  -9.345   1.518  0.00  0.00    +0.026 A 
ATOM     11  C   UNL     1      -5.216 -10.373   1.621  0.00  0.00    +0.040 A 
ATOM     12  C   UNL     1      -4.782 -11.686   1.694  0.00  0.00    +0.124 A 
ATOM     13  C   UNL     1      -3.427 -11.971   1.665  0.00  0.00    +0.040 A 
ATOM     14  C   UNL     1      -2.506 -10.947   1.557  0.00  0.00    +0.026 A 
ATOM     15  F   UNL     1      -5.680 -12.689   1.794  0.00  0.00    -0.205 F 
ENDBRANCH   5   9
ENDBRANCH   1   2
BRANCH   1  16
ATOM     16  C   UNL     1       0.493  -6.363   4.462  0.00  0.00    +0.093 A 
ATOM     17  C   UNL     1       1.485  -6.660   5.321  0.00  0.00    +0.043 A 
ATOM     18  C   UNL     1       0.873  -7.108   6.514  0.00  0.00    +0.041 A 
ATOM     19  C   UNL     1      -0.456  -7.058   6.313  0.00  0.00    +0.195 A 
ATOM     20  O   UNL     1      -0.681  -6.601   5.070  0.00  0.00    -0.469 OA
ENDBRANCH   1  16
BRANCH   1  21
ATOM     21  C   UNL     1       0.234  -4.380   2.996  0.00  0.00    +0.096 C 
BRANCH  21  24
ATOM     22  C   UNL     1      -0.102  -2.662   1.301  0.00  0.00    +0.225 C 
ATOM     23  O   UNL     1      -0.576  -1.948   2.159  0.00  0.00    -0.275 OA
ATOM     24  N   UNL     1       0.333  -3.898   1.616  0.00  0.00    -0.316 N 
ATOM     25  H   UNL     1       0.713  -4.469   0.930  0.00  0.00    +0.149 HD
BRANCH  22  32
ATOM     26  C   UNL     1      -2.448   0.695  -0.266  0.00  0.00    +0.001 A 
ATOM     27  C   UNL     1      -1.605   1.789  -0.335  0.00  0.00    +0.004 A 
ATOM     28  C   UNL     1      -0.237   1.607  -0.337  0.00  0.00    +0.046 A 
ATOM     29  C   UNL     1       0.296   0.325  -0.267  0.00  0.00    +0.133 A 
ATOM     30  C   UNL     1      -0.551  -0.769  -0.197  0.00  0.00    +0.011 A 
ATOM     31  C   UNL     1      -1.922  -0.580  -0.198  0.00  0.00    +0.008 A 
ATOM     32  C   UNL     1       0.001  -2.167  -0.119  0.00  0.00    +0.142 C 
ATOM     33  C   UNL     1       1.442  -2.193  -0.550  0.00  0.00    +0.011 A 
ATOM     34  C   UNL     1       2.024  -3.400  -0.895  0.00  0.00    +0.008 A 
ATOM     35  C   UNL     1       3.347  -3.445  -1.293  0.00  0.00    +0.001 A 
ATOM     36  C   UNL     1       4.093  -2.283  -1.347  0.00  0.00    +0.004 A 
ATOM     37  C   UNL     1       3.518  -1.076  -1.005  0.00  0.00    +0.046 A 
ATOM     38  C   UNL     1       2.187  -1.026  -0.604  0.00  0.00    +0.133 A 
ATOM     39  O   UNL     1       1.641   0.167  -0.269  0.00  0.00    -0.455 OA
ENDBRANCH  22  32
ENDBRANCH  21  24
ENDBRANCH   1  21
TORSDOF 6
