REMARK  Name = ZINC11133808
REMARK  6 active torsions:
REMARK  status: ('A' for Active; 'I' for Inactive)
REMARK    1  A    between atoms: C_4  and  N_11
REMARK    2  A    between atoms: C_5  and  C_7
REMARK    3  A    between atoms: C_20  and  S_21
REMARK    4  A    between atoms: S_21  and  C_22
REMARK    5  A    between atoms: C_22  and  C_23
REMARK    6  A    between atoms: C_23  and  C_24
REMARK                            x       y       z     vdW  Elec       q    Type
REMARK                         _______ _______ _______ _____ _____    ______ ____
ROOT
ATOM      1  N   UNL     1       4.403   0.074  -0.040  0.00  0.00    -0.255 N 
ATOM      2  C   UNL     1       3.688   1.223  -0.026  0.00  0.00    +0.268 A 
ATOM      3  O   UNL     1       4.224   2.318  -0.025  0.00  0.00    -0.267 OA
ATOM      4  C   UNL     1       2.263   1.074  -0.013  0.00  0.00    +0.076 A 
ATOM      5  C   UNL     1       1.278   2.143   0.001  0.00  0.00    -0.023 A 
ATOM      6  C   UNL     1      -0.022   1.771   0.012  0.00  0.00    -0.004 A 
ATOM      7  S   UNL     1       0.002  -0.004   0.002  0.00  0.00    -0.073 S 
ATOM      8  C   UNL     1       1.751  -0.243  -0.016  0.00  0.00    +0.117 A 
ATOM      9  N   UNL     1       2.508  -1.333  -0.029  0.00  0.00    -0.216 NA
ATOM     10  C   UNL     1       3.822  -1.161  -0.041  0.00  0.00    +0.177 A 
ATOM     11  C   UNL     1      -1.222   2.667   0.034  0.00  0.00    +0.043 C 
ATOM     12  C   UNL     1      -0.767   4.084   0.403  0.00  0.00    +0.005 C 
ATOM     13  C   UNL     1       0.456   4.447  -0.445  0.00  0.00    +0.005 C 
ATOM     14  C   UNL     1       1.662   3.621   0.004  0.00  0.00    +0.037 C 
ENDROOT
BRANCH   1  18
ATOM     15  C   UNL     1       8.563   0.318  -0.079  0.00  0.00    +0.001 A 
ATOM     16  C   UNL     1       7.886   0.271   1.126  0.00  0.00    +0.002 A 
ATOM     17  C   UNL     1       6.507   0.195   1.142  0.00  0.00    +0.027 A 
ATOM     18  C   UNL     1       5.801   0.155  -0.053  0.00  0.00    +0.064 A 
ATOM     19  C   UNL     1       6.484   0.203  -1.261  0.00  0.00    +0.079 A 
ATOM     20  C   UNL     1       7.863   0.284  -1.271  0.00  0.00    +0.014 A 
BRANCH  19  21
ATOM     21  C   UNL     1       5.721   0.165  -2.560  0.00  0.00    +0.419 C 
ATOM     22  F   UNL     1       6.620   0.225  -3.630  0.00  0.00    -0.166 F 
ATOM     23  F   UNL     1       4.985  -1.022  -2.635  0.00  0.00    -0.166 F 
ATOM     24  F   UNL     1       4.850   1.258  -2.621  0.00  0.00    -0.166 F 
ENDBRANCH  19  21
ENDBRANCH   1  18
BRANCH  10  25
ATOM     25  S   UNL     1       4.862  -2.583  -0.058  0.00  0.00    -0.087 S 
BRANCH  25  26
ATOM     26  C   UNL     1       3.608  -3.889  -0.053  0.00  0.00    +0.086 C 
BRANCH  26  27
ATOM     27  C   UNL     1       4.295  -5.256  -0.067  0.00  0.00    +0.107 C 
BRANCH  27  28
ATOM     28  C   UNL     1       3.251  -6.343  -0.062  0.00  0.00    +0.221 C 
ATOM     29  O   UNL     1       2.074  -6.053  -0.049  0.00  0.00    -0.275 OA
ATOM     30  N   UNL     1       3.627  -7.637  -0.073  0.00  0.00    -0.240 N 
ATOM     31  C   UNL     1       2.693  -8.609  -0.069  0.00  0.00    +0.303 C 
ATOM     32  O   UNL     1       1.513  -8.318  -0.056  0.00  0.00    -0.253 OA
ATOM     33  N   UNL     1       3.068  -9.904  -0.079  0.00  0.00    -0.313 N 
ATOM     34  H   UNL     1       4.694  -7.900  -0.085  0.00  0.00    +0.159 HD
ATOM     35  H   UNL     1       2.306 -10.697  -0.076  0.00  0.00    +0.146 HD
ATOM     36  H   UNL     1       4.136 -10.167  -0.091  0.00  0.00    +0.146 HD
ENDBRANCH  27  28
ENDBRANCH  26  27
ENDBRANCH  25  26
ENDBRANCH  10  25
TORSDOF 6
