REMARK  Name = ZINC13462886
REMARK  9 active torsions:
REMARK  status: ('A' for Active; 'I' for Inactive)
REMARK    1  A    between atoms: C_3  and  C_31
REMARK    2  A    between atoms: C_5  and  S_7
REMARK    3  A    between atoms: S_7  and  O_10
REMARK    4  A    between atoms: O_10  and  C_11
REMARK    5  A    between atoms: C_14  and  C_29
REMARK    6  A    between atoms: C_16  and  O_17
REMARK    7  A    between atoms: O_17  and  S_18
REMARK    8  A    between atoms: S_18  and  C_21
REMARK    9  A    between atoms: C_25  and  C_27
REMARK                            x       y       z     vdW  Elec       q    Type
REMARK                         _______ _______ _______ _____ _____    ______ ____
ROOT
ATOM      1  C   UNL     1      -1.377   4.236  -2.731  0.00  0.00    +0.201 A 
ATOM      2  C   UNL     1      -2.573   3.767  -3.257  0.00  0.00    +0.053 A 
ATOM      3  C   UNL     1      -3.545   4.655  -3.664  0.00  0.00    +0.019 A 
ATOM      4  C   UNL     1      -3.329   6.030  -3.544  0.00  0.00    +0.067 A 
ATOM      5  C   UNL     1      -2.126   6.502  -3.010  0.00  0.00    +0.067 A 
ATOM      6  C   UNL     1      -1.157   5.606  -2.603  0.00  0.00    +0.202 A 
ENDROOT
BRANCH   4   7
ATOM      7  C   UNL     1      -4.368   6.982  -3.980  0.00  0.00    +0.387 C 
ATOM      8  O   UNL     1      -4.179   8.178  -3.874  0.00  0.00    -0.241 OA
ATOM      9  O   UNL     1      -5.527   6.526  -4.495  0.00  0.00    -0.241 OA
ENDBRANCH   4   7
BRANCH   1  10
ATOM     10  O   UNL     1      -0.420   3.357  -2.335  0.00  0.00    -0.338 OA
BRANCH  10  11
ATOM     11  S   UNL     1      -0.592   2.856  -0.908  0.00  0.00    +0.151 S 
ATOM     12  O   UNL     1       0.583   2.123  -0.591  0.00  0.00    -0.131 OA
ATOM     13  O   UNL     1      -1.028   3.967  -0.138  0.00  0.00    -0.131 OA
BRANCH  11  18
ATOM     14  C   UNL     1      -2.724  -0.532  -1.297  0.00  0.00    +0.003 A 
ATOM     15  C   UNL     1      -3.999  -0.140  -0.941  0.00  0.00    +0.019 A 
ATOM     16  C   UNL     1      -4.240   1.184  -0.570  0.00  0.00    +0.054 A 
ATOM     17  C   UNL     1      -3.188   2.102  -0.556  0.00  0.00    +0.049 A 
ATOM     18  C   UNL     1      -1.920   1.698  -0.919  0.00  0.00    +0.129 A 
ATOM     19  C   UNL     1      -1.688   0.384  -1.286  0.00  0.00    +0.030 A 
BRANCH  16  20
ATOM     20  C   UNL     1      -5.560   1.598  -0.199  0.00  0.00    +0.099 C 
ATOM     21  N   UNL     1      -6.607   1.926   0.095  0.00  0.00    -0.191 NA
ENDBRANCH  16  20
ENDBRANCH  11  18
ENDBRANCH  10  11
ENDBRANCH   1  10
BRANCH   6  22
ATOM     22  O   UNL     1       0.015   6.062  -2.084  0.00  0.00    -0.338 OA
BRANCH  22  23
ATOM     23  S   UNL     1       1.096   6.315  -3.124  0.00  0.00    +0.151 S 
ATOM     24  O   UNL     1       1.000   5.263  -4.074  0.00  0.00    -0.131 OA
ATOM     25  O   UNL     1       2.293   6.588  -2.407  0.00  0.00    -0.131 OA
BRANCH  23  26
ATOM     26  C   UNL     1       0.667   7.800  -3.970  0.00  0.00    +0.129 A 
ATOM     27  C   UNL     1       1.020   9.026  -3.435  0.00  0.00    +0.030 A 
ATOM     28  C   UNL     1       0.688  10.197  -4.094  0.00  0.00    +0.003 A 
ATOM     29  C   UNL     1       0.001  10.149  -5.289  0.00  0.00    +0.019 A 
ATOM     30  C   UNL     1      -0.363   8.915  -5.832  0.00  0.00    +0.054 A 
ATOM     31  C   UNL     1      -0.019   7.737  -5.165  0.00  0.00    +0.049 A 
BRANCH  30  32
ATOM     32  C   UNL     1      -1.081   8.857  -7.069  0.00  0.00    +0.099 C 
ATOM     33  N   UNL     1      -1.651   8.812  -8.051  0.00  0.00    -0.191 NA
ENDBRANCH  30  32
ENDBRANCH  23  26
ENDBRANCH  22  23
ENDBRANCH   6  22
TORSDOF 9
