REMARK  Name = ZINC63836075
REMARK  9 active torsions:
REMARK  status: ('A' for Active; 'I' for Inactive)
REMARK    1  A    between atoms: C_1  and  O_2
REMARK    2  A    between atoms: O_2  and  C_3
REMARK    3  A    between atoms: C_6  and  C_9
REMARK    4  A    between atoms: C_9  and  C_11
REMARK    5  A    between atoms: C_9  and  C_29
REMARK    6  A    between atoms: C_11  and  N_12
REMARK    7  A    between atoms: C_13  and  C_15
REMARK    8  A    between atoms: C_15  and  N_16
REMARK    9  A    between atoms: C_22  and  C_24
REMARK                            x       y       z     vdW  Elec       q    Type
REMARK                         _______ _______ _______ _____ _____    ______ ____
ROOT
ATOM      1  C   UNL     1       2.830  -1.389   5.285  0.00  0.00    +0.064 C 
ENDROOT
BRANCH   1   2
ATOM      2  C   UNL     1       4.159  -1.986   4.901  0.00  0.00    -0.033 C 
ATOM      3  C   UNL     1       5.368  -1.685   5.427  0.00  0.00    -0.000 A 
ATOM      4  C   UNL     1       5.792  -0.747   6.474  0.00  0.00    +0.010 A 
ATOM      5  C   UNL     1       7.104  -0.665   6.790  0.00  0.00    +0.001 A 
ATOM      6  C   UNL     1       8.068  -1.452   6.144  0.00  0.00    +0.002 A 
ATOM      7  C   UNL     1       7.756  -2.336   5.173  0.00  0.00    +0.026 A 
ATOM      8  C   UNL     1       6.405  -2.504   4.761  0.00  0.00    +0.043 A 
ATOM      9  N   UNL     1       5.859  -3.282   3.858  0.00  0.00    -0.380 N 
ATOM     10  C   UNL     1       4.411  -3.047   3.854  0.00  0.00    +0.145 C 
ATOM     11  H   UNL     1       6.332  -3.910   3.290  0.00  0.00    +0.160 HD
ENDBRANCH   1   2
BRANCH   1  15
ATOM     12  C   UNL     1       1.073   0.490   1.873  0.00  0.00    +0.120 A 
ATOM     13  C   UNL     1       1.357   1.236   3.007  0.00  0.00    +0.046 A 
ATOM     14  C   UNL     1       1.924   0.626   4.109  0.00  0.00    +0.008 A 
ATOM     15  C   UNL     1       2.210  -0.726   4.082  0.00  0.00    -0.038 A 
ATOM     16  C   UNL     1       1.929  -1.472   2.952  0.00  0.00    +0.008 A 
ATOM     17  C   UNL     1       1.355  -0.868   1.850  0.00  0.00    +0.046 A 
BRANCH  12  19
ATOM     18  C   UNL     1       0.251   2.489   0.882  0.00  0.00    +0.277 C 
ATOM     19  O   UNL     1       0.514   1.087   0.788  0.00  0.00    -0.495 OA
ENDBRANCH  12  19
ENDBRANCH   1  15
BRANCH   1  20
ATOM     20  C   UNL     1       1.902  -2.494   5.793  0.00  0.00    +0.116 C 
BRANCH  20  21
ATOM     21  N   UNL     1       2.446  -3.058   7.031  0.00  0.00    -0.313 N 
ATOM     22  C   UNL     1       1.792  -4.053   7.663  0.00  0.00    +0.227 C 
ATOM     23  O   UNL     1       0.754  -4.482   7.206  0.00  0.00    -0.274 OA
ATOM     24  H   UNL     1       3.277  -2.715   7.396  0.00  0.00    +0.149 HD
BRANCH  22  25
ATOM     25  C   UNL     1       2.352  -4.633   8.936  0.00  0.00    +0.180 C 
BRANCH  25  26
ATOM     26  N   UNL     1       1.461  -5.695   9.424  0.00  0.00    -0.291 NA
ATOM     27  C   UNL     1       0.159  -5.146   9.824  0.00  0.00    +0.104 C 
ATOM     28  C   UNL     1      -0.797  -6.298  10.152  0.00  0.00    +0.123 C 
ATOM     29  N   UNL     1      -0.156  -7.167  11.150  0.00  0.00    -0.293 N 
ATOM     30  C   UNL     1       1.208  -7.646  10.881  0.00  0.00    +0.123 C 
ATOM     31  C   UNL     1       2.086  -6.442  10.524  0.00  0.00    +0.104 C 
ATOM     32  C   UNL     1      -0.801  -7.517  12.281  0.00  0.00    +0.282 C 
ATOM     33  O   UNL     1      -1.877  -7.015  12.547  0.00  0.00    -0.267 OA
BRANCH  32  34
ATOM     34  C   UNL     1      -0.206  -8.501  13.190  0.00  0.00    +0.189 A 
ATOM     35  C   UNL     1      -0.676  -8.838  14.427  0.00  0.00    +0.054 A 
ATOM     36  C   UNL     1       0.194  -9.813  14.938  0.00  0.00    +0.042 A 
ATOM     37  C   UNL     1       1.145 -10.026  14.003  0.00  0.00    +0.196 A 
ATOM     38  O   UNL     1       0.898  -9.238  12.949  0.00  0.00    -0.458 OA
ENDBRANCH  32  34
ENDBRANCH  25  26
ENDBRANCH  22  25
ENDBRANCH  20  21
ENDBRANCH   1  20
TORSDOF 8
