REMARK  Name = ZINC28070022
REMARK  6 active torsions:
REMARK  status: ('A' for Active; 'I' for Inactive)
REMARK    1  A    between atoms: C_2  and  C_3
REMARK    2  A    between atoms: C_3  and  N_4
REMARK    3  A    between atoms: C_14  and  S_15
REMARK    4  A    between atoms: S_15  and  C_16
REMARK    5  A    between atoms: C_16  and  C_17
REMARK    6  A    between atoms: N_22  and  C_23
REMARK                            x       y       z     vdW  Elec       q    Type
REMARK                         _______ _______ _______ _____ _____    ______ ____
ROOT
ATOM      1  C   UNL     1      -0.489  -5.796  -1.798  0.00  0.00    +0.231 C 
ATOM      2  O   UNL     1      -0.427  -5.145  -2.819  0.00  0.00    -0.274 OA
ATOM      3  N   UNL     1      -1.066  -7.014  -1.810  0.00  0.00    -0.239 N 
ATOM      4  C   UNL     1      -1.573  -7.508  -2.957  0.00  0.00    +0.310 C 
ATOM      5  O   UNL     1      -1.510  -6.856  -3.980  0.00  0.00    -0.252 OA
ATOM      6  N   UNL     1      -2.150  -8.726  -2.969  0.00  0.00    -0.269 N 
ATOM      7  H   UNL     1      -1.116  -7.535  -0.993  0.00  0.00    +0.159 HD
ATOM      8  H   UNL     1      -2.132  -9.279  -2.172  0.00  0.00    +0.156 HD
ENDROOT
BRANCH   6   9
ATOM      9  C   UNL     1      -2.776  -9.194  -4.132  0.00  0.00    +0.038 A 
ATOM     10  C   UNL     1      -2.758 -10.550  -4.431  0.00  0.00    +0.027 A 
ATOM     11  C   UNL     1      -3.374 -11.015  -5.579  0.00  0.00    +0.051 A 
ATOM     12  C   UNL     1      -4.010 -10.125  -6.428  0.00  0.00    +0.162 A 
ATOM     13  C   UNL     1      -4.029  -8.770  -6.131  0.00  0.00    +0.164 A 
ATOM     14  C   UNL     1      -3.417  -8.302  -4.981  0.00  0.00    +0.072 A 
ATOM     15  O   UNL     1      -4.660  -7.904  -6.976  0.00  0.00    -0.488 OA
ATOM     16  C   UNL     1      -4.049  -7.721  -8.255  0.00  0.00    +0.232 C 
ATOM     17  C   UNL     1      -4.489  -8.809  -9.223  0.00  0.00    +0.082 C 
ATOM     18  C   UNL     1      -4.014 -10.189  -8.797  0.00  0.00    +0.232 C 
ATOM     19  O   UNL     1      -4.622 -10.576  -7.563  0.00  0.00    -0.488 OA
ENDBRANCH   6   9
BRANCH   1  20
ATOM     20  C   UNL     1       0.078  -5.243  -0.516  0.00  0.00    +0.173 C 
BRANCH  20  21
ATOM     21  S   UNL     1       0.779  -3.599  -0.824  0.00  0.00    -0.078 S 
BRANCH  21  32
ATOM     22  N   UNL     1       1.993  -1.873   0.853  0.00  0.00    -0.283 N 
ATOM     23  C   UNL     1       2.474  -1.444   2.043  0.00  0.00    +0.263 A 
ATOM     24  O   UNL     1       3.007  -0.355   2.153  0.00  0.00    -0.267 OA
ATOM     25  C   UNL     1       2.327  -2.341   3.197  0.00  0.00    +0.065 A 
ATOM     26  C   UNL     1       2.789  -1.991   4.465  0.00  0.00    +0.015 A 
ATOM     27  C   UNL     1       2.626  -2.864   5.505  0.00  0.00    +0.001 A 
ATOM     28  C   UNL     1       2.008  -4.092   5.312  0.00  0.00    +0.002 A 
ATOM     29  C   UNL     1       1.546  -4.460   4.080  0.00  0.00    +0.028 A 
ATOM     30  C   UNL     1       1.697  -3.590   2.996  0.00  0.00    +0.079 A 
ATOM     31  N   UNL     1       1.256  -3.913   1.764  0.00  0.00    -0.223 NA
ATOM     32  C   UNL     1       1.392  -3.095   0.749  0.00  0.00    +0.173 A 
BRANCH  22  33
ATOM     33  C   UNL     1       2.112  -1.018  -0.331  0.00  0.00    +0.154 C 
BRANCH  33  35
ATOM     34  C   UNL     1       1.038   1.167  -0.513  0.00  0.00    +0.005 C 
ATOM     35  C   UNL     1       0.897  -0.133  -0.436  0.00  0.00    -0.013 C 
ENDBRANCH  33  35
ENDBRANCH  22  33
ENDBRANCH  21  32
ENDBRANCH  20  21
ENDBRANCH   1  20
TORSDOF 6
