REMARK  Name = ZINC08921145
REMARK  8 active torsions:
REMARK  status: ('A' for Active; 'I' for Inactive)
REMARK    1  A    between atoms: C_1  and  C_2
REMARK    2  A    between atoms: C_2  and  O_3
REMARK    3  A    between atoms: O_3  and  C_4
REMARK    4  A    between atoms: C_14  and  O_29
REMARK    5  A    between atoms: C_16  and  C_19
REMARK    6  A    between atoms: C_23  and  O_26
REMARK    7  A    between atoms: C_24  and  O_25
REMARK    8  A    between atoms: O_26  and  C_27
REMARK                            x       y       z     vdW  Elec       q    Type
REMARK                         _______ _______ _______ _____ _____    ______ ____
ROOT
ATOM      1  C   UNL     1       0.776  -1.798  -1.335  0.00  0.00    +0.403 C 
ATOM      2  O   UNL     1       0.312  -2.549  -0.500  0.00  0.00    -0.226 OA
ATOM      3  N   UNL     1       1.395  -2.298  -2.422  0.00  0.00    -0.262 N 
ATOM      4  C   UNL     1       1.519  -3.749  -2.628  0.00  0.00    +0.116 C 
ATOM      5  C   UNL     1       0.735  -4.159  -3.876  0.00  0.00    +0.056 C 
ATOM      6  C   UNL     1       1.082  -3.213  -5.017  0.00  0.00    -0.020 A 
ATOM      7  C   UNL     1       1.629  -1.998  -4.785  0.00  0.00    +0.013 A 
ATOM      8  S   UNL     1       1.843  -1.280  -6.390  0.00  0.00    -0.076 S 
ATOM      9  C   UNL     1       1.253  -2.517  -7.323  0.00  0.00    +0.080 A 
ATOM     10  C   UNL     1       0.866  -3.515  -6.421  0.00  0.00    +0.068 A 
ATOM     11  C   UNL     1       0.276  -4.756  -6.984  0.00  0.00    +0.220 C 
ATOM     12  N   UNL     1       0.382  -4.948  -8.271  0.00  0.00    -0.223 NA
ATOM     13  C   UNL     1       1.095  -4.061  -9.182  0.00  0.00    +0.227 C 
ATOM     14  N   UNL     1       1.117  -2.674  -8.684  0.00  0.00    -0.313 N 
ATOM     15  C   UNL     1       1.968  -1.410  -3.453  0.00  0.00    +0.153 C 
ATOM     16  H   UNL     1       1.040  -1.914  -9.282  0.00  0.00    +0.149 HD
ENDROOT
BRANCH  13  17
ATOM     17  C   UNL     1       2.512  -4.550  -9.336  0.00  0.00    +0.041 A 
ATOM     18  C   UNL     1       3.544  -3.641  -9.484  0.00  0.00    +0.026 A 
ATOM     19  C   UNL     1       4.846  -4.086  -9.625  0.00  0.00    +0.022 A 
ATOM     20  C   UNL     1       5.121  -5.442  -9.619  0.00  0.00    +0.064 A 
ATOM     21  C   UNL     1       4.091  -6.357  -9.471  0.00  0.00    +0.163 A 
ATOM     22  C   UNL     1       2.782  -5.908  -9.324  0.00  0.00    +0.165 A 
ATOM     23 BR   UNL     1       6.253  -2.839  -9.828  0.00  0.00    -0.050 Br
BRANCH  22  24
ATOM     24  O   UNL     1       1.768  -6.803  -9.172  0.00  0.00    -0.503 OA
ATOM     25  H   UNL     1       1.370  -7.090 -10.005  0.00  0.00    +0.292 HD
ENDBRANCH  22  24
BRANCH  21  26
ATOM     26  O   UNL     1       4.359  -7.690  -9.465  0.00  0.00    -0.491 OA
ATOM     27  C   UNL     1       5.727  -8.077  -9.615  0.00  0.00    +0.277 C 
ENDBRANCH  21  26
ENDBRANCH  13  17
BRANCH  11  28
ATOM     28  O   UNL     1      -0.350  -5.657  -6.191  0.00  0.00    -0.492 OA
ATOM     29  H   UNL     1      -0.695  -6.426  -6.666  0.00  0.00    +0.294 HD
ENDBRANCH  11  28
BRANCH   1  30
ATOM     30  O   UNL     1       0.671  -0.465  -1.174  0.00  0.00    -0.451 OA
BRANCH  30  32
ATOM     31  C   UNL     1      -0.019   1.526   0.010  0.00  0.00    +0.048 C 
ATOM     32  C   UNL     1       0.002  -0.004   0.002  0.00  0.00    +0.230 C 
ENDBRANCH  30  32
ENDBRANCH   1  30
TORSDOF 6
