REMARK  Name = ZINC13064659
REMARK  14 active torsions:
REMARK  status: ('A' for Active; 'I' for Inactive)
REMARK    1  A    between atoms: C_1  and  C_2
REMARK    2  A    between atoms: C_2  and  C_3
REMARK    3  A    between atoms: C_3  and  C_5
REMARK    4  A    between atoms: C_3  and  N_70
REMARK    5  A    between atoms: N_9  and  C_10
REMARK    6  A    between atoms: C_10  and  C_11
REMARK    7  A    between atoms: C_14  and  O_17
REMARK    8  A    between atoms: O_17  and  C_18
REMARK    9  A    between atoms: C_19  and  C_20
REMARK   10  A    between atoms: C_19  and  N_70
REMARK   11  A    between atoms: C_25  and  C_26
REMARK   12  A    between atoms: C_25  and  N_70
REMARK   13  A    between atoms: C_30  and  C_39
REMARK   14  A    between atoms: C_31  and  C_38
REMARK                            x       y       z     vdW  Elec       q    Type
REMARK                         _______ _______ _______ _____ _____    ______ ____
ROOT
ATOM      1  N   UNL     1      -5.682   4.299  -1.457  0.00  0.00    +0.394 N 
ATOM      2  H   UNL     1      -5.785   3.586  -2.189  0.00  0.00    -0.080 HD
ENDROOT
BRANCH   1   3
ATOM      3  C   UNL     1      -7.016   4.615  -0.904  0.00  0.00    +0.003 C 
BRANCH   3   4
ATOM      4  C   UNL     1      -6.886   5.443   0.348  0.00  0.00    +0.138 A 
ATOM      5  N   UNL     1      -6.099   5.201   1.368  0.00  0.00    -0.115 NA
ATOM      6  N   UNL     1      -6.276   6.136   2.237  0.00  0.00    -0.023 NA
ATOM      7  N   UNL     1      -7.154   6.968   1.798  0.00  0.00    -0.044 NA
ATOM      8  N   UNL     1      -7.551   6.578   0.633  0.00  0.00    -0.226 N 
BRANCH   8   9
ATOM      9  C   UNL     1      -8.541   7.244  -0.217  0.00  0.00    +0.182 C 
BRANCH   9  10
ATOM     10  C   UNL     1      -9.926   6.824   0.202  0.00  0.00    -0.026 A 
ATOM     11  C   UNL     1     -10.518   5.719  -0.380  0.00  0.00    +0.009 A 
ATOM     12  C   UNL     1     -11.786   5.328   0.006  0.00  0.00    +0.046 A 
ATOM     13  C   UNL     1     -12.469   6.053   0.971  0.00  0.00    +0.120 A 
ATOM     14  C   UNL     1     -11.876   7.165   1.550  0.00  0.00    +0.046 A 
ATOM     15  C   UNL     1     -10.605   7.548   1.164  0.00  0.00    +0.009 A 
BRANCH  13  16
ATOM     16  O   UNL     1     -13.718   5.674   1.349  0.00  0.00    -0.495 OA
ATOM     17  C   UNL     1     -14.267   4.519   0.711  0.00  0.00    +0.277 C 
ENDBRANCH  13  16
ENDBRANCH   9  10
ENDBRANCH   8   9
ENDBRANCH   3   4
BRANCH   3  19
ATOM     18  C   UNL     1      -7.943   2.502  -1.862  0.00  0.00    +0.002 C 
ATOM     19  C   UNL     1      -7.736   3.305  -0.577  0.00  0.00    -0.011 C 
ENDBRANCH   3  19
ENDBRANCH   1   3
BRANCH   1  20
ATOM     20  C   UNL     1      -5.082   5.513  -2.050  0.00  0.00    -0.002 C 
BRANCH  20  21
ATOM     21  C   UNL     1      -5.772   5.804  -3.358  0.00  0.00    +0.089 A 
ATOM     22  C   UNL     1      -6.791   6.664  -3.535  0.00  0.00    +0.042 A 
ATOM     23  C   UNL     1      -7.126   6.626  -4.908  0.00  0.00    +0.041 A 
ATOM     24  C   UNL     1      -6.292   5.744  -5.488  0.00  0.00    +0.195 A 
ATOM     25  O   UNL     1      -5.470   5.254  -4.545  0.00  0.00    -0.470 OA
ENDBRANCH  20  21
ENDBRANCH   1  20
BRANCH   1  26
ATOM     26  C   UNL     1      -4.806   3.771  -0.391  0.00  0.00    -0.036 C 
BRANCH  26  27
ATOM     27  C   UNL     1      -3.611   3.111  -1.030  0.00  0.00    +0.001 A 
ATOM     28  C   UNL     1      -2.452   3.800  -1.169  0.00  0.00    +0.017 A 
ATOM     29  C   UNL     1      -1.311   3.132  -1.798  0.00  0.00    -0.001 A 
ATOM     30  C   UNL     1      -0.095   3.797  -1.984  0.00  0.00    +0.013 A 
ATOM     31  C   UNL     1       0.950   3.146  -2.575  0.00  0.00    -0.047 A 
ATOM     32  C   UNL     1       0.816   1.828  -2.992  0.00  0.00    -0.046 A 
ATOM     33  C   UNL     1      -0.373   1.153  -2.819  0.00  0.00    +0.030 A 
ATOM     34  C   UNL     1      -1.453   1.798  -2.225  0.00  0.00    +0.049 A 
ATOM     35  N   UNL     1      -2.655   1.149  -2.044  0.00  0.00    -0.322 N 
ATOM     36  H   UNL     1      -2.750   0.228  -2.335  0.00  0.00    +0.169 HD
ATOM     37  C   UNL     1      -3.699   1.773  -1.470  0.00  0.00    +0.251 A 
ATOM     38  O   UNL     1      -4.747   1.168  -1.327  0.00  0.00    -0.268 OA
ATOM     39  C   UNL     1       1.983   1.129  -3.642  0.00  0.00    +0.044 C 
ATOM     40  C   UNL     1       2.260   3.863  -2.775  0.00  0.00    +0.044 C 
ENDBRANCH  26  27
ENDBRANCH   1  26
TORSDOF 10
