REMARK  Name = ZINC04079243
REMARK  4 active torsions:
REMARK  status: ('A' for Active; 'I' for Inactive)
REMARK    1  A    between atoms: C_6  and  N_7
REMARK    2  A    between atoms: C_11  and  C_13
REMARK    3  A    between atoms: N_15  and  C_16
REMARK    4  A    between atoms: C_17  and  C_25
REMARK                            x       y       z     vdW  Elec       q    Type
REMARK                         _______ _______ _______ _____ _____    ______ ____
ROOT
ATOM      1  C   UNL     1      -1.135  -0.935   0.008  0.00  0.00    +0.255 C 
ATOM      2  O   UNL     1      -0.938  -2.136   0.000  0.00  0.00    -0.269 OA
ATOM      3  N   UNL     1      -2.396  -0.459   0.022  0.00  0.00    -0.275 N 
ATOM      4  H   UNL     1      -2.553   0.498   0.028  0.00  0.00    +0.156 HD
ENDROOT
BRANCH   1  12
ATOM      5  C   UNL     1       3.899   3.050  -0.020  0.00  0.00    +0.034 A 
ATOM      6  C   UNL     1       2.526   3.187  -0.006  0.00  0.00    +0.018 A 
ATOM      7  C   UNL     1       1.730   2.061  -0.003  0.00  0.00    +0.020 A 
ATOM      8  C   UNL     1       2.274   0.754  -0.016  0.00  0.00    -0.008 A 
ATOM      9  C   UNL     1       3.689   0.660  -0.030  0.00  0.00    +0.041 A 
ATOM     10  C   UNL     1       4.460   1.778  -0.032  0.00  0.00    +0.127 A 
ATOM     11  C   UNL     1       1.331  -0.290  -0.012  0.00  0.00    +0.029 A 
ATOM     12  C   UNL     1       0.002  -0.004   0.002  0.00  0.00    +0.075 A 
ATOM     13  S   UNL     1      -0.022   1.780   0.012  0.00  0.00    -0.084 S 
BRANCH  10  14
ATOM     14  N   UNL     1       5.933   1.639  -0.048  0.00  0.00    +0.056 N 
ATOM     15  O   UNL     1       6.639   2.632  -0.050  0.00  0.00    -0.126 OA
ATOM     16  O   UNL     1       6.441   0.532  -0.059  0.00  0.00    -0.126 OA
ENDBRANCH  10  14
ENDBRANCH   1  12
BRANCH   3  17
ATOM     17  C   UNL     1      -3.468  -1.338   0.028  0.00  0.00    +0.090 A 
ATOM     18  C   UNL     1      -4.824  -1.043   0.042  0.00  0.00    +0.084 A 
ATOM     19  C   UNL     1      -5.754  -2.159   0.044  0.00  0.00    -0.018 A 
ATOM     20  C   UNL     1      -5.183  -3.384   0.033  0.00  0.00    -0.004 A 
ATOM     21  S   UNL     1      -3.441  -3.070   0.011  0.00  0.00    -0.077 S 
ATOM     22  C   UNL     1      -5.884  -4.707   0.034  0.00  0.00    +0.043 C 
ATOM     23  C   UNL     1      -7.351  -4.477   0.427  0.00  0.00    +0.005 C 
ATOM     24  C   UNL     1      -7.906  -3.313  -0.399  0.00  0.00    +0.005 C 
ATOM     25  C   UNL     1      -7.269  -2.000   0.059  0.00  0.00    +0.037 C 
BRANCH  18  26
ATOM     26  C   UNL     1      -5.289   0.311   0.052  0.00  0.00    +0.102 C 
ATOM     27  N   UNL     1      -5.658   1.385   0.061  0.00  0.00    -0.191 NA
ENDBRANCH  18  26
ENDBRANCH   3  17
TORSDOF 4
