REMARK  Name = ZINC50936828
REMARK  9 active torsions:
REMARK  status: ('A' for Active; 'I' for Inactive)
REMARK    1  A    between atoms: C_1  and  C_2
REMARK    2  A    between atoms: C_7  and  O_8
REMARK    3  A    between atoms: O_8  and  C_9
REMARK    4  A    between atoms: C_9  and  C_10
REMARK    5  A    between atoms: C_10  and  N_11
REMARK    6  A    between atoms: C_13  and  C_20
REMARK    7  A    between atoms: C_30  and  C_32
REMARK    8  A    between atoms: C_32  and  C_33
REMARK    9  A    between atoms: C_32  and  C_34
REMARK                            x       y       z     vdW  Elec       q    Type
REMARK                         _______ _______ _______ _____ _____    ______ ____
ROOT
ATOM      1  N   UNL     1      -0.021  -0.459   6.087  0.00  0.00    -0.343 N 
ATOM      2  C   UNL     1      -1.091  -0.875   6.792  0.00  0.00    +0.095 A 
ATOM      3  C   UNL     1      -0.675  -1.698   7.821  0.00  0.00    +0.001 A 
ATOM      4  C   UNL     1       0.795  -1.779   7.713  0.00  0.00    +0.007 A 
ATOM      5  C   UNL     1       1.143  -0.988   6.607  0.00  0.00    +0.050 A 
ATOM      6  C   UNL     1       2.482  -0.872   6.247  0.00  0.00    +0.026 A 
ATOM      7  C   UNL     1       3.449  -1.533   6.973  0.00  0.00    +0.002 A 
ATOM      8  C   UNL     1       3.103  -2.317   8.063  0.00  0.00    +0.001 A 
ATOM      9  C   UNL     1       1.782  -2.438   8.440  0.00  0.00    +0.010 A 
ENDROOT
BRANCH   3  10
ATOM     10  C   UNL     1      -1.493  -2.335   8.782  0.00  0.00    +0.026 C 
ATOM     11  C   UNL     1      -2.807  -2.640   8.479  0.00  0.00    +0.079 C 
ATOM     12  C   UNL     1      -3.347  -2.497   7.099  0.00  0.00    +0.132 C 
ATOM     13  N   UNL     1      -2.630  -2.696   6.023  0.00  0.00    -0.385 N 
ATOM     14  N   UNL     1      -4.707  -2.124   7.066  0.00  0.00    -0.154 N 
ATOM     15  C   UNL     1      -5.474  -2.414   8.174  0.00  0.00    +0.181 C 
ATOM     16  N   UNL     1      -5.070  -2.916   9.313  0.00  0.00    -0.152 NA
ATOM     17  C   UNL     1      -3.751  -3.134   9.508  0.00  0.00    +0.273 C 
ATOM     18  O   UNL     1      -3.347  -3.715  10.503  0.00  0.00    -0.268 OA
ATOM     19  S   UNL     1      -7.091  -1.911   7.650  0.00  0.00    -0.038 S 
ATOM     20  C   UNL     1      -6.627  -1.264   6.049  0.00  0.00    +0.102 C 
ATOM     21  N   UNL     1      -5.348  -1.504   6.014  0.00  0.00    -0.169 NA
ATOM     22  H   UNL     1      -1.724  -3.036   6.100  0.00  0.00    +0.157 HD
ATOM     23  H   UNL     1      -3.004  -2.505   5.149  0.00  0.00    +0.157 HD
BRANCH  20  24
ATOM     24  C   UNL     1      -7.495  -0.608   5.006  0.00  0.00    +0.040 C 
ATOM     25  C   UNL     1      -7.632   0.883   5.321  0.00  0.00    +0.014 C 
ATOM     26  C   UNL     1      -6.856  -0.782   3.627  0.00  0.00    +0.014 C 
ENDBRANCH  20  24
ENDBRANCH   3  10
BRANCH   1  27
ATOM     27  C   UNL     1      -0.085   0.428   4.922  0.00  0.00    +0.163 C 
BRANCH  27  28
ATOM     28  C   UNL     1      -0.115  -0.411   3.643  0.00  0.00    +0.250 C 
BRANCH  28  29
ATOM     29  O   UNL     1      -0.177   0.454   2.508  0.00  0.00    -0.490 OA
BRANCH  29  36
ATOM     30  C   UNL     1      -0.300   2.147   0.250  0.00  0.00    +0.047 C 
ATOM     31  C   UNL     1      -0.271   0.644   0.138  0.00  0.00    -0.007 A 
ATOM     32  C   UNL     1      -0.299   0.043  -1.105  0.00  0.00    +0.027 A 
ATOM     33  C   UNL     1      -0.272  -1.336  -1.208  0.00  0.00    +0.041 A 
ATOM     34  C   UNL     1      -0.217  -2.116  -0.067  0.00  0.00    +0.023 A 
ATOM     35  C   UNL     1      -0.189  -1.519   1.178  0.00  0.00    +0.047 A 
ATOM     36  C   UNL     1      -0.210  -0.136   1.284  0.00  0.00    +0.124 A 
ATOM     37 CL   UNL     1      -0.308  -2.090  -2.772  0.00  0.00    -0.084 Cl
ENDBRANCH  29  36
ENDBRANCH  28  29
ENDBRANCH  27  28
ENDBRANCH   1  27
TORSDOF 6
