REMARK  Name = ZINC11789622
REMARK  10 active torsions:
REMARK  status: ('A' for Active; 'I' for Inactive)
REMARK    1  A    between atoms: C_1  and  N_2
REMARK    2  A    between atoms: C_6  and  S_7
REMARK    3  A    between atoms: S_7  and  C_8
REMARK    4  A    between atoms: C_11  and  C_22
REMARK    5  A    between atoms: C_14  and  C_15
REMARK    6  A    between atoms: C_14  and  N_62
REMARK    7  A    between atoms: C_20  and  O_21
REMARK    8  A    between atoms: N_24  and  C_25
REMARK    9  A    between atoms: N_24  and  C_26
REMARK   10  A    between atoms: C_26  and  C_27
REMARK                            x       y       z     vdW  Elec       q    Type
REMARK                         _______ _______ _______ _____ _____    ______ ____
ROOT
ATOM      1  C   UNL     1      -0.086   0.197   0.188  0.00  0.00    +0.037 C 
ATOM      2  C   UNL     1      -1.499  -0.420   0.084  0.00  0.00    +0.006 C 
ATOM      3  C   UNL     1      -1.442  -1.702   0.935  0.00  0.00    +0.021 C 
ATOM      4  C   UNL     1       0.475  -0.427   1.491  0.00  0.00    -0.063 C 
ATOM      5  N   UNL     1      -0.067  -1.792   1.441  0.00  0.00    +0.391 N 
ATOM      6  H   UNL     1       0.500  -2.366   0.806  0.00  0.00    -0.080 HD
ENDROOT
BRANCH   3   7
ATOM      7  C   UNL     1      -1.763  -2.901   0.079  0.00  0.00    +0.202 C 
ATOM      8  O   UNL     1      -0.939  -3.777  -0.071  0.00  0.00    -0.277 OA
ATOM      9  N   UNL     1      -2.967  -2.998  -0.520  0.00  0.00    -0.301 N 
ATOM     10  C   UNL     1      -3.962  -1.938  -0.339  0.00  0.00    +0.132 C 
BRANCH   9  11
ATOM     11  C   UNL     1      -3.279  -4.162  -1.351  0.00  0.00    +0.149 C 
BRANCH  11  12
ATOM     12  C   UNL     1      -3.899  -5.238  -0.497  0.00  0.00    +0.008 A 
ATOM     13  C   UNL     1      -5.196  -5.435  -0.221  0.00  0.00    +0.021 A 
ATOM     14  C   UNL     1      -5.583  -6.546   0.635  0.00  0.00    -0.011 A 
ATOM     15  C   UNL     1      -6.878  -6.935   1.051  0.00  0.00    +0.009 A 
ATOM     16  C   UNL     1      -7.053  -8.013   1.861  0.00  0.00    +0.001 A 
ATOM     17  C   UNL     1      -5.977  -8.769   2.307  0.00  0.00    +0.001 A 
ATOM     18  C   UNL     1      -4.697  -8.422   1.924  0.00  0.00    +0.015 A 
ATOM     19  C   UNL     1      -4.506  -7.330   1.103  0.00  0.00    +0.020 A 
ATOM     20  S   UNL     1      -3.082  -6.557   0.382  0.00  0.00    -0.092 S 
ENDBRANCH  11  12
ENDBRANCH   9  11
ENDBRANCH   3   7
BRANCH   1  21
ATOM     21  S   UNL     1      -0.182   1.999   0.332  0.00  0.00    -0.086 S 
BRANCH  21  27
ATOM     22  C   UNL     1       1.311   4.904   0.540  0.00  0.00    +0.151 C 
ATOM     23  N   UNL     1       2.060   3.649   0.442  0.00  0.00    -0.329 N 
ATOM     24  C   UNL     1       3.430   3.512   0.427  0.00  0.00    +0.107 A 
ATOM     25  C   UNL     1       3.691   2.198   0.320  0.00  0.00    +0.131 A 
ATOM     26  N   UNL     1       2.523   1.537   0.276  0.00  0.00    -0.230 NA
ATOM     27  C   UNL     1       1.534   2.397   0.352  0.00  0.00    +0.169 A 
ENDBRANCH  21  27
ENDBRANCH   1  21
BRANCH   5  28
ATOM     28  C   UNL     1      -0.058  -2.412   2.801  0.00  0.00    -0.038 C 
BRANCH  28  29
ATOM     29  C   UNL     1       1.348  -2.411   3.345  0.00  0.00    -0.022 A 
ATOM     30  C   UNL     1       1.709  -1.509   4.327  0.00  0.00    +0.005 A 
ATOM     31  C   UNL     1       2.998  -1.508   4.827  0.00  0.00    +0.000 A 
ATOM     32  C   UNL     1       3.929  -2.410   4.346  0.00  0.00    +0.004 A 
ATOM     33  C   UNL     1       3.573  -3.315   3.365  0.00  0.00    +0.045 A 
ATOM     34  C   UNL     1       2.279  -3.321   2.865  0.00  0.00    +0.118 A 
BRANCH  34  35
ATOM     35  O   UNL     1       1.924  -4.213   1.903  0.00  0.00    -0.507 OA
ATOM     36  H   UNL     1       2.063  -3.894   1.000  0.00  0.00    +0.292 HD
ENDBRANCH  34  35
ENDBRANCH  28  29
ENDBRANCH   5  28
TORSDOF 8
