REMARK  Name = ZINC13234573
REMARK  9 active torsions:
REMARK  status: ('A' for Active; 'I' for Inactive)
REMARK    1  A    between atoms: C_1  and  C_2
REMARK    2  A    between atoms: C_3  and  C_29
REMARK    3  A    between atoms: C_4  and  C_28
REMARK    4  A    between atoms: C_9  and  S_11
REMARK    5  A    between atoms: S_11  and  C_12
REMARK    6  A    between atoms: C_12  and  C_13
REMARK    7  A    between atoms: C_24  and  C_26
REMARK    8  A    between atoms: C_29  and  C_30
REMARK    9  A    between atoms: C_30  and  C_31
REMARK                            x       y       z     vdW  Elec       q    Type
REMARK                         _______ _______ _______ _____ _____    ______ ____
ROOT
ATOM      1  S   UNL     1      -5.278   6.494  -2.703  0.00  0.00    -0.075 S 
ENDROOT
BRANCH   1  10
ATOM      2  C   UNL     1     -10.421   1.271  -4.568  0.00  0.00    +0.066 C 
ATOM      3  C   UNL     1      -9.706   2.596  -4.524  0.00  0.00    +0.047 A 
ATOM      4  C   UNL     1     -10.194   3.677  -5.267  0.00  0.00    -0.005 A 
ATOM      5  C   UNL     1      -9.539   4.867  -5.217  0.00  0.00    +0.048 A 
ATOM      6  N   UNL     1      -8.426   4.975  -4.446  0.00  0.00    -0.200 N 
ATOM      7  C   UNL     1      -7.975   3.900  -3.733  0.00  0.00    +0.254 A 
ATOM      8  N   UNL     1      -8.626   2.733  -3.787  0.00  0.00    -0.216 NA
ATOM      9  N   UNL     1      -6.885   4.288  -3.079  0.00  0.00    -0.183 NA
ATOM     10  C   UNL     1      -6.628   5.566  -3.351  0.00  0.00    +0.211 A 
ATOM     11  N   UNL     1      -7.545   6.030  -4.177  0.00  0.00    -0.137 NA
ATOM     12  C   UNL     1     -10.041   6.049  -6.006  0.00  0.00    +0.066 C 
BRANCH   4  13
ATOM     13  C   UNL     1     -11.432   3.523  -6.112  0.00  0.00    +0.050 C 
BRANCH  13  14
ATOM     14  C   UNL     1     -11.036   3.069  -7.519  0.00  0.00    +0.130 C 
BRANCH  14  15
ATOM     15  C   UNL     1     -12.274   2.915  -8.364  0.00  0.00    +0.356 C 
ATOM     16  O   UNL     1     -13.361   3.145  -7.891  0.00  0.00    -0.246 OA
ATOM     17  O   UNL     1     -12.168   2.522  -9.643  0.00  0.00    -0.246 OA
ENDBRANCH  14  15
ENDBRANCH  13  14
ENDBRANCH   4  13
ENDBRANCH   1  10
BRANCH   1  18
ATOM     18  C   UNL     1      -4.402   5.311  -1.642  0.00  0.00    +0.173 C 
BRANCH  18  19
ATOM     19  C   UNL     1      -3.209   5.986  -1.016  0.00  0.00    +0.227 C 
ATOM     20  O   UNL     1      -2.972   7.150  -1.262  0.00  0.00    -0.275 OA
ATOM     21  N   UNL     1      -2.404   5.296  -0.184  0.00  0.00    -0.283 N 
ATOM     22  C   UNL     1      -2.592   3.859   0.042  0.00  0.00    +0.144 C 
ATOM     23  C   UNL     1      -1.257   3.159   0.001  0.00  0.00    -0.027 A 
ATOM     24  C   UNL     1      -1.254   1.772  -0.045  0.00  0.00    +0.005 A 
ATOM     25  C   UNL     1      -0.064   1.074  -0.063  0.00  0.00    +0.000 A 
ATOM     26  C   UNL     1       1.135   1.763  -0.046  0.00  0.00    +0.000 A 
ATOM     27  C   UNL     1       1.133   3.142  -0.011  0.00  0.00    +0.004 A 
ATOM     28  C   UNL     1      -0.064   3.847   0.011  0.00  0.00    -0.040 A 
ATOM     29  C   UNL     1       0.011   5.351   0.035  0.00  0.00    +0.069 C 
ATOM     30  C   UNL     1      -1.300   5.954   0.535  0.00  0.00    +0.194 C 
BRANCH  30  31
ATOM     31  C   UNL     1      -1.320   7.435   0.255  0.00  0.00    +0.376 C 
ATOM     32  O   UNL     1      -0.651   7.889  -0.642  0.00  0.00    -0.244 OA
ATOM     33  O   UNL     1      -2.081   8.249   1.004  0.00  0.00    -0.244 OA
ENDBRANCH  30  31
ENDBRANCH  18  19
ENDBRANCH   1  18
TORSDOF 7
