REMARK  Name = ZINC09871425
REMARK  4 active torsions:
REMARK  status: ('A' for Active; 'I' for Inactive)
REMARK    1  A    between atoms: C_4  and  C_7
REMARK    2  A    between atoms: C_14  and  C_18
REMARK    3  A    between atoms: C_18  and  N_55
REMARK    4  A    between atoms: C_22  and  C_24
REMARK                            x       y       z     vdW  Elec       q    Type
REMARK                         _______ _______ _______ _____ _____    ______ ____
ROOT
ATOM      1  C   UNL     1       0.002  -0.004   0.002  0.00  0.00    +0.022 A 
ATOM      2  C   UNL     1      -0.016   1.353   0.009  0.00  0.00    +0.031 A 
ATOM      3  C   UNL     1       1.192   2.069   0.002  0.00  0.00    +0.073 A 
ATOM      4  C   UNL     1       1.397   3.490   0.007  0.00  0.00    +0.260 A 
ATOM      5  O   UNL     1       0.447   4.253   0.020  0.00  0.00    -0.267 OA
ATOM      6  N   UNL     1       2.656   3.966  -0.003  0.00  0.00    -0.312 N 
ATOM      7  H   UNL     1       2.800   4.925   0.001  0.00  0.00    +0.170 HD
ATOM      8  C   UNL     1       3.728   3.133  -0.018  0.00  0.00    +0.094 A 
ATOM      9  N   UNL     1       3.575   1.835  -0.023  0.00  0.00    -0.229 NA
ATOM     10  C   UNL     1       2.365   1.289  -0.014  0.00  0.00    +0.116 A 
ATOM     11  S   UNL     1       1.747  -0.376  -0.017  0.00  0.00    -0.068 S 
ENDROOT
BRANCH   1  15
ATOM     12  C   UNL     1      -3.281  -2.699   0.017  0.00  0.00    +0.000 A 
ATOM     13  C   UNL     1      -1.988  -3.189   0.003  0.00  0.00    +0.001 A 
ATOM     14  C   UNL     1      -0.917  -2.320  -0.002  0.00  0.00    +0.009 A 
ATOM     15  C   UNL     1      -1.141  -0.942   0.007  0.00  0.00    -0.011 A 
ATOM     16  C   UNL     1      -2.448  -0.454   0.028  0.00  0.00    +0.009 A 
ATOM     17  C   UNL     1      -3.510  -1.334   0.027  0.00  0.00    +0.001 A 
ENDBRANCH   1  15
BRANCH   8  18
ATOM     18  C   UNL     1       5.118   3.715  -0.028  0.00  0.00    -0.002 C 
BRANCH  18  23
ATOM     19  C   UNL     1       6.096   1.924  -1.339  0.00  0.00    -0.077 C 
ATOM     20  C   UNL     1       7.530   1.992  -1.905  0.00  0.00    -0.020 C 
ATOM     21  C   UNL     1       8.394   2.233  -0.640  0.00  0.00    -0.013 C 
ATOM     22  C   UNL     1       7.467   3.144   0.204  0.00  0.00    -0.037 C 
ATOM     23  N   UNL     1       6.112   2.610  -0.037  0.00  0.00    +0.389 N 
ATOM     24  H   UNL     1       5.874   1.940   0.703  0.00  0.00    -0.080 HD
BRANCH  22  25
ATOM     25  C   UNL     1       7.814   3.034   1.666  0.00  0.00    -0.057 A 
ATOM     26  C   UNL     1       7.431   1.916   2.384  0.00  0.00    +0.006 A 
ATOM     27  C   UNL     1       7.750   1.810   3.724  0.00  0.00    +0.049 A 
ATOM     28  C   UNL     1       8.445   2.830   4.356  0.00  0.00    +0.162 A 
ATOM     29  C   UNL     1       8.827   3.956   3.635  0.00  0.00    +0.162 A 
ATOM     30  C   UNL     1       8.507   4.054   2.289  0.00  0.00    +0.051 A 
ATOM     31  O   UNL     1       9.517   4.965   4.234  0.00  0.00    -0.485 OA
ATOM     32  C   UNL     1       9.494   5.001   5.665  0.00  0.00    +0.270 C 
ATOM     33  C   UNL     1       9.764   3.583   6.186  0.00  0.00    +0.270 C 
ATOM     34  O   UNL     1       8.742   2.717   5.679  0.00  0.00    -0.485 OA
ENDBRANCH  22  25
ENDBRANCH  18  23
ENDBRANCH   8  18
TORSDOF 4
