REMARK  Name = ZINC10083294
REMARK  7 active torsions:
REMARK  status: ('A' for Active; 'I' for Inactive)
REMARK    1  A    between atoms: C_4  and  N_26
REMARK    2  A    between atoms: C_6  and  C_7
REMARK    3  A    between atoms: C_8  and  C_9
REMARK    4  A    between atoms: C_9  and  O_11
REMARK    5  A    between atoms: O_11  and  C_12
REMARK    6  A    between atoms: C_12  and  C_13
REMARK    7  A    between atoms: N_15  and  C_16
REMARK                            x       y       z     vdW  Elec       q    Type
REMARK                         _______ _______ _______ _____ _____    ______ ____
ROOT
ATOM      1  O   UNL     1       2.455   0.576   2.599  0.00  0.00    -0.452 OA
ENDROOT
BRANCH   1   2
ATOM      2  C   UNL     1       1.339  -0.136   2.857  0.00  0.00    +0.332 C 
ATOM      3  O   UNL     1       0.777  -0.735   1.960  0.00  0.00    -0.246 OA
BRANCH   2   5
ATOM      4  C   UNL     1      -0.319  -0.892   4.474  0.00  0.00    +0.015 C 
ATOM      5  C   UNL     1       0.801  -0.184   4.216  0.00  0.00    +0.092 C 
BRANCH   4  11
ATOM      6  C   UNL     1      -0.217  -0.254   6.876  0.00  0.00    +0.009 A 
ATOM      7  C   UNL     1      -0.731  -0.303   8.154  0.00  0.00    +0.023 A 
ATOM      8  C   UNL     1      -1.880  -1.032   8.415  0.00  0.00    +0.071 A 
ATOM      9  C   UNL     1      -2.522  -1.715   7.395  0.00  0.00    +0.145 A 
ATOM     10  C   UNL     1      -2.024  -1.669   6.111  0.00  0.00    +0.042 A 
ATOM     11  C   UNL     1      -0.860  -0.941   5.841  0.00  0.00    -0.023 A 
ATOM     12 CL   UNL     1      -2.518  -1.089  10.028  0.00  0.00    -0.081 Cl
BRANCH   9  13
ATOM     13  N   UNL     1      -3.749  -2.490   7.684  0.00  0.00    +0.058 N 
ATOM     14  O   UNL     1      -4.314  -3.092   6.788  0.00  0.00    -0.126 OA
ATOM     15  O   UNL     1      -4.194  -2.527   8.817  0.00  0.00    -0.126 OA
ENDBRANCH   9  13
ENDBRANCH   4  11
ENDBRANCH   2   5
ENDBRANCH   1   2
BRANCH   1  16
ATOM     16  C   UNL     1       2.921   0.584   1.248  0.00  0.00    +0.328 C 
BRANCH  16  17
ATOM     17  C   UNL     1       4.168   1.424   1.152  0.00  0.00    +0.255 C 
ATOM     18  O   UNL     1       4.614   1.964   2.142  0.00  0.00    -0.272 OA
ATOM     19  N   UNL     1       4.788   1.577  -0.035  0.00  0.00    -0.280 N 
ATOM     20  H   UNL     1       4.475   1.087  -0.812  0.00  0.00    +0.155 HD
BRANCH  19  21
ATOM     21  C   UNL     1       5.884   2.441  -0.147  0.00  0.00    +0.073 A 
ATOM     22  C   UNL     1       5.686   3.781  -0.455  0.00  0.00    +0.082 A 
ATOM     23  C   UNL     1       6.770   4.633  -0.560  0.00  0.00    +0.063 A 
ATOM     24  C   UNL     1       8.052   4.151  -0.368  0.00  0.00    +0.043 A 
ATOM     25  C   UNL     1       8.254   2.815  -0.066  0.00  0.00    +0.063 A 
ATOM     26  C   UNL     1       7.173   1.959   0.045  0.00  0.00    +0.082 A 
ATOM     27 CL   UNL     1       7.427   0.284   0.425  0.00  0.00    -0.080 Cl
ATOM     28 CL   UNL     1       9.865   2.214   0.174  0.00  0.00    -0.082 Cl
ATOM     29 CL   UNL     1       6.522   6.309  -0.939  0.00  0.00    -0.082 Cl
ATOM     30 CL   UNL     1       4.077   4.386  -0.703  0.00  0.00    -0.080 Cl
ENDBRANCH  19  21
ENDBRANCH  16  17
ENDBRANCH   1  16
TORSDOF 7
