REMARK  Name = ZINC64986782
REMARK  10 active torsions:
REMARK  status: ('A' for Active; 'I' for Inactive)
REMARK    1  A    between atoms: C_1  and  C_2
REMARK    2  A    between atoms: C_13  and  S_26
REMARK    3  A    between atoms: C_14  and  O_18
REMARK    4  A    between atoms: O_18  and  C_19
REMARK    5  A    between atoms: S_26  and  N_29
REMARK    6  A    between atoms: N_29  and  C_30
REMARK    7  A    between atoms: N_29  and  C_31
REMARK    8  A    between atoms: C_31  and  C_32
REMARK    9  A    between atoms: C_32  and  O_33
REMARK   10  A    between atoms: O_33  and  C_34
REMARK                            x       y       z     vdW  Elec       q    Type
REMARK                         _______ _______ _______ _____ _____    ______ ____
ROOT
ATOM      1  C   UNL     1      -2.353  -0.196   0.504  0.00  0.00    +0.044 C 
ATOM      2  C   UNL     1      -1.856  -1.618   0.472  0.00  0.00    -0.048 A 
ATOM      3  C   UNL     1      -1.747  -2.284  -0.734  0.00  0.00    +0.007 A 
ATOM      4  C   UNL     1      -1.280  -3.584  -0.766  0.00  0.00    +0.048 A 
ATOM      5  C   UNL     1      -0.925  -4.228   0.412  0.00  0.00    +0.150 A 
ATOM      6  C   UNL     1      -1.053  -3.568   1.627  0.00  0.00    +0.077 A 
ATOM      7  C   UNL     1      -1.504  -2.252   1.647  0.00  0.00    +0.030 A 
ATOM      8  N   UNL     1      -0.769  -4.201   2.836  0.00  0.00    -0.278 N 
ATOM      9  C   UNL     1       0.234  -5.037   3.066  0.00  0.00    +0.252 C 
ATOM     10  O   UNL     1       0.344  -5.486   4.191  0.00  0.00    -0.270 OA
ATOM     11  C   UNL     1       1.221  -5.461   2.067  0.00  0.00    +0.081 A 
ATOM     12  C   UNL     1       2.561  -5.622   2.439  0.00  0.00    +0.049 A 
ATOM     13  C   UNL     1       3.486  -6.050   1.517  0.00  0.00    +0.148 A 
ATOM     14  C   UNL     1       3.095  -6.329   0.210  0.00  0.00    +0.158 A 
ATOM     15  C   UNL     1       1.772  -6.161  -0.172  0.00  0.00    +0.095 A 
ATOM     16  C   UNL     1       0.836  -5.714   0.744  0.00  0.00    +0.144 A 
ATOM     17  O   UNL     1      -0.439  -5.493   0.347  0.00  0.00    -0.453 OA
ATOM     18  H   UNL     1      -1.363  -4.013   3.580  0.00  0.00    +0.155 HD
ENDROOT
BRANCH  13  19
ATOM     19  S   UNL     1       5.172  -6.247   1.990  0.00  0.00    +0.064 S 
ATOM     20  O   UNL     1       5.951  -5.583   1.003  0.00  0.00    -0.153 OA
ATOM     21  O   UNL     1       5.248  -5.915   3.370  0.00  0.00    -0.153 OA
BRANCH  19  22
ATOM     22  N   UNL     1       5.530  -7.859   1.870  0.00  0.00    -0.177 NA
ATOM     23  C   UNL     1       6.046  -8.403   0.611  0.00  0.00    +0.131 C 
BRANCH  22  24
ATOM     24  C   UNL     1       5.330  -8.741   3.022  0.00  0.00    +0.137 C 
BRANCH  24  25
ATOM     25  C   UNL     1       3.958  -9.412   2.919  0.00  0.00    +0.176 C 
BRANCH  25  26
ATOM     26  O   UNL     1       3.932 -10.270   1.777  0.00  0.00    -0.382 OA
ATOM     27  C   UNL     1       2.688 -10.948   1.588  0.00  0.00    +0.194 C 
ENDBRANCH  25  26
ENDBRANCH  24  25
ENDBRANCH  22  24
ENDBRANCH  19  22
ENDBRANCH  13  19
BRANCH  14  28
ATOM     28  O   UNL     1       4.011  -6.766  -0.691  0.00  0.00    -0.454 OA
BRANCH  28  29
ATOM     29  C   UNL     1       3.596  -6.984  -1.967  0.00  0.00    +0.129 A 
ATOM     30  C   UNL     1       3.654  -5.960  -2.901  0.00  0.00    +0.048 A 
ATOM     31  C   UNL     1       3.232  -6.183  -4.197  0.00  0.00    +0.023 A 
ATOM     32  C   UNL     1       2.752  -7.428  -4.564  0.00  0.00    +0.041 A 
ATOM     33  C   UNL     1       2.692  -8.451  -3.634  0.00  0.00    +0.023 A 
ATOM     34  C   UNL     1       3.119  -8.233  -2.338  0.00  0.00    +0.048 A 
ATOM     35 CL   UNL     1       2.222  -7.707  -6.194  0.00  0.00    -0.084 Cl
ENDBRANCH  28  29
ENDBRANCH  14  28
TORSDOF 7
