REMARK  Name = ZINC09671871
REMARK  11 active torsions:
REMARK  status: ('A' for Active; 'I' for Inactive)
REMARK    1  A    between atoms: C_1  and  N_69
REMARK    2  A    between atoms: C_2  and  N_69
REMARK    3  A    between atoms: C_3  and  C_5
REMARK    4  A    between atoms: C_3  and  C_30
REMARK    5  A    between atoms: C_3  and  N_69
REMARK    6  A    between atoms: C_5  and  N_6
REMARK    7  A    between atoms: C_7  and  C_9
REMARK    8  A    between atoms: C_14  and  S_15
REMARK    9  A    between atoms: S_15  and  C_16
REMARK   10  A    between atoms: C_16  and  C_17
REMARK   11  A    between atoms: N_19  and  C_20
REMARK                            x       y       z     vdW  Elec       q    Type
REMARK                         _______ _______ _______ _____ _____    ______ ____
ROOT
ATOM      1  C   UNL     1      -2.729   0.634  -3.474  0.00  0.00    +0.050 A 
ATOM      2  C   UNL     1      -1.622   0.055  -4.100  0.00  0.00    +0.014 A 
ATOM      3  C   UNL     1      -0.915  -0.940  -3.461  0.00  0.00    +0.001 A 
ATOM      4  C   UNL     1      -1.295  -1.371  -2.199  0.00  0.00    +0.001 A 
ATOM      5  C   UNL     1      -2.382  -0.806  -1.566  0.00  0.00    +0.015 A 
ATOM      6  C   UNL     1      -3.112   0.196  -2.197  0.00  0.00    +0.020 A 
ENDROOT
BRANCH   1   8
ATOM      7  N   UNL     1      -3.119   2.117  -5.378  0.00  0.00    -0.312 N 
ATOM      8  C   UNL     1      -3.490   1.699  -4.152  0.00  0.00    +0.245 C 
ATOM      9  O   UNL     1      -4.453   2.201  -3.604  0.00  0.00    -0.270 OA
ATOM     10  H   UNL     1      -2.351   1.716  -5.815  0.00  0.00    +0.149 HD
BRANCH   7  11
ATOM     11  C   UNL     1      -3.876   3.175  -6.052  0.00  0.00    +0.097 C 
BRANCH  11  12
ATOM     12  C   UNL     1      -3.182   3.541  -7.366  0.00  0.00    +0.016 C 
BRANCH  12  13
ATOM     13  C   UNL     1      -4.029   4.532  -8.122  0.00  0.00    +0.093 A 
ATOM     14  C   UNL     1      -3.740   5.832  -8.309  0.00  0.00    +0.043 A 
ATOM     15  C   UNL     1      -4.798   6.382  -9.070  0.00  0.00    +0.041 A 
ATOM     16  C   UNL     1      -5.674   5.386  -9.294  0.00  0.00    +0.195 A 
ATOM     17  O   UNL     1      -5.203   4.268  -8.718  0.00  0.00    -0.469 OA
ENDBRANCH  12  13
BRANCH  12  20
ATOM     18  C   UNL     1      -4.297   1.704  -8.483  0.00  0.00    -0.096 C 
ATOM     19  C   UNL     1      -2.259   2.627  -9.409  0.00  0.00    -0.096 C 
ATOM     20  N   UNL     1      -2.987   2.311  -8.163  0.00  0.00    +0.384 N 
ATOM     21  H   UNL     1      -2.435   1.642  -7.614  0.00  0.00    -0.082 HD
ENDBRANCH  12  20
ENDBRANCH  11  12
ENDBRANCH   7  11
ENDBRANCH   1   8
BRANCH   6  22
ATOM     22  S   UNL     1      -4.506   0.915  -1.394  0.00  0.00    -0.115 S 
BRANCH  22  23
ATOM     23  C   UNL     1      -4.598   0.040   0.193  0.00  0.00    +0.170 C 
BRANCH  23  24
ATOM     24  C   UNL     1      -5.764   0.567   0.989  0.00  0.00    +0.224 C 
ATOM     25  O   UNL     1      -6.464   1.445   0.532  0.00  0.00    -0.275 OA
ATOM     26  N   UNL     1      -6.029   0.061   2.210  0.00  0.00    -0.309 N 
ATOM     27  H   UNL     1      -5.470  -0.642   2.576  0.00  0.00    +0.149 HD
BRANCH  26  28
ATOM     28  C   UNL     1      -7.163   0.573   2.985  0.00  0.00    +0.035 C 
ATOM     29  C   UNL     1      -6.973   2.069   3.238  0.00  0.00    +0.029 C 
ATOM     30  C   UNL     1      -8.156   2.604   4.047  0.00  0.00    -0.008 C 
ATOM     31  C   UNL     1      -8.234   1.866   5.385  0.00  0.00    +0.007 C 
ATOM     32  C   UNL     1      -8.424   0.369   5.132  0.00  0.00    -0.008 C 
ATOM     33  C   UNL     1      -7.241  -0.165   4.323  0.00  0.00    +0.029 C 
ATOM     34  C   UNL     1      -9.720   0.145   4.349  0.00  0.00    +0.007 C 
ATOM     35  C   UNL     1      -9.642   0.882   3.011  0.00  0.00    -0.008 C 
ATOM     36  C   UNL     1      -9.452   2.379   3.265  0.00  0.00    +0.007 C 
ATOM     37  C   UNL     1      -8.458   0.348   2.202  0.00  0.00    +0.029 C 
ENDBRANCH  26  28
ENDBRANCH  23  24
ENDBRANCH  22  23
ENDBRANCH   6  22
TORSDOF 9
