REMARK  Name = ZINC18152740
REMARK  6 active torsions:
REMARK  status: ('A' for Active; 'I' for Inactive)
REMARK    1  A    between atoms: C_1  and  O_2
REMARK    2  A    between atoms: O_2  and  C_3
REMARK    3  A    between atoms: C_3  and  C_5
REMARK    4  A    between atoms: C_10  and  N_11
REMARK    5  A    between atoms: C_27  and  C_33
REMARK    6  A    between atoms: C_33  and  C_35
REMARK                            x       y       z     vdW  Elec       q    Type
REMARK                         _______ _______ _______ _____ _____    ______ ____
ROOT
ATOM      1  N   UNL     1       0.899  -1.540   3.499  0.00  0.00    -0.209 N 
ATOM      2  C   UNL     1       0.490  -0.777   4.524  0.00  0.00    +0.232 C 
ATOM      3  O   UNL     1      -0.650  -0.423   4.732  0.00  0.00    -0.274 OA
ATOM      4  C   UNL     1       1.693  -0.433   5.379  0.00  0.00    +0.115 C 
ATOM      5  C   UNL     1       1.742   1.076   5.628  0.00  0.00    +0.117 C 
ATOM      6  C   UNL     1       2.157   1.380   7.045  0.00  0.00    -0.019 A 
ATOM      7  C   UNL     1       1.764   0.572   8.088  0.00  0.00    +0.006 A 
ATOM      8  C   UNL     1       2.162   0.868   9.380  0.00  0.00    +0.000 A 
ATOM      9  C   UNL     1       2.955   1.975   9.630  0.00  0.00    +0.001 A 
ATOM     10  C   UNL     1       3.353   2.794   8.594  0.00  0.00    +0.008 A 
ATOM     11  C   UNL     1       2.955   2.505   7.287  0.00  0.00    -0.019 A 
ATOM     12  C   UNL     1       3.366   3.383   6.173  0.00  0.00    +0.023 C 
ATOM     13  C   UNL     1       3.278   2.929   4.908  0.00  0.00    +0.072 C 
ATOM     14  N   UNL     1       2.759   1.650   4.729  0.00  0.00    -0.317 N 
ATOM     15  C   UNL     1       3.148   0.641   3.746  0.00  0.00    +0.157 C 
ATOM     16  C   UNL     1       2.878  -0.741   4.418  0.00  0.00    +0.118 C 
ATOM     17  C   UNL     1       2.231  -1.672   3.409  0.00  0.00    +0.232 C 
ATOM     18  O   UNL     1       2.818  -2.410   2.647  0.00  0.00    -0.274 OA
ENDROOT
BRANCH   1  24
ATOM     19  C   UNL     1      -0.395  -3.473   2.812  0.00  0.00    +0.081 A 
ATOM     20  C   UNL     1      -1.285  -4.069   1.915  0.00  0.00    +0.017 A 
ATOM     21  C   UNL     1      -1.750  -3.354   0.832  0.00  0.00    +0.001 A 
ATOM     22  C   UNL     1      -1.339  -2.047   0.628  0.00  0.00    +0.002 A 
ATOM     23  C   UNL     1      -0.460  -1.446   1.507  0.00  0.00    +0.025 A 
ATOM     24  C   UNL     1       0.014  -2.148   2.606  0.00  0.00    +0.058 A 
BRANCH  19  25
ATOM     25  C   UNL     1       0.106  -4.232   3.973  0.00  0.00    +0.341 C 
ATOM     26  O   UNL     1       0.799  -3.681   4.806  0.00  0.00    -0.245 OA
BRANCH  25  28
ATOM     27  C   UNL     1       0.220  -6.181   5.314  0.00  0.00    +0.280 C 
ATOM     28  O   UNL     1      -0.204  -5.536   4.111  0.00  0.00    -0.464 OA
ENDBRANCH  25  28
ENDBRANCH  19  25
ENDBRANCH   1  24
BRANCH  15  29
ATOM     29  C   UNL     1       2.317   0.786   2.498  0.00  0.00    +0.184 C 
ATOM     30  O   UNL     1       1.221   1.302   2.555  0.00  0.00    -0.290 OA
BRANCH  29  31
ATOM     31  C   UNL     1       2.834   0.299   1.209  0.00  0.00    +0.019 A 
ATOM     32  C   UNL     1       4.113  -0.262   1.132  0.00  0.00    +0.011 A 
ATOM     33  C   UNL     1       4.591  -0.716  -0.080  0.00  0.00    +0.001 A 
ATOM     34  C   UNL     1       3.809  -0.617  -1.217  0.00  0.00    +0.000 A 
ATOM     35  C   UNL     1       2.543  -0.062  -1.149  0.00  0.00    +0.001 A 
ATOM     36  C   UNL     1       2.048   0.391   0.056  0.00  0.00    +0.011 A 
ENDBRANCH  29  31
ENDBRANCH  15  29
TORSDOF 5
