REMARK  Name = ZINC39272683
REMARK  2 active torsions:
REMARK  status: ('A' for Active; 'I' for Inactive)
REMARK    1  A    between atoms: C_6  and  C_11
REMARK    2  A    between atoms: C_15  and  C_20
REMARK                            x       y       z     vdW  Elec       q    Type
REMARK                         _______ _______ _______ _____ _____    ______ ____
ROOT
ATOM      1  C   UNL     1      -6.044   0.545   0.061  0.00  0.00    +0.199 C 
ATOM      2  N   UNL     1      -6.652   1.773  -0.517  0.00  0.00    -0.262 N 
ATOM      3  N   UNL     1      -7.800   2.187   0.089  0.00  0.00    -0.224 N 
ATOM      4  C   UNL     1      -8.885   2.986  -0.227  0.00  0.00    +0.154 A 
ATOM      5  N   UNL     1      -9.662   3.038   0.814  0.00  0.00    -0.132 NA
ATOM      6  N   UNL     1      -9.172   2.325   1.767  0.00  0.00    -0.121 NA
ATOM      7  C   UNL     1      -8.065   1.780   1.371  0.00  0.00    +0.211 A 
ATOM      8  S   UNL     1      -6.715   0.688   1.774  0.00  0.00    -0.055 S 
ATOM      9  H   UNL     1      -5.977   2.522  -0.565  0.00  0.00    +0.168 HD
ENDROOT
BRANCH   1  15
ATOM     10  C   UNL     1      -0.017   1.384   0.010  0.00  0.00    +0.001 A 
ATOM     11  C   UNL     1       0.002  -0.004   0.002  0.00  0.00    +0.002 A 
ATOM     12  C   UNL     1      -1.173  -0.723   0.009  0.00  0.00    +0.026 A 
ATOM     13  C   UNL     1      -2.392  -0.053   0.024  0.00  0.00    +0.047 A 
ATOM     14  N   UNL     1      -3.704  -0.472   0.034  0.00  0.00    -0.356 N 
ATOM     15  C   UNL     1      -4.539   0.612   0.047  0.00  0.00    +0.050 A 
ATOM     16  H   UNL     1      -3.993  -1.398   0.030  0.00  0.00    +0.166 HD
ATOM     17  C   UNL     1      -3.818   1.744   0.047  0.00  0.00    +0.034 A 
ATOM     18  C   UNL     1      -2.406   1.353   0.032  0.00  0.00    +0.000 A 
ATOM     19  C   UNL     1      -1.203   2.062   0.030  0.00  0.00    +0.010 A 
ENDBRANCH   1  15
BRANCH   4  20
ATOM     20  C   UNL     1      -9.124   3.675  -1.546  0.00  0.00    +0.059 C 
ATOM     21  C   UNL     1      -9.201   5.187  -1.325  0.00  0.00    +0.011 C 
ATOM     22  C   UNL     1      -9.444   5.887  -2.663  0.00  0.00    +0.001 C 
ATOM     23  C   UNL     1     -10.759   5.391  -3.267  0.00  0.00    +0.000 C 
ATOM     24  C   UNL     1     -10.681   3.879  -3.488  0.00  0.00    +0.001 C 
ATOM     25  C   UNL     1     -10.439   3.180  -2.149  0.00  0.00    +0.011 C 
ENDBRANCH   4  20
TORSDOF 2
