REMARK  Name = ZINC16675849
REMARK  7 active torsions:
REMARK  status: ('A' for Active; 'I' for Inactive)
REMARK    1  A    between atoms: C_1  and  C_2
REMARK    2  A    between atoms: C_5  and  C_8
REMARK    3  A    between atoms: N_10  and  C_21
REMARK    4  A    between atoms: C_11  and  C_14
REMARK    5  A    between atoms: C_24  and  C_27
REMARK    6  A    between atoms: N_28  and  N_29
REMARK    7  A    between atoms: C_30  and  C_32
REMARK                            x       y       z     vdW  Elec       q    Type
REMARK                         _______ _______ _______ _____ _____    ______ ____
ROOT
ATOM      1  C   UNL     1       0.245   5.538   0.027  0.00  0.00    +0.069 C 
ATOM      2  N   UNL     1       0.009   4.271   0.018  0.00  0.00    -0.183 NA
ATOM      3  N   UNL     1       1.156   3.479   0.009  0.00  0.00    -0.216 N 
ATOM      4  C   UNL     1       2.339   4.354   0.003  0.00  0.00    +0.134 C 
ATOM      5  C   UNL     1       1.738   5.774   0.015  0.00  0.00    +0.087 C 
ENDROOT
BRANCH   1  10
ATOM      6  C   UNL     1      -3.766   9.660   0.084  0.00  0.00    +0.044 C 
ATOM      7  C   UNL     1      -2.715   8.580   0.068  0.00  0.00    -0.050 A 
ATOM      8  C   UNL     1      -3.095   7.249   0.066  0.00  0.00    +0.004 A 
ATOM      9  C   UNL     1      -2.139   6.255   0.052  0.00  0.00    +0.010 A 
ATOM     10  C   UNL     1      -0.783   6.595   0.042  0.00  0.00    -0.002 A 
ATOM     11  C   UNL     1      -0.407   7.940   0.050  0.00  0.00    +0.010 A 
ATOM     12  C   UNL     1      -1.374   8.924   0.058  0.00  0.00    +0.004 A 
ENDBRANCH   1  10
BRANCH   4  13
ATOM     13  C   UNL     1       3.179   4.120   1.232  0.00  0.00    -0.025 A 
ATOM     14  C   UNL     1       2.570   3.893   2.452  0.00  0.00    +0.007 A 
ATOM     15  C   UNL     1       3.340   3.672   3.578  0.00  0.00    +0.020 A 
ATOM     16  C   UNL     1       4.720   3.689   3.486  0.00  0.00    +0.041 A 
ATOM     17  C   UNL     1       5.329   3.922   2.266  0.00  0.00    +0.020 A 
ATOM     18  C   UNL     1       4.558   4.138   1.139  0.00  0.00    +0.007 A 
ATOM     19 CL   UNL     1       5.688   3.420   4.902  0.00  0.00    -0.084 Cl
ENDBRANCH   4  13
BRANCH   3  20
ATOM     20  C   UNL     1       1.178   2.087   0.002  0.00  0.00    +0.052 A 
ATOM     21  C   UNL     1      -0.017   1.373   0.010  0.00  0.00    +0.025 A 
ATOM     22  C   UNL     1       0.002  -0.004   0.002  0.00  0.00    +0.011 A 
ATOM     23  C   UNL     1       1.223  -0.685  -0.013  0.00  0.00    -0.005 A 
ATOM     24  C   UNL     1       2.421   0.035  -0.021  0.00  0.00    +0.011 A 
ATOM     25  C   UNL     1       2.396   1.412  -0.013  0.00  0.00    +0.025 A 
BRANCH  23  26
ATOM     26  C   UNL     1       1.247  -2.158  -0.021  0.00  0.00    +0.138 C 
ATOM     27  N   UNL     1       2.382  -2.789  -0.035  0.00  0.00    -0.187 NA
BRANCH  27  28
ATOM     28  N   UNL     1       2.405  -4.190  -0.042  0.00  0.00    -0.203 N 
ATOM     29  C   UNL     1       3.583  -4.845  -0.057  0.00  0.00    +0.263 C 
ATOM     30  O   UNL     1       4.625  -4.220  -0.064  0.00  0.00    -0.268 OA
ATOM     31  H   UNL     1       1.573  -4.689  -0.037  0.00  0.00    +0.178 HD
BRANCH  29  32
ATOM     32  C   UNL     1       3.607  -6.325  -0.065  0.00  0.00    +0.041 A 
ATOM     33  C   UNL     1       2.419  -7.063  -0.051  0.00  0.00    +0.033 A 
ATOM     34  C   UNL     1       2.487  -8.443  -0.064  0.00  0.00    +0.111 A 
ATOM     35  N   UNL     1       3.651  -9.063  -0.079  0.00  0.00    -0.263 NA
ATOM     36  C   UNL     1       4.794  -8.405  -0.087  0.00  0.00    +0.111 A 
ATOM     37  C   UNL     1       4.818  -7.024  -0.080  0.00  0.00    +0.033 A 
ENDBRANCH  29  32
ENDBRANCH  27  28
ENDBRANCH  23  26
ENDBRANCH   3  20
TORSDOF 6
