REMARK  Name = ZINC08432033
REMARK  11 active torsions:
REMARK  status: ('A' for Active; 'I' for Inactive)
REMARK    1  A    between atoms: C_1  and  C_2
REMARK    2  A    between atoms: C_4  and  C_34
REMARK    3  A    between atoms: C_8  and  C_28
REMARK    4  A    between atoms: C_9  and  C_22
REMARK    5  A    between atoms: N_10  and  C_11
REMARK    6  A    between atoms: C_11  and  C_12
REMARK    7  A    between atoms: C_12  and  C_14
REMARK    8  A    between atoms: C_12  and  O_21
REMARK    9  A    between atoms: C_14  and  N_63
REMARK   10  A    between atoms: C_15  and  C_16
REMARK   11  A    between atoms: C_15  and  N_63
REMARK                            x       y       z     vdW  Elec       q    Type
REMARK                         _______ _______ _______ _____ _____    ______ ____
ROOT
ATOM      1  C   UNL     1       1.794   4.619  -0.814  0.00  0.00    +0.044 C 
ATOM      2  C   UNL     1       0.671   3.750  -0.309  0.00  0.00    -0.049 A 
ATOM      3  C   UNL     1       0.893   2.398  -0.086  0.00  0.00    +0.008 A 
ATOM      4  C   UNL     1      -0.120   1.587   0.376  0.00  0.00    -0.026 A 
ATOM      5  C   UNL     1      -1.381   2.123   0.617  0.00  0.00    +0.053 A 
ATOM      6  C   UNL     1      -1.598   3.494   0.394  0.00  0.00    +0.009 A 
ATOM      7  C   UNL     1      -0.558   4.299  -0.074  0.00  0.00    +0.014 A 
ATOM      8  C   UNL     1      -3.003   3.752   0.741  0.00  0.00    +0.015 A 
ATOM      9  C   UNL     1      -3.533   2.546   1.149  0.00  0.00    +0.058 A 
ATOM     10  N   UNL     1      -2.561   1.578   1.076  0.00  0.00    -0.337 N 
ATOM     11  C   UNL     1       0.136   0.120   0.613  0.00  0.00    +0.046 C 
ENDROOT
BRANCH   9  12
ATOM     12  C   UNL     1      -4.925   2.329   1.593  0.00  0.00    -0.001 A 
ATOM     13  C   UNL     1      -5.706   1.338   0.995  0.00  0.00    +0.010 A 
ATOM     14  C   UNL     1      -7.003   1.137   1.419  0.00  0.00    +0.001 A 
ATOM     15  C   UNL     1      -7.534   1.923   2.427  0.00  0.00    +0.000 A 
ATOM     16  C   UNL     1      -6.768   2.911   3.020  0.00  0.00    +0.001 A 
ATOM     17  C   UNL     1      -5.467   3.119   2.610  0.00  0.00    +0.010 A 
ENDBRANCH   9  12
BRANCH   8  18
ATOM     18  C   UNL     1      -3.710   5.050   0.668  0.00  0.00    -0.015 A 
ATOM     19  C   UNL     1      -4.036   5.737   1.838  0.00  0.00    +0.008 A 
ATOM     20  C   UNL     1      -4.689   6.950   1.763  0.00  0.00    +0.001 A 
ATOM     21  C   UNL     1      -5.032   7.479   0.532  0.00  0.00    +0.000 A 
ATOM     22  C   UNL     1      -4.716   6.801  -0.632  0.00  0.00    +0.001 A 
ATOM     23  C   UNL     1      -4.058   5.590  -0.571  0.00  0.00    +0.008 A 
ENDBRANCH   8  18
BRANCH  10  24
ATOM     24  C   UNL     1      -2.752   0.169   1.430  0.00  0.00    +0.151 C 
BRANCH  24  25
ATOM     25  C   UNL     1      -2.317  -0.057   2.879  0.00  0.00    +0.117 C 
BRANCH  25  26
ATOM     26  O   UNL     1      -3.192   0.655   3.756  0.00  0.00    -0.392 OA
ATOM     27  H   UNL     1      -4.104   0.334   3.747  0.00  0.00    +0.210 HD
ENDBRANCH  25  26
BRANCH  25  28
ATOM     28  C   UNL     1      -2.375  -1.551   3.202  0.00  0.00    -0.049 C 
BRANCH  28  29
ATOM     29  N   UNL     1      -1.954  -1.760   4.600  0.00  0.00    +0.385 N 
ATOM     30  H   UNL     1      -2.584  -1.243   5.225  0.00  0.00    -0.085 HD
ATOM     31  H   UNL     1      -0.994  -1.415   4.720  0.00  0.00    -0.085 HD
BRANCH  29  32
ATOM     32  C   UNL     1      -2.001  -3.195   4.940  0.00  0.00    -0.007 C 
BRANCH  32  33
ATOM     33  C   UNL     1      -1.566  -3.377   6.371  0.00  0.00    +0.088 A 
ATOM     34  C   UNL     1      -2.374  -3.361   7.447  0.00  0.00    +0.042 A 
ATOM     35  C   UNL     1      -1.552  -3.570   8.579  0.00  0.00    +0.041 A 
ATOM     36  C   UNL     1      -0.292  -3.702   8.127  0.00  0.00    +0.195 A 
ATOM     37  O   UNL     1      -0.307  -3.590   6.789  0.00  0.00    -0.470 OA
ENDBRANCH  32  33
ENDBRANCH  29  32
ENDBRANCH  28  29
ENDBRANCH  25  28
ENDBRANCH  24  25
ENDBRANCH  10  24
TORSDOF 9
