REMARK  Name = ZINC44813666
REMARK  10 active torsions:
REMARK  status: ('A' for Active; 'I' for Inactive)
REMARK    1  A    between atoms: C_1  and  C_2
REMARK    2  A    between atoms: C_7  and  N_8
REMARK    3  A    between atoms: C_14  and  C_16
REMARK    4  A    between atoms: N_21  and  C_23
REMARK    5  A    between atoms: C_23  and  C_24
REMARK    6  A    between atoms: C_26  and  C_29
REMARK    7  A    between atoms: C_32  and  C_35
REMARK    8  A    between atoms: C_35  and  C_36
REMARK    9  A    between atoms: C_35  and  C_37
REMARK   10  A    between atoms: C_35  and  C_38
REMARK                            x       y       z     vdW  Elec       q    Type
REMARK                         _______ _______ _______ _____ _____    ______ ____
ROOT
ATOM      1  C   UNL     1       1.361   1.121   7.011  0.00  0.00    +0.059 C 
ATOM      2  C   UNL     1       2.136  -0.183   7.221  0.00  0.00    +0.009 C 
ATOM      3  C   UNL     1       3.421   0.118   7.997  0.00  0.00    -0.018 C 
ATOM      4  C   UNL     1       3.064   0.800   9.320  0.00  0.00    -0.078 C 
ATOM      5  N   UNL     1       2.349   2.053   9.050  0.00  0.00    +0.386 N 
ATOM      6  C   UNL     1       1.081   1.767   8.369  0.00  0.00    -0.065 C 
ATOM      7  H   UNL     1       2.918   2.645   8.464  0.00  0.00    -0.081 HD
ENDROOT
BRANCH   1  14
ATOM      8  N   UNL     1      -0.318   1.570   2.413  0.00  0.00    -0.327 N 
ATOM      9  C   UNL     1      -1.528   1.350   3.218  0.00  0.00    +0.124 C 
ATOM     10  C   UNL     1      -1.218   0.301   4.293  0.00  0.00    +0.126 C 
ATOM     11  N   UNL     1       0.027   0.681   4.975  0.00  0.00    -0.298 N 
ATOM     12  C   UNL     1       1.237   0.901   4.171  0.00  0.00    +0.126 C 
ATOM     13  C   UNL     1       0.928   1.945   3.096  0.00  0.00    +0.124 C 
ATOM     14  C   UNL     1       0.058   0.826   6.315  0.00  0.00    +0.217 C 
ATOM     15  O   UNL     1      -0.963   0.718   6.960  0.00  0.00    -0.275 OA
BRANCH   8  22
ATOM     16  C   UNL     1      -0.942   3.850   0.832  0.00  0.00    +0.045 C 
ATOM     17  C   UNL     1      -0.650   2.507   0.214  0.00  0.00    -0.029 A 
ATOM     18  C   UNL     1      -0.675   2.357  -1.159  0.00  0.00    +0.006 A 
ATOM     19  C   UNL     1      -0.408   1.125  -1.726  0.00  0.00    +0.020 A 
ATOM     20  C   UNL     1      -0.114   0.038  -0.921  0.00  0.00    +0.043 A 
ATOM     21  C   UNL     1      -0.087   0.182   0.453  0.00  0.00    +0.043 A 
ATOM     22  C   UNL     1      -0.350   1.420   1.025  0.00  0.00    +0.034 A 
ATOM     23 CL   UNL     1       0.222  -1.507  -1.639  0.00  0.00    -0.083 Cl
ENDBRANCH   8  22
ENDBRANCH   1  14
BRANCH   5  24
ATOM     24  C   UNL     1       2.077   2.742  10.319  0.00  0.00    +0.022 C 
BRANCH  24  25
ATOM     25  C   UNL     1       3.379   3.154  10.956  0.00  0.00    +0.211 A 
ATOM     26  N   UNL     1       3.991   4.289  10.771  0.00  0.00    -0.193 NA
ATOM     27  C   UNL     1       5.125   4.323  11.493  0.00  0.00    +0.202 A 
ATOM     28  N   UNL     1       5.238   3.195  12.149  0.00  0.00    -0.056 NA
ATOM     29  O   UNL     1       4.098   2.418  11.813  0.00  0.00    -0.340 OA
BRANCH  27  30
ATOM     30  C   UNL     1       6.088   5.452  11.539  0.00  0.00    +0.022 A 
ATOM     31  C   UNL     1       5.850   6.605  10.795  0.00  0.00    +0.012 A 
ATOM     32  C   UNL     1       6.749   7.651  10.841  0.00  0.00    +0.005 A 
ATOM     33  C   UNL     1       7.885   7.556  11.624  0.00  0.00    -0.042 A 
ATOM     34  C   UNL     1       8.127   6.413  12.365  0.00  0.00    +0.005 A 
ATOM     35  C   UNL     1       7.231   5.364  12.331  0.00  0.00    +0.012 A 
BRANCH  33  36
ATOM     36  C   UNL     1       8.864   8.701  11.670  0.00  0.00    -0.013 C 
ATOM     37  C   UNL     1       8.158   9.955  12.191  0.00  0.00    +0.015 C 
ATOM     38  C   UNL     1      10.023   8.344  12.602  0.00  0.00    +0.015 C 
ATOM     39  C   UNL     1       9.404   8.967  10.263  0.00  0.00    +0.015 C 
ENDBRANCH  33  36
ENDBRANCH  27  30
ENDBRANCH  24  25
ENDBRANCH   5  24
TORSDOF 6
