REMARK  Name = ZINC49201420
REMARK  2 active torsions:
REMARK  status: ('A' for Active; 'I' for Inactive)
REMARK    1  A    between atoms: C_1  and  C_2
REMARK    2  A    between atoms: C_13  and  C_16
REMARK                            x       y       z     vdW  Elec       q    Type
REMARK                         _______ _______ _______ _____ _____    ______ ____
ROOT
ATOM      1  C   UNL     1      -0.010   1.530   0.009  0.00  0.00    +0.007 C 
ATOM      2  C   UNL     1       0.008   0.000   0.001  0.00  0.00    -0.011 C 
ATOM      3  C   UNL     1       0.722  -0.495  -1.259  0.00  0.00    +0.022 C 
ATOM      4  C   UNL     1       0.708  -2.027  -1.281  0.00  0.00    +0.109 C 
ATOM      5  N   UNL     1       1.287  -2.523  -0.025  0.00  0.00    -0.285 N 
ATOM      6  C   UNL     1       0.734  -2.039   1.248  0.00  0.00    +0.109 C 
ATOM      7  C   UNL     1       0.748  -0.507   1.241  0.00  0.00    +0.022 C 
ATOM      8  C   UNL     1       2.305  -3.405  -0.040  0.00  0.00    +0.308 C 
ATOM      9  O   UNL     1       2.694  -3.868  -1.095  0.00  0.00    -0.252 OA
ATOM     10  N   UNL     1       2.894  -3.774   1.115  0.00  0.00    -0.248 N 
ATOM     11  C   UNL     1       4.011  -4.600   1.093  0.00  0.00    +0.166 A 
ATOM     12  N   UNL     1       4.720  -5.073   2.101  0.00  0.00    -0.223 NA
ATOM     13  C   UNL     1       5.772  -5.861   1.893  0.00  0.00    +0.096 A 
ATOM     14  C   UNL     1       6.123  -6.184   0.611  0.00  0.00    +0.078 A 
ATOM     15  S   UNL     1       4.864  -5.309  -0.309  0.00  0.00    -0.060 S 
ATOM     16  H   UNL     1       2.538  -3.464   1.962  0.00  0.00    +0.158 HD
ENDROOT
BRANCH  13  17
ATOM     17  C   UNL     1       6.554  -6.380   3.036  0.00  0.00    +0.066 A 
ATOM     18  C   UNL     1       6.306  -6.138   4.354  0.00  0.00    +0.029 A 
ATOM     19  C   UNL     1       7.285  -6.820   5.097  0.00  0.00    +0.019 A 
ATOM     20  C   UNL     1       8.096  -7.454   4.223  0.00  0.00    +0.083 A 
ATOM     21  N   UNL     1       7.654  -7.196   2.957  0.00  0.00    -0.359 N 
ATOM     22  H   UNL     1       8.052  -7.531   2.139  0.00  0.00    +0.165 HD
ENDBRANCH  13  17
TORSDOF 1
