REMARK  Name = ZINC42867223
REMARK  6 active torsions:
REMARK  status: ('A' for Active; 'I' for Inactive)
REMARK    1  A    between atoms: C_1  and  C_2
REMARK    2  A    between atoms: C_5  and  N_23
REMARK    3  A    between atoms: C_7  and  C_8
REMARK    4  A    between atoms: N_12  and  C_13
REMARK    5  A    between atoms: C_13  and  C_14
REMARK    6  A    between atoms: C_20  and  C_22
REMARK                            x       y       z     vdW  Elec       q    Type
REMARK                         _______ _______ _______ _____ _____    ______ ____
ROOT
ATOM      1  C   UNL     1       0.017   0.138   2.648  0.00  0.00    +0.182 A 
ATOM      2  N   UNL     1       0.071   1.428   2.905  0.00  0.00    -0.108 NA
ATOM      3  N   UNL     1       0.035   1.636   4.171  0.00  0.00    -0.023 NA
ATOM      4  N   UNL     1      -0.043   0.518   4.808  0.00  0.00    -0.044 NA
ATOM      5  N   UNL     1      -0.064  -0.502   3.840  0.00  0.00    -0.225 N 
ENDROOT
BRANCH   1  12
ATOM      6  C   UNL     1       2.048   0.899   0.736  0.00  0.00    +0.044 C 
ATOM      7  C   UNL     1       1.011  -0.135   0.379  0.00  0.00    -0.040 A 
ATOM      8  C   UNL     1       1.029  -0.730  -0.867  0.00  0.00    +0.006 A 
ATOM      9  C   UNL     1       0.080  -1.678  -1.199  0.00  0.00    +0.023 A 
ATOM     10  C   UNL     1      -0.900  -2.038  -0.281  0.00  0.00    +0.025 A 
ATOM     11  C   UNL     1      -0.926  -1.446   0.973  0.00  0.00    +0.034 A 
ATOM     12  C   UNL     1       0.035  -0.494   1.309  0.00  0.00    +0.025 A 
BRANCH  10  13
ATOM     13  N   UNL     1      -1.858  -2.996  -0.621  0.00  0.00    -0.358 N 
ATOM     14  H   UNL     1      -1.840  -3.410  -1.498  0.00  0.00    +0.142 HD
ATOM     15  H   UNL     1      -2.541  -3.247   0.020  0.00  0.00    +0.142 HD
ENDBRANCH  10  13
ENDBRANCH   1  12
BRANCH   5  16
ATOM     16  C   UNL     1      -0.151  -1.946   4.071  0.00  0.00    +0.151 C 
BRANCH  16  17
ATOM     17  C   UNL     1       1.245  -2.502   4.360  0.00  0.00    +0.013 C 
ATOM     18  C   UNL     1       2.127  -2.335   3.120  0.00  0.00    +0.005 C 
ATOM     19  C   UNL     1       3.522  -2.890   3.408  0.00  0.00    +0.000 C 
ATOM     20  C   UNL     1       3.417  -4.375   3.763  0.00  0.00    +0.000 C 
ATOM     21  C   UNL     1       2.536  -4.542   5.003  0.00  0.00    +0.003 C 
ATOM     22  C   UNL     1       1.140  -3.986   4.714  0.00  0.00    -0.009 C 
ATOM     23  C   UNL     1       0.259  -4.153   5.954  0.00  0.00    +0.008 C 
ENDBRANCH  16  17
ENDBRANCH   5  16
TORSDOF 4
