REMARK  Name = ZINC61881408
REMARK  4 active torsions:
REMARK  status: ('A' for Active; 'I' for Inactive)
REMARK    1  A    between atoms: C_1  and  C_2
REMARK    2  A    between atoms: N_7  and  S_9
REMARK    3  A    between atoms: S_9  and  C_12
REMARK    4  A    between atoms: C_16  and  N_19
REMARK                            x       y       z     vdW  Elec       q    Type
REMARK                         _______ _______ _______ _____ _____    ______ ____
ROOT
ATOM      1  C   UNL     1       1.712  -3.159   3.488  0.00  0.00    +0.123 A 
ATOM      2  C   UNL     1       1.648  -2.661   4.777  0.00  0.00    +0.049 A 
ATOM      3  C   UNL     1       2.715  -2.830   5.641  0.00  0.00    +0.045 A 
ATOM      4  C   UNL     1       3.849  -3.499   5.219  0.00  0.00    +0.044 A 
ATOM      5  C   UNL     1       3.916  -4.000   3.926  0.00  0.00    +0.042 A 
ATOM      6  C   UNL     1       2.840  -3.833   3.062  0.00  0.00    +0.065 A 
ATOM      7 BR   UNL     1       2.924  -4.521   1.302  0.00  0.00    -0.046 Br
ATOM      8 CL   UNL     1       2.629  -2.203   7.258  0.00  0.00    -0.083 Cl
ENDROOT
BRANCH   1   9
ATOM      9  S   UNL     1       0.350  -2.942   2.392  0.00  0.00    +0.062 S 
ATOM     10  O   UNL     1      -0.630  -2.199   3.104  0.00  0.00    -0.153 OA
ATOM     11  O   UNL     1       0.077  -4.216   1.825  0.00  0.00    -0.153 OA
BRANCH   9  17
ATOM     12  C   UNL     1      -0.019   1.526   0.010  0.00  0.00    +0.009 C 
ATOM     13  C   UNL     1       0.002  -0.004   0.002  0.00  0.00    +0.002 C 
ATOM     14  C   UNL     1       0.720  -0.498  -1.256  0.00  0.00    +0.006 C 
ATOM     15  C   UNL     1       0.712  -2.028  -1.282  0.00  0.00    +0.017 C 
ATOM     16  C   UNL     1       1.463  -2.559  -0.057  0.00  0.00    +0.109 C 
ATOM     17  N   UNL     1       0.869  -1.973   1.153  0.00  0.00    -0.176 NA
ATOM     18  C   UNL     1       0.744  -0.512   1.242  0.00  0.00    +0.112 C 
ENDBRANCH   9  17
ENDBRANCH   1   9
BRANCH   5  19
ATOM     19  N   UNL     1       5.061  -4.676   3.496  0.00  0.00    -0.357 N 
ATOM     20  H   UNL     1       5.810  -4.795   4.101  0.00  0.00    +0.142 HD
ATOM     21  H   UNL     1       5.107  -5.026   2.592  0.00  0.00    +0.142 HD
ENDBRANCH   5  19
TORSDOF 3
