REMARK  Name = ZINC12496950
REMARK  4 active torsions:
REMARK  status: ('A' for Active; 'I' for Inactive)
REMARK    1  A    between atoms: C_4  and  C_7
REMARK    2  A    between atoms: C_7  and  C_8
REMARK    3  A    between atoms: C_7  and  N_14
REMARK    4  A    between atoms: C_27  and  C_30
REMARK                            x       y       z     vdW  Elec       q    Type
REMARK                         _______ _______ _______ _____ _____    ______ ____
ROOT
ATOM      1  N   UNL     1       6.005   2.213   0.803  0.00  0.00    -0.289 NA
ATOM      2  C   UNL     1       6.065   3.188  -0.294  0.00  0.00    +0.104 C 
ATOM      3  C   UNL     1       4.655   3.701  -0.595  0.00  0.00    +0.122 C 
ATOM      4  N   UNL     1       3.789   2.567  -0.949  0.00  0.00    -0.313 N 
ATOM      5  C   UNL     1       3.729   1.592   0.148  0.00  0.00    +0.122 C 
ATOM      6  C   UNL     1       5.140   1.079   0.449  0.00  0.00    +0.104 C 
ATOM      7  C   UNL     1       2.521   3.001  -1.298  0.00  0.00    +0.123 A 
ATOM      8  C   UNL     1       1.970   2.670  -2.558  0.00  0.00    +0.024 A 
ATOM      9  C   UNL     1       2.656   1.904  -3.505  0.00  0.00    +0.012 A 
ATOM     10  C   UNL     1       2.060   1.625  -4.700  0.00  0.00    +0.001 A 
ATOM     11  C   UNL     1       0.782   2.095  -4.991  0.00  0.00    +0.001 A 
ATOM     12  C   UNL     1       0.084   2.840  -4.086  0.00  0.00    +0.011 A 
ATOM     13  C   UNL     1       0.667   3.144  -2.853  0.00  0.00    +0.013 A 
ATOM     14  C   UNL     1       0.008   3.917  -1.864  0.00  0.00    +0.099 A 
ATOM     15  N   UNL     1       0.629   4.160  -0.723  0.00  0.00    -0.172 NA
ATOM     16  N   UNL     1       1.807   3.730  -0.458  0.00  0.00    -0.263 N 
ATOM     17  H   UNL     1       2.219   3.997   0.526  0.00  0.00    +0.190 HD
ENDROOT
BRANCH  14  18
ATOM     18  C   UNL     1      -1.355   4.444  -2.105  0.00  0.00    +0.006 A 
ATOM     19  C   UNL     1      -1.673   5.753  -1.742  0.00  0.00    +0.013 A 
ATOM     20  C   UNL     1      -2.942   6.242  -1.974  0.00  0.00    +0.042 A 
ATOM     21  C   UNL     1      -3.904   5.433  -2.556  0.00  0.00    +0.158 A 
ATOM     22  C   UNL     1      -3.595   4.128  -2.913  0.00  0.00    +0.159 A 
ATOM     23  C   UNL     1      -2.325   3.631  -2.690  0.00  0.00    +0.051 A 
ATOM     24  F   UNL     1      -4.537   3.343  -3.480  0.00  0.00    -0.202 F 
ATOM     25  F   UNL     1      -5.146   5.915  -2.776  0.00  0.00    -0.202 F 
ENDBRANCH  14  18
BRANCH   1  26
ATOM     26  C   UNL     1       7.351   1.753   1.172  0.00  0.00    +0.117 C 
BRANCH  26  30
ATOM     27  C   UNL     1       9.703   5.092   2.423  0.00  0.00    +0.000 A 
ATOM     28  C   UNL     1      10.243   4.146   1.572  0.00  0.00    +0.000 A 
ATOM     29  C   UNL     1       9.482   3.066   1.167  0.00  0.00    +0.005 A 
ATOM     30  C   UNL     1       8.180   2.931   1.614  0.00  0.00    -0.026 A 
ATOM     31  C   UNL     1       7.639   3.880   2.461  0.00  0.00    +0.005 A 
ATOM     32  C   UNL     1       8.401   4.957   2.869  0.00  0.00    +0.000 A 
ENDBRANCH  26  30
BRANCH  26  33
ATOM     33  C   UNL     1       7.249   0.759   2.300  0.00  0.00    -0.026 A 
ATOM     34  C   UNL     1       6.428   1.021   3.381  0.00  0.00    +0.005 A 
ATOM     35  C   UNL     1       6.331   0.107   4.413  0.00  0.00    +0.000 A 
ATOM     36  C   UNL     1       7.064  -1.065   4.370  0.00  0.00    +0.000 A 
ATOM     37  C   UNL     1       7.890  -1.324   3.292  0.00  0.00    +0.000 A 
ATOM     38  C   UNL     1       7.982  -0.412   2.257  0.00  0.00    +0.005 A 
ENDBRANCH  26  33
ENDBRANCH   1  26
TORSDOF 4
