REMARK  Name = ZINC08751051
REMARK  8 active torsions:
REMARK  status: ('A' for Active; 'I' for Inactive)
REMARK    1  A    between atoms: C_1  and  C_2
REMARK    2  A    between atoms: C_6  and  C_29
REMARK    3  A    between atoms: C_7  and  N_8
REMARK    4  A    between atoms: C_9  and  C_13
REMARK    5  A    between atoms: C_13  and  C_15
REMARK    6  A    between atoms: C_13  and  N_47
REMARK    7  A    between atoms: C_23  and  C_24
REMARK    8  A    between atoms: C_23  and  N_47
REMARK                            x       y       z     vdW  Elec       q    Type
REMARK                         _______ _______ _______ _____ _____    ______ ____
ROOT
ATOM      1  C   UNL     1      -2.636   5.669   0.374  0.00  0.00    +0.032 C 
ENDROOT
BRANCH   1   2
ATOM      2  C   UNL     1      -2.926   5.938   1.828  0.00  0.00    -0.036 A 
ATOM      3  C   UNL     1      -2.060   6.717   2.573  0.00  0.00    +0.005 A 
ATOM      4  C   UNL     1      -2.326   6.965   3.906  0.00  0.00    +0.020 A 
ATOM      5  C   UNL     1      -3.459   6.433   4.497  0.00  0.00    +0.042 A 
ATOM      6  C   UNL     1      -4.326   5.654   3.752  0.00  0.00    +0.040 A 
ATOM      7  C   UNL     1      -4.062   5.411   2.416  0.00  0.00    +0.044 A 
ATOM      8 CL   UNL     1      -5.154   4.440   1.478  0.00  0.00    -0.083 Cl
ATOM      9 CL   UNL     1      -3.793   6.744   6.172  0.00  0.00    -0.083 Cl
ENDBRANCH   1   2
BRANCH   1  11
ATOM     10  N   UNL     1      -0.317   4.643   0.094  0.00  0.00    -0.198 N 
ATOM     11  C   UNL     1      -1.147   5.707   0.144  0.00  0.00    +0.147 A 
ATOM     12  N   UNL     1      -0.419   6.777  -0.041  0.00  0.00    -0.114 NA
ATOM     13  N   UNL     1       0.814   6.461  -0.214  0.00  0.00    -0.023 NA
ATOM     14  N   UNL     1       0.960   5.181  -0.146  0.00  0.00    -0.039 NA
BRANCH  10  21
ATOM     15  C   UNL     1      -0.959   3.150  -2.243  0.00  0.00    +0.046 C 
ATOM     16  C   UNL     1      -0.976   2.526  -0.872  0.00  0.00    -0.025 A 
ATOM     17  C   UNL     1      -1.309   1.194  -0.722  0.00  0.00    +0.005 A 
ATOM     18  C   UNL     1      -1.324   0.621   0.537  0.00  0.00    +0.001 A 
ATOM     19  C   UNL     1      -1.012   1.381   1.649  0.00  0.00    +0.005 A 
ATOM     20  C   UNL     1      -0.672   2.712   1.505  0.00  0.00    -0.025 A 
ATOM     21  C   UNL     1      -0.656   3.290   0.243  0.00  0.00    +0.075 A 
ATOM     22  C   UNL     1      -0.326   3.538   2.717  0.00  0.00    +0.046 C 
ENDBRANCH  10  21
ENDBRANCH   1  11
BRANCH   1  23
ATOM     23  N   UNL     1      -3.281   6.703  -0.456  0.00  0.00    +0.393 N 
ATOM     24  H   UNL     1      -2.727   6.847  -1.309  0.00  0.00    -0.084 HD
ATOM     25  H   UNL     1      -3.329   7.581   0.073  0.00  0.00    -0.084 HD
BRANCH  23  26
ATOM     26  C   UNL     1      -4.646   6.283  -0.828  0.00  0.00    -0.005 C 
BRANCH  26  27
ATOM     27  C   UNL     1      -5.278   7.356  -1.677  0.00  0.00    +0.088 A 
ATOM     28  C   UNL     1      -5.216   7.435  -3.019  0.00  0.00    +0.042 A 
ATOM     29  C   UNL     1      -5.942   8.589  -3.395  0.00  0.00    +0.041 A 
ATOM     30  C   UNL     1      -6.404   9.145  -2.260  0.00  0.00    +0.195 A 
ATOM     31  O   UNL     1      -6.004   8.391  -1.224  0.00  0.00    -0.470 OA
ENDBRANCH  26  27
ENDBRANCH  23  26
ENDBRANCH   1  23
TORSDOF 6
