REMARK  Name = ZINC03267353
REMARK  9 active torsions:
REMARK  status: ('A' for Active; 'I' for Inactive)
REMARK    1  A    between atoms: C_1  and  C_2
REMARK    2  A    between atoms: C_3  and  C_36
REMARK    3  A    between atoms: N_9  and  C_30
REMARK    4  A    between atoms: C_10  and  S_12
REMARK    5  A    between atoms: S_12  and  C_13
REMARK    6  A    between atoms: C_13  and  C_14
REMARK    7  A    between atoms: N_16  and  C_17
REMARK    8  A    between atoms: C_18  and  C_28
REMARK    9  A    between atoms: C_23  and  C_27
REMARK                            x       y       z     vdW  Elec       q    Type
REMARK                         _______ _______ _______ _____ _____    ______ ____
ROOT
ATOM      1  C   UNL     1      -9.101  -1.592  -2.097  0.00  0.00    +0.045 C 
ATOM      2  C   UNL     1      -7.872  -1.924  -1.290  0.00  0.00    -0.026 A 
ATOM      3  C   UNL     1      -7.467  -3.196  -1.163  0.00  0.00    -0.008 A 
ATOM      4  S   UNL     1      -6.010  -3.067  -0.143  0.00  0.00    -0.073 S 
ATOM      5  C   UNL     1      -5.986  -1.307   0.082  0.00  0.00    +0.117 A 
ATOM      6  C   UNL     1      -7.112  -0.869  -0.642  0.00  0.00    +0.076 A 
ATOM      7  C   UNL     1      -7.345   0.542  -0.636  0.00  0.00    +0.268 A 
ATOM      8  O   UNL     1      -8.296   1.013  -1.236  0.00  0.00    -0.267 OA
ATOM      9  N   UNL     1      -6.501   1.343   0.040  0.00  0.00    -0.255 N 
ATOM     10  C   UNL     1      -5.430   0.833   0.718  0.00  0.00    +0.178 A 
ATOM     11  N   UNL     1      -5.189  -0.463   0.725  0.00  0.00    -0.215 NA
ATOM     12  C   UNL     1      -8.094  -4.438  -1.742  0.00  0.00    +0.052 C 
ENDROOT
BRANCH   9  13
ATOM     13  C   UNL     1      -6.726   2.726   0.050  0.00  0.00    +0.052 A 
ATOM     14  C   UNL     1      -7.518   3.296   1.038  0.00  0.00    +0.026 A 
ATOM     15  C   UNL     1      -7.732   4.660   1.048  0.00  0.00    +0.002 A 
ATOM     16  C   UNL     1      -7.168   5.457   0.069  0.00  0.00    +0.000 A 
ATOM     17  C   UNL     1      -6.384   4.892  -0.920  0.00  0.00    +0.002 A 
ATOM     18  C   UNL     1      -6.161   3.529  -0.932  0.00  0.00    +0.026 A 
ENDBRANCH   9  13
BRANCH  10  19
ATOM     19  S   UNL     1      -4.352   1.922   1.588  0.00  0.00    -0.078 S 
BRANCH  19  20
ATOM     20  C   UNL     1      -3.172   0.725   2.260  0.00  0.00    +0.173 C 
BRANCH  20  21
ATOM     21  C   UNL     1      -2.125   1.451   3.066  0.00  0.00    +0.228 C 
ATOM     22  O   UNL     1      -2.173   2.658   3.175  0.00  0.00    -0.275 OA
ATOM     23  N   UNL     1      -1.136   0.758   3.665  0.00  0.00    -0.278 N 
ATOM     24  H   UNL     1      -1.098  -0.207   3.578  0.00  0.00    +0.155 HD
BRANCH  23  25
ATOM     25  C   UNL     1      -0.169   1.427   4.403  0.00  0.00    +0.090 A 
ATOM     26  C   UNL     1       0.914   0.895   5.086  0.00  0.00    +0.084 A 
ATOM     27  C   UNL     1       1.789   1.821   5.784  0.00  0.00    -0.018 A 
ATOM     28  C   UNL     1       1.437   3.122   5.696  0.00  0.00    -0.004 A 
ATOM     29  S   UNL     1      -0.027   3.128   4.700  0.00  0.00    -0.077 S 
ATOM     30  C   UNL     1       2.140   4.292   6.312  0.00  0.00    +0.046 C 
ATOM     31  C   UNL     1       3.540   3.838   6.752  0.00  0.00    -0.009 C 
ATOM     32  C   UNL     1       3.411   2.523   7.526  0.00  0.00    +0.008 C 
ATOM     33  C   UNL     1       3.021   1.393   6.572  0.00  0.00    +0.037 C 
ATOM     34  C   UNL     1       4.168   4.906   7.649  0.00  0.00    +0.008 C 
BRANCH  26  35
ATOM     35  C   UNL     1       1.164  -0.515   5.099  0.00  0.00    +0.102 C 
ATOM     36  N   UNL     1       1.362  -1.634   5.109  0.00  0.00    -0.191 NA
ENDBRANCH  26  35
ENDBRANCH  23  25
ENDBRANCH  20  21
ENDBRANCH  19  20
ENDBRANCH  10  19
TORSDOF 6
