REMARK  Name = ZINC37457517
REMARK  5 active torsions:
REMARK  status: ('A' for Active; 'I' for Inactive)
REMARK    1  A    between atoms: C_1  and  C_2
REMARK    2  A    between atoms: C_2  and  C_4
REMARK    3  A    between atoms: C_2  and  N_8
REMARK    4  A    between atoms: C_4  and  C_5
REMARK    5  A    between atoms: C_9  and  C_11
REMARK                            x       y       z     vdW  Elec       q    Type
REMARK                         _______ _______ _______ _____ _____    ______ ____
ROOT
ATOM      1  N   UNL     1       0.712  -0.473   1.193  0.00  0.00    -0.308 N 
ATOM      2  C   UNL     1       2.054  -0.600   1.174  0.00  0.00    +0.251 C 
ATOM      3  O   UNL     1       2.669  -0.399   0.143  0.00  0.00    -0.270 OA
ATOM      4  H   UNL     1       0.215  -0.705   1.993  0.00  0.00    +0.149 HD
ENDROOT
BRANCH   2   5
ATOM      5  C   UNL     1       2.773  -0.980   2.395  0.00  0.00    +0.119 A 
ATOM      6  C   UNL     1       4.172  -0.997   2.419  0.00  0.00    +0.132 A 
ATOM      7  N   UNL     1       4.784  -1.345   3.537  0.00  0.00    -0.230 NA
ATOM      8  C   UNL     1       4.109  -1.674   4.622  0.00  0.00    +0.180 A 
ATOM      9  N   UNL     1       2.747  -1.687   4.691  0.00  0.00    -0.261 N 
ATOM     10  C   UNL     1       2.062  -1.329   3.564  0.00  0.00    +0.271 A 
ATOM     11  O   UNL     1       0.844  -1.316   3.566  0.00  0.00    -0.266 OA
ATOM     12  C   UNL     1       2.192  -2.054   5.896  0.00  0.00    +0.104 A 
ATOM     13  C   UNL     1       3.011  -2.368   6.900  0.00  0.00    +0.067 A 
ATOM     14  S   UNL     1       4.613  -2.148   6.150  0.00  0.00    -0.058 S 
ENDBRANCH   2   5
BRANCH   1  16
ATOM     15  C   UNL     1       0.003   1.546   0.008  0.00  0.00    +0.028 C 
ATOM     16  C   UNL     1       0.005   0.016   0.007  0.00  0.00    +0.081 C 
BRANCH  16  17
ATOM     17  C   UNL     1      -1.436  -0.496   0.025  0.00  0.00    +0.147 C 
BRANCH  17  18
ATOM     18  C   UNL     1      -1.438  -1.998  -0.100  0.00  0.00    +0.358 C 
ATOM     19  O   UNL     1      -0.383  -2.603  -0.195  0.00  0.00    -0.246 OA
ATOM     20  O   UNL     1      -2.493  -2.608  -0.106  0.00  0.00    -0.246 OA
ENDBRANCH  17  18
ENDBRANCH  16  17
ENDBRANCH   1  16
TORSDOF 4
