REMARK  Name = ZINC46586782
REMARK  16 active torsions:
REMARK  status: ('A' for Active; 'I' for Inactive)
REMARK    1  A    between atoms: C_1  and  C_2
REMARK    2  A    between atoms: C_2  and  C_4
REMARK    3  A    between atoms: C_2  and  N_14
REMARK    4  A    between atoms: C_7  and  S_10
REMARK    5  A    between atoms: S_10  and  C_13
REMARK    6  A    between atoms: N_14  and  C_15
REMARK    7  A    between atoms: N_14  and  C_16
REMARK    8  A    between atoms: C_16  and  C_17
REMARK    9  A    between atoms: C_17  and  C_19
REMARK   10  A    between atoms: C_17  and  O_36
REMARK   11  A    between atoms: C_19  and  O_20
REMARK   12  A    between atoms: O_20  and  C_21
REMARK   13  A    between atoms: C_24  and  C_27
REMARK   14  A    between atoms: C_27  and  C_28
REMARK   15  A    between atoms: C_27  and  C_29
REMARK   16  A    between atoms: C_27  and  C_30
REMARK                            x       y       z     vdW  Elec       q    Type
REMARK                         _______ _______ _______ _____ _____    ______ ____
ROOT
ATOM      1  C   UNL     1      -3.308  -0.166  -1.164  0.00  0.00    +0.135 C 
ENDROOT
BRANCH   1   2
ATOM      2  O   UNL     1      -3.540  -1.568  -1.018  0.00  0.00    -0.390 OA
ATOM      3  H   UNL     1      -3.118  -2.110  -1.699  0.00  0.00    +0.210 HD
ENDBRANCH   1   2
BRANCH   1   4
ATOM      4  C   UNL     1      -1.806   0.113  -1.096  0.00  0.00    -0.043 C 
BRANCH   4   5
ATOM      5  N   UNL     1      -1.317  -0.163   0.261  0.00  0.00    +0.384 N 
ATOM      6  C   UNL     1      -1.420  -1.603   0.535  0.00  0.00    -0.095 C 
ATOM      7  H   UNL     1      -1.875   0.347   0.930  0.00  0.00    -0.081 HD
BRANCH   5   9
ATOM      8  C   UNL     1       0.193   1.757   0.086  0.00  0.00    -0.008 C 
ATOM      9  C   UNL     1       0.086   0.257   0.372  0.00  0.00    -0.041 C 
BRANCH   9  10
ATOM     10  C   UNL     1       0.587  -0.026   1.764  0.00  0.00    -0.061 A 
ATOM     11  C   UNL     1      -0.234   0.199   2.853  0.00  0.00    +0.004 A 
ATOM     12  C   UNL     1       0.226  -0.061   4.131  0.00  0.00    +0.027 A 
ATOM     13  C   UNL     1       1.507  -0.547   4.319  0.00  0.00    +0.088 A 
ATOM     14  C   UNL     1       2.327  -0.773   3.230  0.00  0.00    +0.027 A 
ATOM     15  C   UNL     1       1.866  -0.517   1.952  0.00  0.00    +0.004 A 
BRANCH  13  16
ATOM     16  S   UNL     1       2.093  -0.877   5.947  0.00  0.00    -0.006 S 
ATOM     17  O   UNL     1       3.505  -0.748   5.857  0.00  0.00    -0.170 OA
ATOM     18  O   UNL     1       1.339  -0.014   6.787  0.00  0.00    -0.170 OA
ATOM     19  C   UNL     1       1.643  -2.606   6.263  0.00  0.00    +0.200 C 
ENDBRANCH  13  16
ENDBRANCH   9  10
ENDBRANCH   5   9
ENDBRANCH   4   5
ENDBRANCH   1   4
BRANCH   1  20
ATOM     20  C   UNL     1      -3.854   0.303  -2.515  0.00  0.00    +0.258 C 
BRANCH  20  21
ATOM     21  O   UNL     1      -5.274   0.150  -2.534  0.00  0.00    -0.489 OA
BRANCH  21  22
ATOM     22  C   UNL     1      -5.920   0.523  -3.670  0.00  0.00    +0.121 A 
ATOM     23  C   UNL     1      -5.200   1.021  -4.747  0.00  0.00    +0.046 A 
ATOM     24  C   UNL     1      -5.858   1.399  -5.901  0.00  0.00    +0.008 A 
ATOM     25  C   UNL     1      -7.234   1.282  -5.983  0.00  0.00    -0.037 A 
ATOM     26  C   UNL     1      -7.953   0.787  -4.912  0.00  0.00    +0.008 A 
ATOM     27  C   UNL     1      -7.299   0.402  -3.758  0.00  0.00    +0.046 A 
BRANCH  25  28
ATOM     28  C   UNL     1      -7.949   1.696  -7.243  0.00  0.00    +0.015 C 
ATOM     29  C   UNL     1      -6.948   2.320  -8.217  0.00  0.00    +0.021 C 
ATOM     30  C   UNL     1      -8.593   0.469  -7.891  0.00  0.00    +0.021 C 
BRANCH  28  31
ATOM     31  C   UNL     1      -9.018   2.704  -6.906  0.00  0.00    -0.037 A 
ATOM     32  C   UNL     1      -8.665   3.943  -6.403  0.00  0.00    +0.004 A 
ATOM     33  C   UNL     1      -9.645   4.868  -6.094  0.00  0.00    +0.000 A 
ATOM     34  C   UNL     1     -10.977   4.554  -6.288  0.00  0.00    +0.000 A 
ATOM     35  C   UNL     1     -11.329   3.316  -6.792  0.00  0.00    +0.000 A 
ATOM     36  C   UNL     1     -10.350   2.393  -7.105  0.00  0.00    +0.004 A 
ENDBRANCH  28  31
ENDBRANCH  25  28
ENDBRANCH  21  22
ENDBRANCH  20  21
ENDBRANCH   1  20
TORSDOF 11
