REMARK  Name = ZINC42097111
REMARK  3 active torsions:
REMARK  status: ('A' for Active; 'I' for Inactive)
REMARK    1  A    between atoms: C_9  and  N_11
REMARK    2  A    between atoms: N_11  and  C_12
REMARK    3  A    between atoms: C_15  and  N_19
REMARK                            x       y       z     vdW  Elec       q    Type
REMARK                         _______ _______ _______ _____ _____    ______ ____
ROOT
ATOM      1  N   UNL     1       4.577  -0.496  -0.997  0.00  0.00    -0.335 N 
ATOM      2  H   UNL     1       4.566  -0.835  -1.906  0.00  0.00    +0.147 HD
ENDROOT
BRANCH   1  11
ATOM      3  C   UNL     1      -0.017   1.377   0.010  0.00  0.00    +0.000 A 
ATOM      4  C   UNL     1       1.172   2.083   0.002  0.00  0.00    +0.000 A 
ATOM      5  C   UNL     1       2.376   1.406  -0.013  0.00  0.00    +0.006 A 
ATOM      6  C   UNL     1       2.396   0.021  -0.021  0.00  0.00    -0.024 A 
ATOM      7  C   UNL     1       1.208  -0.685  -0.013  0.00  0.00    -0.042 A 
ATOM      8  C   UNL     1       0.002  -0.004   0.002  0.00  0.00    +0.004 A 
ATOM      9  C   UNL     1       1.496  -2.171  -0.025  0.00  0.00    +0.037 C 
ATOM     10  C   UNL     1       2.966  -2.294  -0.480  0.00  0.00    +0.031 C 
ATOM     11  C   UNL     1       3.564  -0.942  -0.037  0.00  0.00    +0.101 C 
ENDBRANCH   1  11
BRANCH   1  12
ATOM     12  C   UNL     1       5.560   0.417  -0.603  0.00  0.00    +0.063 A 
ATOM     13  C   UNL     1       5.580   0.898   0.700  0.00  0.00    +0.028 A 
ATOM     14  C   UNL     1       6.553   1.800   1.086  0.00  0.00    +0.035 A 
ATOM     15  C   UNL     1       7.506   2.224   0.179  0.00  0.00    +0.129 A 
ATOM     16  C   UNL     1       7.489   1.749  -1.120  0.00  0.00    +0.073 A 
ATOM     17  C   UNL     1       6.522   0.841  -1.512  0.00  0.00    +0.146 A 
ATOM     18  F   UNL     1       6.510   0.372  -2.779  0.00  0.00    -0.203 F 
BRANCH  15  19
ATOM     19  N   UNL     1       8.545   3.191   0.598  0.00  0.00    +0.057 N 
ATOM     20  O   UNL     1       8.561   3.608   1.732  0.00  0.00    -0.126 OA
ATOM     21  O   UNL     1       9.379   3.563  -0.195  0.00  0.00    -0.126 OA
ENDBRANCH  15  19
ENDBRANCH   1  12
TORSDOF 3
