REMARK  Name = ZINC49576922
REMARK  10 active torsions:
REMARK  status: ('A' for Active; 'I' for Inactive)
REMARK    1  A    between atoms: C_1  and  C_2
REMARK    2  A    between atoms: C_2  and  C_3
REMARK    3  A    between atoms: C_2  and  C_4
REMARK    4  A    between atoms: C_4  and  C_5
REMARK    5  A    between atoms: C_11  and  C_12
REMARK    6  A    between atoms: C_14  and  O_28
REMARK    7  A    between atoms: C_15  and  O_19
REMARK    8  A    between atoms: O_19  and  C_20
REMARK    9  A    between atoms: C_20  and  C_21
REMARK   10  A    between atoms: O_28  and  C_29
REMARK                            x       y       z     vdW  Elec       q    Type
REMARK                         _______ _______ _______ _____ _____    ______ ____
ROOT
ATOM      1  C   UNL     1       6.160  -4.388  -1.710  0.00  0.00    +0.100 C 
ATOM      2  N   UNL     1       4.960  -4.566  -1.237  0.00  0.00    -0.169 NA
ATOM      3  N   UNL     1       3.980  -5.183  -1.984  0.00  0.00    -0.154 N 
ATOM      4  C   UNL     1       2.631  -5.344  -1.603  0.00  0.00    +0.132 C 
ATOM      5  N   UNL     1       2.040  -4.589  -0.716  0.00  0.00    -0.385 N 
ATOM      6  C   UNL     1       1.946  -6.460  -2.315  0.00  0.00    +0.079 C 
ATOM      7  C   UNL     1       0.963  -7.211  -1.710  0.00  0.00    +0.024 C 
ATOM      8  C   UNL     1       2.379  -6.718  -3.711  0.00  0.00    +0.273 C 
ATOM      9  O   UNL     1       1.630  -7.254  -4.512  0.00  0.00    -0.268 OA
ATOM     10  N   UNL     1       3.623  -6.343  -4.068  0.00  0.00    -0.152 NA
ATOM     11  C   UNL     1       4.352  -5.656  -3.224  0.00  0.00    +0.181 C 
ATOM     12  S   UNL     1       6.034  -5.108  -3.342  0.00  0.00    -0.038 S 
ATOM     13  H   UNL     1       2.533  -3.875  -0.281  0.00  0.00    +0.157 HD
ATOM     14  H   UNL     1       1.110  -4.743  -0.490  0.00  0.00    +0.157 HD
ENDROOT
BRANCH   7  15
ATOM     15  C   UNL     1       0.448  -8.412  -2.372  0.00  0.00    -0.019 A 
ATOM     16  C   UNL     1       1.314  -9.239  -3.103  0.00  0.00    +0.057 A 
ATOM     17  C   UNL     1       0.823 -10.369  -3.723  0.00  0.00    +0.164 A 
ATOM     18  C   UNL     1      -0.531 -10.689  -3.622  0.00  0.00    +0.181 A 
ATOM     19  C   UNL     1      -1.392  -9.871  -2.898  0.00  0.00    +0.087 A 
ATOM     20  C   UNL     1      -0.910  -8.743  -2.271  0.00  0.00    +0.032 A 
ATOM     21 CL   UNL     1      -3.076 -10.277  -2.779  0.00  0.00    -0.080 Cl
BRANCH  17  22
ATOM     22  O   UNL     1       1.660 -11.172  -4.433  0.00  0.00    -0.491 OA
ATOM     23  C   UNL     1       3.034 -10.785  -4.495  0.00  0.00    +0.277 C 
ENDBRANCH  17  22
BRANCH  18  24
ATOM     24  O   UNL     1      -1.011 -11.803  -4.234  0.00  0.00    -0.482 OA
BRANCH  24  25
ATOM     25  C   UNL     1      -1.002 -13.014  -3.476  0.00  0.00    +0.264 C 
BRANCH  25  26
ATOM     26  C   UNL     1      -1.566 -14.134  -4.311  0.00  0.00    -0.010 A 
ATOM     27  C   UNL     1      -2.924 -14.396  -4.289  0.00  0.00    +0.010 A 
ATOM     28  C   UNL     1      -3.443 -15.422  -5.055  0.00  0.00    +0.039 A 
ATOM     29  C   UNL     1      -2.603 -16.188  -5.846  0.00  0.00    +0.123 A 
ATOM     30  C   UNL     1      -1.243 -15.925  -5.867  0.00  0.00    +0.039 A 
ATOM     31  C   UNL     1      -0.727 -14.895  -5.104  0.00  0.00    +0.010 A 
ATOM     32  F   UNL     1      -3.109 -17.192  -6.595  0.00  0.00    -0.205 F 
ENDBRANCH  25  26
ENDBRANCH  24  25
ENDBRANCH  18  24
ENDBRANCH   7  15
BRANCH   1  33
ATOM     33  C   UNL     1       7.350  -3.737  -1.053  0.00  0.00    +0.067 C 
BRANCH  33  35
ATOM     34  C   UNL     1       8.203  -2.724   1.066  0.00  0.00    +0.007 C 
ATOM     35  C   UNL     1       6.965  -3.273   0.353  0.00  0.00    -0.011 C 
ATOM     36  C   UNL     1       5.904  -2.174   0.255  0.00  0.00    +0.007 C 
ENDBRANCH  33  35
ENDBRANCH   1  33
TORSDOF 7
