REMARK  Name = ZINC11782585
REMARK  10 active torsions:
REMARK  status: ('A' for Active; 'I' for Inactive)
REMARK    1  A    between atoms: C_1  and  C_2
REMARK    2  A    between atoms: C_2  and  C_3
REMARK    3  A    between atoms: C_3  and  C_14
REMARK    4  A    between atoms: N_6  and  C_10
REMARK    5  A    between atoms: C_10  and  C_11
REMARK    6  A    between atoms: C_11  and  C_13
REMARK    7  A    between atoms: C_19  and  C_20
REMARK    8  A    between atoms: C_19  and  N_66
REMARK    9  A    between atoms: C_28  and  C_29
REMARK   10  A    between atoms: C_28  and  C_30
REMARK                            x       y       z     vdW  Elec       q    Type
REMARK                         _______ _______ _______ _____ _____    ______ ____
ROOT
ATOM      1  C   UNL     1       0.421  -2.157  -1.272  0.00  0.00    +0.018 C 
ATOM      2  C   UNL     1       1.123  -2.714  -0.030  0.00  0.00    -0.013 C 
ATOM      3  C   UNL     1       1.270  -4.231  -0.171  0.00  0.00    -0.078 C 
ATOM      4  C   UNL     1       1.369  -4.056  -2.586  0.00  0.00    -0.078 C 
ATOM      5  C   UNL     1       1.226  -2.534  -2.518  0.00  0.00    -0.013 C 
ATOM      6  N   UNL     1       2.075  -4.527  -1.375  0.00  0.00    +0.382 N 
ATOM      7  H   UNL     1       2.974  -4.037  -1.302  0.00  0.00    -0.081 HD
ENDROOT
BRANCH   1   8
ATOM      8  C   UNL     1       0.327  -0.634  -1.165  0.00  0.00    +0.115 C 
ATOM      9  C   UNL     1      -0.298  -0.046  -2.415  0.00  0.00    +0.247 C 
ATOM     10  O   UNL     1      -1.410  -0.259  -2.848  0.00  0.00    -0.273 OA
ATOM     11  N   UNL     1       0.641   0.762  -2.946  0.00  0.00    -0.220 N 
ATOM     12  C   UNL     1       1.760   0.766  -2.213  0.00  0.00    +0.310 C 
ATOM     13  O   UNL     1       2.748   1.419  -2.491  0.00  0.00    -0.252 OA
ATOM     14  N   UNL     1       1.671  -0.032  -1.134  0.00  0.00    -0.285 N 
ATOM     15  H   UNL     1       2.358  -0.183  -0.466  0.00  0.00    +0.151 HD
BRANCH   8  17
ATOM     16  C   UNL     1      -0.597   1.293   0.130  0.00  0.00    +0.006 C 
ATOM     17  C   UNL     1      -0.472  -0.231   0.076  0.00  0.00    +0.032 C 
ENDBRANCH   8  17
BRANCH  11  18
ATOM     18  C   UNL     1       0.460   1.538  -4.175  0.00  0.00    +0.148 C 
BRANCH  18  19
ATOM     19  C   UNL     1       0.902   0.717  -5.359  0.00  0.00    -0.062 C 
ATOM     20  C   UNL     1       0.023   0.023  -6.039  0.00  0.00    +0.009 C 
ATOM     21  C   UNL     1       2.354   0.694  -5.760  0.00  0.00    +0.040 C 
ENDBRANCH  18  19
ENDBRANCH  11  18
ENDBRANCH   1   8
BRANCH   6  22
ATOM     22  C   UNL     1       2.326  -5.980  -1.470  0.00  0.00    -0.047 C 
BRANCH  22  23
ATOM     23  C   UNL     1       2.938  -6.457  -0.178  0.00  0.00    -0.086 C 
ATOM     24  C   UNL     1       4.241  -6.528  -0.026  0.00  0.00    -0.029 C 
ATOM     25  C   UNL     1       4.814  -7.000   1.288  0.00  0.00    +0.031 C 
ATOM     26  C   UNL     1       3.675  -7.413   2.230  0.00  0.00    -0.000 C 
ATOM     27  C   UNL     1       2.607  -6.304   2.320  0.00  0.00    +0.012 C 
ATOM     28  C   UNL     1       2.073  -6.881   0.996  0.00  0.00    +0.019 C 
ATOM     29  C   UNL     1       2.588  -8.242   1.524  0.00  0.00    -0.025 C 
ATOM     30  C   UNL     1       1.622  -8.941   2.483  0.00  0.00    +0.012 C 
ATOM     31  C   UNL     1       3.127  -9.168   0.432  0.00  0.00    +0.012 C 
ENDBRANCH  22  23
ENDBRANCH   6  22
TORSDOF 6
