REMARK  Name = ZINC02755708
REMARK  6 active torsions:
REMARK  status: ('A' for Active; 'I' for Inactive)
REMARK    1  A    between atoms: C_1  and  O_2
REMARK    2  A    between atoms: O_2  and  C_3
REMARK    3  A    between atoms: C_3  and  C_5
REMARK    4  A    between atoms: C_9  and  N_10
REMARK    5  A    between atoms: C_11  and  C_13
REMARK    6  A    between atoms: C_19  and  C_21
REMARK                            x       y       z     vdW  Elec       q    Type
REMARK                         _______ _______ _______ _____ _____    ______ ____
ROOT
ATOM      1  C   UNL     1      -2.081   3.787   4.862  0.00  0.00    +0.091 A 
ATOM      2  C   UNL     1      -1.645   3.572   3.503  0.00  0.00    -0.021 A 
ATOM      3  C   UNL     1      -0.498   2.891   3.326  0.00  0.00    -0.004 A 
ATOM      4  S   UNL     1       0.020   2.523   4.989  0.00  0.00    -0.077 S 
ATOM      5  C   UNL     1      -1.272   3.268   5.868  0.00  0.00    +0.086 A 
ATOM      6  C   UNL     1       0.186   2.527   2.034  0.00  0.00    +0.043 C 
ATOM      7  C   UNL     1      -0.654   1.494   1.281  0.00  0.00    +0.005 C 
ATOM      8  C   UNL     1       0.095   1.047   0.024  0.00  0.00    +0.000 C 
ATOM      9  C   UNL     1      -0.688   1.478  -1.218  0.00  0.00    +0.000 C 
ATOM     10  C   UNL     1      -0.732   3.005  -1.289  0.00  0.00    +0.000 C 
ATOM     11  C   UNL     1      -2.128   3.494  -0.899  0.00  0.00    +0.000 C 
ATOM     12  C   UNL     1      -2.186   5.019  -1.016  0.00  0.00    +0.000 C 
ATOM     13  C   UNL     1      -2.381   5.632   0.372  0.00  0.00    +0.000 C 
ATOM     14  C   UNL     1      -1.531   4.875   1.393  0.00  0.00    +0.005 C 
ATOM     15  C   UNL     1      -2.444   4.088   2.334  0.00  0.00    +0.037 C 
ENDROOT
BRANCH   5  16
ATOM     16  N   UNL     1      -1.456   3.332   7.240  0.00  0.00    -0.279 N 
ATOM     17  C   UNL     1      -0.557   2.765   8.068  0.00  0.00    +0.222 C 
ATOM     18  O   UNL     1       0.414   2.198   7.612  0.00  0.00    -0.275 OA
ATOM     19  H   UNL     1      -2.233   3.785   7.605  0.00  0.00    +0.155 HD
BRANCH  17  20
ATOM     20  C   UNL     1      -0.757   2.834   9.560  0.00  0.00    +0.093 C 
ATOM     21  C   UNL     1      -0.334   1.510  10.198  0.00  0.00    +0.040 C 
ATOM     22  C   UNL     1       1.157   1.355  10.128  0.00  0.00    -0.030 C 
ATOM     23  C   UNL     1       1.978   2.330   9.901  0.00  0.00    -0.030 C 
ATOM     24  C   UNL     1       1.552   3.750   9.666  0.00  0.00    +0.042 C 
ATOM     25  C   UNL     1       0.113   3.954  10.145  0.00  0.00    +0.118 C 
BRANCH  25  26
ATOM     26  C   UNL     1      -0.394   5.291   9.669  0.00  0.00    +0.360 C 
ATOM     27  O   UNL     1      -1.353   5.347   8.936  0.00  0.00    -0.246 OA
ATOM     28  O   UNL     1       0.219   6.420  10.059  0.00  0.00    -0.246 OA
ENDBRANCH  25  26
ENDBRANCH  17  20
ENDBRANCH   5  16
BRANCH   1  29
ATOM     29  C   UNL     1      -3.314   4.516   5.168  0.00  0.00    +0.342 C 
ATOM     30  O   UNL     1      -4.367   3.916   5.264  0.00  0.00    -0.245 OA
BRANCH  29  32
ATOM     31  C   UNL     1      -4.541   6.510   5.642  0.00  0.00    +0.280 C 
ATOM     32  O   UNL     1      -3.281   5.853   5.342  0.00  0.00    -0.464 OA
ENDBRANCH  29  32
ENDBRANCH   1  29
TORSDOF 5
