REMARK  Name = ZINC14542447
REMARK  11 active torsions:
REMARK  status: ('A' for Active; 'I' for Inactive)
REMARK    1  A    between atoms: C_1  and  C_2
REMARK    2  A    between atoms: C_2  and  C_3
REMARK    3  A    between atoms: C_6  and  C_8
REMARK    4  A    between atoms: C_8  and  N_71
REMARK    5  A    between atoms: N_16  and  C_25
REMARK    6  A    between atoms: N_19  and  C_20
REMARK    7  A    between atoms: C_20  and  C_21
REMARK    8  A    between atoms: C_21  and  C_22
REMARK    9  A    between atoms: C_22  and  O_23
REMARK   10  A    between atoms: O_23  and  C_24
REMARK   11  A    between atoms: C_25  and  C_26
REMARK                            x       y       z     vdW  Elec       q    Type
REMARK                         _______ _______ _______ _____ _____    ______ ____
ROOT
ATOM      1  C   UNL     1      -0.657   7.163   3.220  0.00  0.00    -0.076 C 
ATOM      2  C   UNL     1      -1.023   7.183   4.707  0.00  0.00    +0.017 C 
ATOM      3  C   UNL     1      -0.249   8.299   5.402  0.00  0.00    +0.112 C 
ATOM      4  C   UNL     1       1.251   8.124   5.185  0.00  0.00    +0.017 C 
ATOM      5  C   UNL     1       1.543   8.073   3.683  0.00  0.00    -0.076 C 
ATOM      6  C   UNL     1      -0.570   8.326   6.878  0.00  0.00    +0.247 C 
ATOM      7  O   UNL     1      -0.377   7.445   7.688  0.00  0.00    -0.273 OA
ATOM      8  N   UNL     1      -1.119   9.538   7.104  0.00  0.00    -0.220 N 
ATOM      9  C   UNL     1      -1.185  10.267   5.983  0.00  0.00    +0.312 C 
ATOM     10  O   UNL     1      -1.641  11.392   5.934  0.00  0.00    -0.252 OA
ATOM     11  N   UNL     1      -0.690   9.612   4.915  0.00  0.00    -0.271 N 
ATOM     12  N   UNL     1       0.799   6.941   3.089  0.00  0.00    +0.385 N 
ATOM     13  H   UNL     1       1.051   6.080   3.588  0.00  0.00    -0.081 HD
ENDROOT
BRANCH  12  14
ATOM     14  C   UNL     1       1.161   6.792   1.665  0.00  0.00    -0.003 C 
BRANCH  14  18
ATOM     15  C   UNL     1       0.326   3.393   0.626  0.00  0.00    +0.105 A 
ATOM     16  C   UNL     1      -0.798   4.019   0.231  0.00  0.00    +0.045 A 
ATOM     17  C   UNL     1      -0.647   5.383   0.570  0.00  0.00    +0.043 A 
ATOM     18  C   UNL     1       0.563   5.511   1.144  0.00  0.00    +0.089 A 
ATOM     19  O   UNL     1       1.148   4.302   1.175  0.00  0.00    -0.466 OA
BRANCH  15  21
ATOM     20  C   UNL     1       1.301   1.676  -0.874  0.00  0.00    +0.012 C 
ATOM     21  C   UNL     1       0.616   1.922   0.471  0.00  0.00    +0.071 C 
ENDBRANCH  15  21
ENDBRANCH  14  18
ENDBRANCH  12  14
BRANCH  11  22
ATOM     22  C   UNL     1      -0.607  10.112   3.541  0.00  0.00    +0.112 C 
BRANCH  22  23
ATOM     23  C   UNL     1       0.383  11.277   3.480  0.00  0.00    +0.047 C 
BRANCH  23  24
ATOM     24  C   UNL     1       0.565  11.716   2.026  0.00  0.00    +0.161 C 
BRANCH  24  25
ATOM     25  O   UNL     1       1.490  12.804   1.969  0.00  0.00    -0.383 OA
ATOM     26  C   UNL     1       1.732  13.293   0.649  0.00  0.00    +0.193 C 
ENDBRANCH  24  25
ENDBRANCH  23  24
ENDBRANCH  22  23
ENDBRANCH  11  22
BRANCH   8  27
ATOM     27  C   UNL     1      -1.585   9.999   8.415  0.00  0.00    +0.153 C 
BRANCH  27  28
ATOM     28  C   UNL     1      -0.456  10.690   9.134  0.00  0.00    -0.029 A 
ATOM     29  C   UNL     1      -0.277  12.063   8.971  0.00  0.00    +0.006 A 
ATOM     30  C   UNL     1       0.733  12.718   9.607  0.00  0.00    +0.009 A 
ATOM     31  C   UNL     1       1.609  12.002  10.441  0.00  0.00    -0.018 A 
ATOM     32  C   UNL     1       2.663  12.644  11.114  0.00  0.00    +0.008 A 
ATOM     33  C   UNL     1       3.492  11.919  11.914  0.00  0.00    +0.001 A 
ATOM     34  C   UNL     1       3.312  10.547  12.077  0.00  0.00    +0.001 A 
ATOM     35  C   UNL     1       2.302   9.892  11.442  0.00  0.00    +0.008 A 
ATOM     36  C   UNL     1       1.426  10.607  10.607  0.00  0.00    -0.018 A 
ATOM     37  C   UNL     1       0.369   9.966   9.939  0.00  0.00    +0.013 A 
ENDBRANCH  27  28
ENDBRANCH   8  27
TORSDOF 9
