REMARK  Name = ZINC13164881
REMARK  6 active torsions:
REMARK  status: ('A' for Active; 'I' for Inactive)
REMARK    1  A    between atoms: C_1  and  C_2
REMARK    2  A    between atoms: C_2  and  S_3
REMARK    3  A    between atoms: S_3  and  N_6
REMARK    4  A    between atoms: C_13  and  C_15
REMARK    5  A    between atoms: C_15  and  C_17
REMARK    6  A    between atoms: C_17  and  N_18
REMARK                            x       y       z     vdW  Elec       q    Type
REMARK                         _______ _______ _______ _____ _____    ______ ____
ROOT
ATOM      1  C   UNL     1       3.726   3.181  -0.016  0.00  0.00    +0.197 C 
ENDROOT
BRANCH   1   2
ATOM      2  N   UNL     1       4.828   4.147  -0.022  0.00  0.00    -0.216 N 
ATOM      3  C   UNL     1       5.409   4.643   1.092  0.00  0.00    +0.251 C 
ATOM      4  O   UNL     1       5.129   4.384   2.243  0.00  0.00    -0.272 OA
ATOM      5  C   UNL     1       6.478   5.586   0.600  0.00  0.00    +0.139 C 
ATOM      6  C   UNL     1       7.855   5.149   1.077  0.00  0.00    +0.040 C 
ATOM      7  C   UNL     1       7.994   5.392   2.584  0.00  0.00    +0.008 C 
ATOM      8  C   UNL     1       8.031   6.906   2.841  0.00  0.00    +0.043 C 
ATOM      9  C   UNL     1       6.911   7.544   2.086  0.00  0.00    -0.005 A 
ATOM     10  C   UNL     1       6.181   6.999   1.073  0.00  0.00    -0.005 A 
ATOM     11  C   UNL     1       5.180   7.802   0.526  0.00  0.00    +0.014 A 
ATOM     12  C   UNL     1       4.978   9.052   1.003  0.00  0.00    +0.046 A 
ATOM     13  S   UNL     1       6.220   9.164   2.282  0.00  0.00    -0.101 S 
ATOM     14  N   UNL     1       6.379   5.516  -0.862  0.00  0.00    -0.281 N 
ATOM     15  C   UNL     1       5.387   4.644  -1.132  0.00  0.00    +0.310 C 
ATOM     16  O   UNL     1       5.038   4.346  -2.257  0.00  0.00    -0.252 OA
ATOM     17  H   UNL     1       6.921   5.998  -1.505  0.00  0.00    +0.152 HD
ENDBRANCH   1   2
BRANCH   1  18
ATOM     18  C   UNL     1       2.412   3.918  -0.001  0.00  0.00    +0.181 C 
ATOM     19  O   UNL     1       2.397   5.131   0.005  0.00  0.00    -0.290 OA
BRANCH  18  27
ATOM     20  N   UNL     1      -2.526   1.235   0.021  0.00  0.00    -0.207 N 
ATOM     21  C   UNL     1      -3.510   2.320   0.031  0.00  0.00    +0.136 C 
ATOM     22  C   UNL     1      -2.683   3.616   0.045  0.00  0.00    +0.058 C 
ATOM     23  C   UNL     1      -1.246   3.145   0.030  0.00  0.00    -0.023 A 
ATOM     24  C   UNL     1      -1.238   1.754   0.018  0.00  0.00    +0.054 A 
ATOM     25  C   UNL     1      -0.013   1.076   0.008  0.00  0.00    +0.026 A 
ATOM     26  C   UNL     1       1.161   1.768   0.001  0.00  0.00    +0.013 A 
ATOM     27  C   UNL     1       1.150   3.169   0.007  0.00  0.00    +0.019 A 
ATOM     28  C   UNL     1      -0.075   3.848   0.022  0.00  0.00    +0.017 A 
BRANCH  20  29
ATOM     29  S   UNL     1      -2.896  -0.379   0.015  0.00  0.00    +0.045 S 
ATOM     30  O   UNL     1      -4.184  -0.453  -0.582  0.00  0.00    -0.155 OA
ATOM     31  O   UNL     1      -1.777  -1.005  -0.597  0.00  0.00    -0.155 OA
BRANCH  29  33
ATOM     32  C   UNL     1      -3.332  -2.329   1.883  0.00  0.00    +0.030 C 
ATOM     33  C   UNL     1      -2.992  -0.842   1.766  0.00  0.00    +0.185 C 
ENDBRANCH  29  33
ENDBRANCH  20  29
ENDBRANCH  18  27
ENDBRANCH   1  18
TORSDOF 5
