REMARK  Name = ZINC31046994
REMARK  9 active torsions:
REMARK  status: ('A' for Active; 'I' for Inactive)
REMARK    1  A    between atoms: C_1  and  C_2
REMARK    2  A    between atoms: C_2  and  C_4
REMARK    3  A    between atoms: C_2  and  C_15
REMARK    4  A    between atoms: C_4  and  C_5
REMARK    5  A    between atoms: C_15  and  N_16
REMARK    6  A    between atoms: C_17  and  C_19
REMARK    7  A    between atoms: N_24  and  C_26
REMARK    8  A    between atoms: C_26  and  C_27
REMARK    9  A    between atoms: C_29  and  C_32
REMARK                            x       y       z     vdW  Elec       q    Type
REMARK                         _______ _______ _______ _____ _____    ______ ____
ROOT
ATOM      1  C   UNL     1       2.462   0.920  -0.017  0.00  0.00    +0.058 C 
ATOM      2  C   UNL     1       2.544   0.047  -1.272  0.00  0.00    +0.009 C 
ATOM      3  C   UNL     1       3.907  -0.650  -1.312  0.00  0.00    -0.018 C 
ATOM      4  C   UNL     1       5.015   0.405  -1.284  0.00  0.00    -0.078 C 
ATOM      5  N   UNL     1       4.893   1.213  -0.064  0.00  0.00    +0.386 N 
ATOM      6  C   UNL     1       3.612   1.929  -0.027  0.00  0.00    -0.065 C 
ATOM      7  H   UNL     1       4.919   0.528   0.795  0.00  0.00    -0.081 HD
ENDROOT
BRANCH   1   9
ATOM      8  N   UNL     1      -0.011   0.966   0.007  0.00  0.00    -0.315 N 
ATOM      9  C   UNL     1       1.147   1.655   0.000  0.00  0.00    +0.214 C 
ATOM     10  O   UNL     1       1.130   2.868   0.007  0.00  0.00    -0.276 OA
ATOM     11  H   UNL     1       0.004  -0.134   0.006  0.00  0.00    +0.149 HD
BRANCH   8  12
ATOM     12  C   UNL     1      -1.290   1.681   0.017  0.00  0.00    +0.107 C 
BRANCH  12  14
ATOM     13  C   UNL     1      -2.426  -0.116  -1.294  0.00  0.00    +0.009 C 
ATOM     14  C   UNL     1      -2.439   0.671   0.017  0.00  0.00    +0.007 C 
BRANCH  14  15
ATOM     15  C   UNL     1      -3.770   1.413   0.153  0.00  0.00    +0.040 C 
BRANCH  15  16
ATOM     16  C   UNL     1      -4.892   0.414   0.277  0.00  0.00    -0.039 A 
ATOM     17  C   UNL     1      -5.595   0.036  -0.826  0.00  0.00    +0.004 A 
ATOM     18  C   UNL     1      -6.632  -0.890  -0.732  0.00  0.00    +0.001 A 
ATOM     19  C   UNL     1      -6.979  -1.435   0.466  0.00  0.00    +0.008 A 
ATOM     20  C   UNL     1      -6.279  -1.065   1.627  0.00  0.00    -0.018 A 
ATOM     21  C   UNL     1      -5.221  -0.127   1.531  0.00  0.00    -0.015 A 
ATOM     22  C   UNL     1      -4.521   0.244   2.692  0.00  0.00    +0.009 A 
ATOM     23  C   UNL     1      -4.867  -0.302   3.890  0.00  0.00    +0.001 A 
ATOM     24  C   UNL     1      -5.908  -1.224   3.984  0.00  0.00    +0.001 A 
ATOM     25  C   UNL     1      -6.608  -1.607   2.881  0.00  0.00    +0.008 A 
ENDBRANCH  15  16
ENDBRANCH  14  15
ENDBRANCH  12  14
ENDBRANCH   8  12
ENDBRANCH   1   9
BRANCH   5  26
ATOM     26  C   UNL     1       6.021   2.145   0.064  0.00  0.00    +0.022 C 
BRANCH  26  27
ATOM     27  C   UNL     1       5.962   3.162  -1.047  0.00  0.00    +0.211 A 
ATOM     28  N   UNL     1       5.338   4.313  -1.015  0.00  0.00    -0.193 NA
ATOM     29  C   UNL     1       5.561   4.881  -2.222  0.00  0.00    +0.202 A 
ATOM     30  N   UNL     1       6.293   4.045  -2.912  0.00  0.00    -0.056 NA
ATOM     31  O   UNL     1       6.531   3.056  -2.252  0.00  0.00    -0.340 OA
BRANCH  29  32
ATOM     32  C   UNL     1       5.063   6.202  -2.680  0.00  0.00    +0.023 A 
ATOM     33  C   UNL     1       4.284   6.987  -1.833  0.00  0.00    +0.013 A 
ATOM     34  C   UNL     1       3.829   8.217  -2.261  0.00  0.00    +0.021 A 
ATOM     35  C   UNL     1       4.136   8.667  -3.534  0.00  0.00    +0.041 A 
ATOM     36  C   UNL     1       4.904   7.887  -4.381  0.00  0.00    +0.021 A 
ATOM     37  C   UNL     1       5.369   6.658  -3.960  0.00  0.00    +0.013 A 
ATOM     38 CL   UNL     1       3.554  10.212  -4.069  0.00  0.00    -0.084 Cl
ENDBRANCH  29  32
ENDBRANCH  26  27
ENDBRANCH   5  26
TORSDOF 8
