REMARK  Name = ZINC38169669
REMARK  7 active torsions:
REMARK  status: ('A' for Active; 'I' for Inactive)
REMARK    1  A    between atoms: C_1  and  C_2
REMARK    2  A    between atoms: C_7  and  C_9
REMARK    3  A    between atoms: C_7  and  C_10
REMARK    4  A    between atoms: N_11  and  C_13
REMARK    5  A    between atoms: C_13  and  N_14
REMARK    6  A    between atoms: N_22  and  N_23
REMARK    7  A    between atoms: C_24  and  C_26
REMARK                            x       y       z     vdW  Elec       q    Type
REMARK                         _______ _______ _______ _____ _____    ______ ____
ROOT
ATOM      1  N   UNL     1       1.335  -2.447  -3.369  0.00  0.00    -0.282 N 
ATOM      2  C   UNL     1       0.863  -2.575  -4.670  0.00  0.00    +0.044 A 
ATOM      3  C   UNL     1      -0.341  -3.055  -5.173  0.00  0.00    +0.024 A 
ATOM      4  C   UNL     1      -0.564  -3.076  -6.535  0.00  0.00    +0.002 A 
ATOM      5  C   UNL     1       0.403  -2.621  -7.415  0.00  0.00    +0.001 A 
ATOM      6  C   UNL     1       1.605  -2.140  -6.935  0.00  0.00    +0.012 A 
ATOM      7  C   UNL     1       1.839  -2.115  -5.564  0.00  0.00    +0.028 A 
ATOM      8  C   UNL     1       2.988  -1.675  -4.740  0.00  0.00    +0.153 C 
ATOM      9  N   UNL     1       4.125  -1.173  -5.157  0.00  0.00    -0.174 NA
ATOM     10  C   UNL     1       2.572  -1.921  -3.344  0.00  0.00    +0.270 C 
ATOM     11  O   UNL     1       3.232  -1.690  -2.349  0.00  0.00    -0.268 OA
ENDROOT
BRANCH   9  12
ATOM     12  N   UNL     1       5.112  -0.808  -4.232  0.00  0.00    -0.201 N 
ATOM     13  C   UNL     1       6.280  -0.292  -4.662  0.00  0.00    +0.282 C 
ATOM     14  O   UNL     1       6.478  -0.143  -5.851  0.00  0.00    -0.267 OA
ATOM     15  H   UNL     1       4.954  -0.927  -3.283  0.00  0.00    +0.178 HD
BRANCH  13  16
ATOM     16  C   UNL     1       7.323   0.095  -3.683  0.00  0.00    +0.128 A 
ATOM     17  C   UNL     1       8.532   0.636  -4.147  0.00  0.00    +0.034 A 
ATOM     18  C   UNL     1       9.501   0.996  -3.256  0.00  0.00    +0.012 A 
ATOM     19  C   UNL     1       9.247   0.808  -1.884  0.00  0.00    +0.000 A 
ATOM     20  C   UNL     1      10.199   1.157  -0.912  0.00  0.00    +0.010 A 
ATOM     21  C   UNL     1       9.919   0.962   0.406  0.00  0.00    +0.001 A 
ATOM     22  C   UNL     1       8.698   0.419   0.806  0.00  0.00    +0.002 A 
ATOM     23  C   UNL     1       7.753   0.069  -0.107  0.00  0.00    +0.028 A 
ATOM     24  C   UNL     1       8.004   0.256  -1.480  0.00  0.00    +0.072 A 
ATOM     25  N   UNL     1       7.093  -0.073  -2.395  0.00  0.00    -0.242 NA
ENDBRANCH  13  16
ENDBRANCH   9  12
BRANCH   1  26
ATOM     26  C   UNL     1       0.578  -2.831  -2.175  0.00  0.00    +0.039 C 
BRANCH  26  36
ATOM     27  C   UNL     1      -0.019   1.532   0.011  0.00  0.00    +0.009 C 
ATOM     28  C   UNL     1       0.002  -0.004   0.002  0.00  0.00    -0.048 C 
ATOM     29  C   UNL     1      -1.426  -0.615   0.004  0.00  0.00    -0.011 C 
ATOM     30  C   UNL     1      -1.101  -2.018  -0.581  0.00  0.00    -0.065 C 
ATOM     31  C   UNL     1      -0.397  -2.817   0.499  0.00  0.00    -0.009 C 
ATOM     32  C   UNL     1       0.663  -2.102   1.307  0.00  0.00    -0.036 C 
ATOM     33  C   UNL     1       0.727  -0.591   1.214  0.00  0.00    +0.011 C 
ATOM     34  C   UNL     1       0.412  -2.453   2.797  0.00  0.00    +0.011 C 
ATOM     35  C   UNL     1       2.047  -2.686   0.964  0.00  0.00    +0.011 C 
ATOM     36  N   UNL     1      -0.211  -1.695  -1.714  0.00  0.00    +0.393 N 
ATOM     37  C   UNL     1       0.647  -0.577  -1.281  0.00  0.00    -0.070 C 
ATOM     38  H   UNL     1      -0.789  -1.365  -2.490  0.00  0.00    -0.079 HD
ENDBRANCH  26  36
ENDBRANCH   1  26
TORSDOF 4
