REMARK  Name = ZINC02931002
REMARK  4 active torsions:
REMARK  status: ('A' for Active; 'I' for Inactive)
REMARK    1  A    between atoms: C_5  and  C_7
REMARK    2  A    between atoms: C_9  and  C_12
REMARK    3  A    between atoms: C_15  and  N_18
REMARK    4  A    between atoms: C_19  and  C_21
REMARK                            x       y       z     vdW  Elec       q    Type
REMARK                         _______ _______ _______ _____ _____    ______ ____
ROOT
ATOM      1  C   UNL     1       4.544   6.808   0.010  0.00  0.00    +0.023 A 
ATOM      2  C   UNL     1       3.782   7.963  -0.166  0.00  0.00    +0.013 A 
ATOM      3  C   UNL     1       4.394   9.197  -0.166  0.00  0.00    +0.024 A 
ATOM      4  C   UNL     1       5.771   9.292  -0.001  0.00  0.00    +0.034 A 
ATOM      5  C   UNL     1       6.534   8.142   0.170  0.00  0.00    +0.024 A 
ATOM      6  C   UNL     1       5.925   6.905   0.176  0.00  0.00    +0.013 A 
ENDROOT
BRANCH   1   9
ATOM      7  C   UNL     1       2.438   3.926  -0.063  0.00  0.00    +0.260 A 
ATOM      8  N   UNL     1       2.568   5.238  -0.138  0.00  0.00    -0.187 NA
ATOM      9  C   UNL     1       3.887   5.478   0.016  0.00  0.00    +0.202 A 
ATOM     10  N   UNL     1       4.480   4.321   0.166  0.00  0.00    -0.056 NA
ATOM     11  O   UNL     1       3.667   3.422   0.123  0.00  0.00    -0.332 OA
BRANCH   7  16
ATOM     12  C   UNL     1       0.018   1.057  -0.178  0.00  0.00    +0.001 A 
ATOM     13  C   UNL     1      -1.180   1.722  -0.377  0.00  0.00    +0.001 A 
ATOM     14  C   UNL     1      -1.206   3.101  -0.464  0.00  0.00    +0.016 A 
ATOM     15  C   UNL     1      -0.034   3.825  -0.365  0.00  0.00    +0.030 A 
ATOM     16  C   UNL     1       1.179   3.159  -0.171  0.00  0.00    +0.053 A 
ATOM     17  C   UNL     1       1.196   1.767  -0.078  0.00  0.00    +0.014 A 
ATOM     18 BR   UNL     1      -0.070   5.711  -0.493  0.00  0.00    -0.050 Br
ENDBRANCH   7  16
ENDBRANCH   1   9
BRANCH   4  19
ATOM     19  N   UNL     1       6.390  10.544  -0.006  0.00  0.00    -0.281 N 
ATOM     20  C   UNL     1       7.632  10.680  -0.510  0.00  0.00    +0.255 C 
ATOM     21  O   UNL     1       8.177   9.734  -1.048  0.00  0.00    -0.269 OA
ATOM     22  H   UNL     1       5.925  11.316   0.354  0.00  0.00    +0.155 HD
BRANCH  20  23
ATOM     23  C   UNL     1       8.326  11.967  -0.412  0.00  0.00    +0.074 A 
ATOM     24  C   UNL     1       9.591  12.314  -0.860  0.00  0.00    +0.021 A 
ATOM     25  C   UNL     1      10.002  13.604  -0.635  0.00  0.00    +0.008 A 
ATOM     26  C   UNL     1       9.166  14.465   0.003  0.00  0.00    +0.046 A 
ATOM     27  S   UNL     1       7.761  13.497   0.310  0.00  0.00    -0.092 S 
ENDBRANCH  20  23
ENDBRANCH   4  19
TORSDOF 4
