REMARK  Name = ZINC36027394
REMARK  11 active torsions:
REMARK  status: ('A' for Active; 'I' for Inactive)
REMARK    1  A    between atoms: C_1  and  C_2
REMARK    2  A    between atoms: C_2  and  C_3
REMARK    3  A    between atoms: C_3  and  C_5
REMARK    4  A    between atoms: C_3  and  C_6
REMARK    5  A    between atoms: C_6  and  N_7
REMARK    6  A    between atoms: C_10  and  C_30
REMARK    7  A    between atoms: N_16  and  S_19
REMARK    8  A    between atoms: S_19  and  C_22
REMARK    9  A    between atoms: C_25  and  O_28
REMARK   10  A    between atoms: O_28  and  C_29
REMARK   11  A    between atoms: C_30  and  C_31
REMARK                            x       y       z     vdW  Elec       q    Type
REMARK                         _______ _______ _______ _____ _____    ______ ____
ROOT
ATOM      1  N   UNL     1       1.469  -2.664  -2.261  0.00  0.00    -0.313 N 
ATOM      2  C   UNL     1       0.891  -2.809  -3.471  0.00  0.00    +0.201 C 
ATOM      3  O   UNL     1      -0.247  -2.502  -3.755  0.00  0.00    -0.277 OA
ATOM      4  C   UNL     1       1.903  -3.421  -4.416  0.00  0.00    +0.023 C 
ATOM      5  N   UNL     1       3.211  -3.227  -3.746  0.00  0.00    +0.401 N 
ATOM      6  C   UNL     1       2.850  -3.151  -2.317  0.00  0.00    +0.006 C 
ATOM      7  C   UNL     1       3.783  -2.178  -1.598  0.00  0.00    +0.023 C 
ATOM      8  C   UNL     1       3.378  -2.081  -0.124  0.00  0.00    +0.109 C 
ATOM      9  N   UNL     1       3.345  -3.434   0.448  0.00  0.00    -0.177 NA
ATOM     10  C   UNL     1       2.533  -4.463  -0.216  0.00  0.00    +0.109 C 
ATOM     11  C   UNL     1       2.946  -4.541  -1.690  0.00  0.00    +0.023 C 
ATOM     12  H   UNL     1       3.821  -4.012  -3.921  0.00  0.00    -0.082 HD
ATOM     13  H   UNL     1       3.642  -2.366  -4.048  0.00  0.00    -0.082 HD
ENDROOT
BRANCH   9  14
ATOM     14  S   UNL     1       4.207  -3.792   1.815  0.00  0.00    +0.061 S 
ATOM     15  O   UNL     1       4.435  -5.195   1.796  0.00  0.00    -0.153 OA
ATOM     16  O   UNL     1       5.267  -2.849   1.886  0.00  0.00    -0.153 OA
BRANCH  14  17
ATOM     17  C   UNL     1       3.156  -3.473   3.193  0.00  0.00    +0.106 A 
ATOM     18  C   UNL     1       3.141  -2.218   3.773  0.00  0.00    +0.032 A 
ATOM     19  C   UNL     1       2.318  -1.964   4.853  0.00  0.00    +0.047 A 
ATOM     20  C   UNL     1       1.506  -2.971   5.356  0.00  0.00    +0.120 A 
ATOM     21  C   UNL     1       1.523  -4.229   4.773  0.00  0.00    +0.047 A 
ATOM     22  C   UNL     1       2.344  -4.476   3.689  0.00  0.00    +0.032 A 
BRANCH  20  23
ATOM     23  O   UNL     1       0.696  -2.725   6.420  0.00  0.00    -0.495 OA
ATOM     24  C   UNL     1      -0.112  -3.808   6.884  0.00  0.00    +0.277 C 
ENDBRANCH  20  23
ENDBRANCH  14  17
ENDBRANCH   9  14
BRANCH   1  25
ATOM     25  C   UNL     1       0.818  -2.100  -1.076  0.00  0.00    +0.109 C 
BRANCH  25  26
ATOM     26  C   UNL     1       0.713  -0.581  -1.225  0.00  0.00    +0.003 C 
ATOM     27  C   UNL     1       2.089  -0.006  -1.571  0.00  0.00    +0.009 C 
BRANCH  26  29
ATOM     28  C   UNL     1      -0.003   1.530  -0.098  0.00  0.00    +0.004 C 
ATOM     29  C   UNL     1       0.222   0.028   0.089  0.00  0.00    +0.001 C 
ENDBRANCH  26  29
ENDBRANCH  25  26
ENDBRANCH   1  25
BRANCH   4  30
ATOM     30  C   UNL     1       1.617  -4.912  -4.610  0.00  0.00    +0.028 C 
BRANCH  30  31
ATOM     31  C   UNL     1       2.550  -5.471  -5.652  0.00  0.00    -0.048 A 
ATOM     32  C   UNL     1       2.185  -5.458  -6.986  0.00  0.00    +0.003 A 
ATOM     33  C   UNL     1       3.042  -5.971  -7.942  0.00  0.00    +0.000 A 
ATOM     34  C   UNL     1       4.264  -6.496  -7.564  0.00  0.00    +0.000 A 
ATOM     35  C   UNL     1       4.629  -6.508  -6.231  0.00  0.00    +0.000 A 
ATOM     36  C   UNL     1       3.775  -5.991  -5.276  0.00  0.00    +0.003 A 
ENDBRANCH  30  31
ENDBRANCH   4  30
TORSDOF 8
