REMARK  Name = ZINC05375577
REMARK  7 active torsions:
REMARK  status: ('A' for Active; 'I' for Inactive)
REMARK    1  A    between atoms: C_1  and  C_2
REMARK    2  A    between atoms: C_2  and  O_3
REMARK    3  A    between atoms: O_3  and  C_4
REMARK    4  A    between atoms: C_8  and  C_10
REMARK    5  A    between atoms: C_11  and  C_12
REMARK    6  A    between atoms: C_13  and  C_26
REMARK    7  A    between atoms: C_13  and  C_27
REMARK                            x       y       z     vdW  Elec       q    Type
REMARK                         _______ _______ _______ _____ _____    ______ ____
ROOT
ATOM      1  C   UNL     1       1.697   5.338   0.599  0.00  0.00    +0.130 C 
ATOM      2  C   UNL     1       0.267   5.591   0.087  0.00  0.00    +0.034 C 
ATOM      3  C   UNL     1      -0.301   4.179   0.058  0.00  0.00    -0.017 A 
ATOM      4  C   UNL     1      -1.595   3.711   0.053  0.00  0.00    +0.006 A 
ATOM      5  C   UNL     1      -1.843   2.350   0.058  0.00  0.00    +0.000 A 
ATOM      6  C   UNL     1      -0.786   1.458   0.077  0.00  0.00    +0.002 A 
ATOM      7  C   UNL     1       0.513   1.919   0.068  0.00  0.00    +0.023 A 
ATOM      8  C   UNL     1       0.775   3.286   0.053  0.00  0.00    +0.035 A 
ATOM      9  N   UNL     1       1.962   3.997   0.007  0.00  0.00    -0.304 N 
ATOM     10  C   UNL     1       3.144   3.416   0.612  0.00  0.00    +0.117 C 
ATOM     11  C   UNL     1       4.306   4.408   0.555  0.00  0.00    +0.115 C 
ATOM     12  C   UNL     1       3.943   5.704  -0.107  0.00  0.00    +0.216 C 
ATOM     13  O   UNL     1       4.795   6.311  -0.721  0.00  0.00    -0.276 OA
ATOM     14  N   UNL     1       2.687   6.217  -0.038  0.00  0.00    -0.290 N 
ATOM     15  C   UNL     1       0.287   6.202  -1.316  0.00  0.00    +0.020 C 
ATOM     16  C   UNL     1      -0.516   6.477   1.058  0.00  0.00    +0.020 C 
ATOM     17  H   UNL     1       2.461   7.095  -0.383  0.00  0.00    +0.151 HD
ENDROOT
BRANCH   1  19
ATOM     18  C   UNL     1       2.602   6.213   2.707  0.00  0.00    +0.007 C 
ATOM     19  C   UNL     1       1.800   5.348   2.103  0.00  0.00    +0.020 C 
BRANCH  18  24
ATOM     20  C   UNL     1       3.825   6.975   6.179  0.00  0.00    +0.121 A 
ATOM     21  C   UNL     1       3.169   5.997   6.914  0.00  0.00    +0.045 A 
ATOM     22  C   UNL     1       2.332   5.096   6.283  0.00  0.00    +0.004 A 
ATOM     23  C   UNL     1       2.140   5.165   4.918  0.00  0.00    +0.008 A 
ATOM     24  C   UNL     1       2.800   6.140   4.170  0.00  0.00    -0.022 A 
ATOM     25  C   UNL     1       3.644   7.049   4.808  0.00  0.00    +0.053 A 
BRANCH  20  26
ATOM     26  O   UNL     1       4.646   7.859   6.804  0.00  0.00    -0.492 OA
BRANCH  26  28
ATOM     27  C   UNL     1       5.743   8.798   8.742  0.00  0.00    +0.048 C 
ATOM     28  C   UNL     1       4.787   7.724   8.220  0.00  0.00    +0.225 C 
ENDBRANCH  26  28
ENDBRANCH  20  26
ENDBRANCH  18  24
ENDBRANCH   1  19
TORSDOF 4
