REMARK  Name = ZINC32952152
REMARK  4 active torsions:
REMARK  status: ('A' for Active; 'I' for Inactive)
REMARK    1  A    between atoms: N_15  and  C_16
REMARK    2  A    between atoms: C_20  and  C_22
REMARK    3  A    between atoms: N_24  and  C_25
REMARK    4  A    between atoms: C_25  and  C_26
REMARK                            x       y       z     vdW  Elec       q    Type
REMARK                         _______ _______ _______ _____ _____    ______ ____
ROOT
ATOM      1  C   UNL     1      -3.731  -7.951  -3.685  0.00  0.00    +0.001 A 
ATOM      2  C   UNL     1      -2.440  -8.167  -4.152  0.00  0.00    +0.002 A 
ATOM      3  C   UNL     1      -1.438  -7.280  -3.879  0.00  0.00    +0.028 A 
ATOM      4  C   UNL     1      -1.714  -6.138  -3.120  0.00  0.00    +0.079 A 
ATOM      5  C   UNL     1      -3.030  -5.918  -2.646  0.00  0.00    +0.067 A 
ATOM      6  C   UNL     1      -4.033  -6.845  -2.942  0.00  0.00    +0.015 A 
ATOM      7  C   UNL     1      -3.296  -4.719  -1.854  0.00  0.00    +0.283 A 
ATOM      8  O   UNL     1      -4.415  -4.494  -1.428  0.00  0.00    -0.265 OA
ATOM      9  N   UNL     1      -2.267  -3.853  -1.601  0.00  0.00    -0.169 N 
ATOM     10  C   UNL     1      -1.035  -4.172  -2.112  0.00  0.00    +0.201 A 
ATOM     11  N   UNL     1      -0.766  -5.233  -2.822  0.00  0.00    -0.221 NA
ATOM     12  S   UNL     1      -0.027  -2.809  -1.562  0.00  0.00    -0.013 S 
ATOM     13  C   UNL     1      -1.298  -1.914  -0.684  0.00  0.00    +0.186 A 
ATOM     14  N   UNL     1      -2.344  -2.671  -0.868  0.00  0.00    -0.139 NA
ATOM     15  N   UNL     1      -1.199  -0.720   0.009  0.00  0.00    -0.292 N 
ATOM     16  H   UNL     1      -2.103  -0.245   0.419  0.00  0.00    +0.154 HD
ENDROOT
BRANCH  15  17
ATOM     17  C   UNL     1       0.049  -0.116   0.189  0.00  0.00    +0.034 A 
ATOM     18  C   UNL     1       0.154   1.270   0.218  0.00  0.00    +0.023 A 
ATOM     19  C   UNL     1       1.386   1.871   0.394  0.00  0.00    +0.003 A 
ATOM     20  C   UNL     1       2.521   1.099   0.543  0.00  0.00    +0.013 A 
ATOM     21  C   UNL     1       2.426  -0.293   0.515  0.00  0.00    +0.038 A 
ATOM     22  C   UNL     1       1.183  -0.900   0.337  0.00  0.00    +0.036 A 
BRANCH  21  23
ATOM     23  C   UNL     1       3.641  -1.122   0.674  0.00  0.00    +0.244 C 
ATOM     24  O   UNL     1       3.556  -2.334   0.649  0.00  0.00    -0.270 OA
ATOM     25  N   UNL     1       4.841  -0.533   0.846  0.00  0.00    -0.307 N 
ATOM     26  H   UNL     1       4.917   0.564   0.868  0.00  0.00    +0.149 HD
BRANCH  25  27
ATOM     27  C   UNL     1       6.044  -1.354   1.003  0.00  0.00    +0.147 C 
BRANCH  27  28
ATOM     28  C   UNL     1       7.243  -0.459   1.179  0.00  0.00    +0.007 A 
ATOM     29  C   UNL     1       7.776   0.041   2.320  0.00  0.00    +0.013 A 
ATOM     30  C   UNL     1       8.895   0.848   2.241  0.00  0.00    +0.008 A 
ATOM     31  C   UNL     1       9.421   1.124   1.023  0.00  0.00    +0.045 A 
ATOM     32  S   UNL     1       8.328   0.224  -0.064  0.00  0.00    -0.100 S 
ENDBRANCH  27  28
ENDBRANCH  25  27
ENDBRANCH  21  23
ENDBRANCH  15  17
TORSDOF 4
