REMARK  Name = ZINC63372771
REMARK  10 active torsions:
REMARK  status: ('A' for Active; 'I' for Inactive)
REMARK    1  A    between atoms: C_1  and  C_2
REMARK    2  A    between atoms: C_2  and  C_3
REMARK    3  A    between atoms: C_3  and  O_4
REMARK    4  A    between atoms: O_4  and  C_5
REMARK    5  A    between atoms: C_8  and  C_14
REMARK    6  A    between atoms: C_10  and  O_11
REMARK    7  A    between atoms: O_11  and  C_12
REMARK    8  A    between atoms: C_12  and  C_13
REMARK    9  A    between atoms: N_20  and  C_35
REMARK   10  A    between atoms: C_23  and  C_34
REMARK                            x       y       z     vdW  Elec       q    Type
REMARK                         _______ _______ _______ _____ _____    ______ ____
ROOT
ATOM      1  C   UNL     1       3.279  -4.437  -5.644  0.00  0.00    +0.065 C 
ATOM      2  C   UNL     1       4.748  -3.983  -5.755  0.00  0.00    +0.123 C 
ATOM      3  N   UNL     1       4.770  -2.628  -6.312  0.00  0.00    -0.268 N 
ATOM      4  C   UNL     1       5.343  -1.530  -5.802  0.00  0.00    +0.317 C 
ATOM      5  O   UNL     1       6.054  -1.534  -4.816  0.00  0.00    -0.252 OA
ATOM      6  N   UNL     1       5.044  -0.428  -6.502  0.00  0.00    -0.192 N 
ATOM      7  C   UNL     1       4.289  -0.715  -7.583  0.00  0.00    +0.253 C 
ATOM      8  O   UNL     1       3.841   0.070  -8.391  0.00  0.00    -0.272 OA
ATOM      9  C   UNL     1       4.118  -2.218  -7.577  0.00  0.00    +0.137 C 
ATOM     10  C   UNL     1       2.633  -2.579  -7.446  0.00  0.00    +0.139 C 
ATOM     11  C   UNL     1       2.583  -4.008  -6.912  0.00  0.00    -0.027 C 
ATOM     12  C   UNL     1       1.854  -4.705  -7.779  0.00  0.00    -0.000 A 
ATOM     13  C   UNL     1       1.391  -6.101  -7.764  0.00  0.00    +0.010 A 
ATOM     14  C   UNL     1       0.665  -6.503  -8.841  0.00  0.00    +0.001 A 
ATOM     15  C   UNL     1       0.358  -5.664  -9.918  0.00  0.00    +0.002 A 
ATOM     16  C   UNL     1       0.737  -4.364 -10.010  0.00  0.00    +0.026 A 
ATOM     17  C   UNL     1       1.499  -3.825  -8.933  0.00  0.00    +0.043 A 
ATOM     18  N   UNL     1       1.969  -2.609  -8.750  0.00  0.00    -0.375 N 
ATOM     19  C   UNL     1       4.768  -2.873  -8.798  0.00  0.00    +0.044 C 
ATOM     20  H   UNL     1       1.893  -1.863  -9.366  0.00  0.00    +0.160 HD
ENDROOT
BRANCH   6  21
ATOM     21  C   UNL     1       5.464   0.864  -6.155  0.00  0.00    +0.046 A 
ATOM     22  C   UNL     1       5.209   1.930  -7.006  0.00  0.00    +0.027 A 
ATOM     23  C   UNL     1       5.622   3.202  -6.662  0.00  0.00    +0.040 A 
ATOM     24  C   UNL     1       6.292   3.414  -5.468  0.00  0.00    +0.124 A 
ATOM     25  C   UNL     1       6.548   2.352  -4.618  0.00  0.00    +0.040 A 
ATOM     26  C   UNL     1       6.130   1.080  -4.956  0.00  0.00    +0.027 A 
ATOM     27  F   UNL     1       6.696   4.659  -5.133  0.00  0.00    -0.205 F 
ENDBRANCH   6  21
BRANCH   1  31
ATOM     28  C   UNL     1       1.430  -2.573  -2.268  0.00  0.00    +0.162 A 
ATOM     29  C   UNL     1       1.974  -1.798  -3.279  0.00  0.00    +0.050 A 
ATOM     30  C   UNL     1       2.571  -2.404  -4.369  0.00  0.00    +0.008 A 
ATOM     31  C   UNL     1       2.627  -3.782  -4.454  0.00  0.00    -0.035 A 
ATOM     32  C   UNL     1       2.086  -4.562  -3.448  0.00  0.00    +0.053 A 
ATOM     33  C   UNL     1       1.491  -3.961  -2.350  0.00  0.00    +0.162 A 
BRANCH  28  34
ATOM     34  O   UNL     1       0.843  -1.979  -1.195  0.00  0.00    -0.488 OA
BRANCH  34  35
ATOM     35  C   UNL     1       0.817  -0.551  -1.178  0.00  0.00    +0.229 C 
BRANCH  35  37
ATOM     36  C   UNL     1       0.093   1.461   0.115  0.00  0.00    +0.007 C 
ATOM     37  C   UNL     1       0.121  -0.068   0.097  0.00  0.00    +0.038 C 
ENDBRANCH  35  37
ENDBRANCH  34  35
ENDBRANCH  28  34
BRANCH  33  38
ATOM     38  O   UNL     1       0.964  -4.726  -1.357  0.00  0.00    -0.489 OA
BRANCH  38  39
ATOM     39  C   UNL     1       1.062  -6.144  -1.509  0.00  0.00    +0.226 C 
ATOM     40  C   UNL     1       0.419  -6.832  -0.303  0.00  0.00    +0.048 C 
ENDBRANCH  38  39
ENDBRANCH  33  38
ENDBRANCH   1  31
TORSDOF 7
