REMARK  Name = ZINC09425183
REMARK  18 active torsions:
REMARK  status: ('A' for Active; 'I' for Inactive)
REMARK    1  A    between atoms: C_1  and  C_2
REMARK    2  A    between atoms: C_2  and  N_76
REMARK    3  A    between atoms: C_3  and  C_4
REMARK    4  A    between atoms: C_3  and  N_76
REMARK    5  A    between atoms: C_5  and  C_6
REMARK    6  A    between atoms: C_5  and  N_76
REMARK    7  A    between atoms: C_6  and  C_7
REMARK    8  A    between atoms: C_7  and  N_8
REMARK    9  A    between atoms: C_9  and  C_29
REMARK   10  A    between atoms: C_11  and  C_16
REMARK   11  A    between atoms: C_12  and  O_15
REMARK   12  A    between atoms: C_16  and  C_18
REMARK   13  A    between atoms: C_25  and  C_28
REMARK   14  A    between atoms: C_32  and  O_37
REMARK   15  A    between atoms: C_33  and  O_35
REMARK   16  A    between atoms: O_35  and  C_36
REMARK   17  A    between atoms: O_37  and  C_38
REMARK   18  A    between atoms: C_38  and  C_39
REMARK                            x       y       z     vdW  Elec       q    Type
REMARK                         _______ _______ _______ _____ _____    ______ ____
ROOT
ATOM      1  N   UNL     1      -5.107   1.148  -0.079  0.00  0.00    -0.284 N 
ATOM      2  C   UNL     1      -3.883   1.958  -0.077  0.00  0.00    +0.145 C 
ATOM      3  C   UNL     1      -4.333   3.400  -0.119  0.00  0.00    +0.071 C 
ATOM      4  C   UNL     1      -5.686   3.386  -0.150  0.00  0.00    +0.188 C 
ATOM      5  C   UNL     1      -6.158   1.986  -0.124  0.00  0.00    +0.282 C 
ATOM      6  O   UNL     1      -7.323   1.643  -0.143  0.00  0.00    -0.267 OA
ENDROOT
BRANCH   2   7
ATOM      7  C   UNL     1      -3.047   1.641  -1.290  0.00  0.00    -0.019 A 
ATOM      8  C   UNL     1      -3.631   1.614  -2.543  0.00  0.00    +0.009 A 
ATOM      9  C   UNL     1      -2.867   1.329  -3.659  0.00  0.00    +0.050 A 
ATOM     10  C   UNL     1      -1.514   1.059  -3.522  0.00  0.00    +0.162 A 
ATOM     11  C   UNL     1      -0.928   1.081  -2.261  0.00  0.00    +0.162 A 
ATOM     12  C   UNL     1      -1.698   1.373  -1.147  0.00  0.00    +0.055 A 
BRANCH  11  13
ATOM     13  O   UNL     1       0.399   0.816  -2.121  0.00  0.00    -0.491 OA
ATOM     14  C   UNL     1       0.910   0.746  -0.789  0.00  0.00    +0.277 C 
ENDBRANCH  11  13
BRANCH  10  15
ATOM     15  O   UNL     1      -0.762   0.772  -4.619  0.00  0.00    -0.489 OA
BRANCH  15  16
ATOM     16  C   UNL     1      -1.432   0.768  -5.881  0.00  0.00    +0.226 C 
ATOM     17  C   UNL     1      -0.431   0.428  -6.988  0.00  0.00    +0.048 C 
ENDBRANCH  15  16
ENDBRANCH  10  15
ENDBRANCH   2   7
BRANCH   4  18
ATOM     18  O   UNL     1      -6.480   4.481  -0.197  0.00  0.00    -0.502 OA
ATOM     19  H   UNL     1      -7.439   4.197  -0.212  0.00  0.00    +0.292 HD
ENDBRANCH   4  18
BRANCH   3  20
ATOM     20  C   UNL     1      -3.470   4.586  -0.131  0.00  0.00    +0.195 C 
ATOM     21  O   UNL     1      -3.423   5.294  -1.119  0.00  0.00    -0.287 OA
BRANCH  20  22
ATOM     22  C   UNL     1      -2.659   4.920   1.056  0.00  0.00    +0.023 A 
ATOM     23  C   UNL     1      -2.728   4.124   2.204  0.00  0.00    +0.015 A 
ATOM     24  C   UNL     1      -1.974   4.438   3.309  0.00  0.00    +0.046 A 
ATOM     25  C   UNL     1      -1.125   5.546   3.295  0.00  0.00    +0.124 A 
ATOM     26  C   UNL     1      -1.059   6.334   2.148  0.00  0.00    -0.002 A 
ATOM     27  C   UNL     1      -1.809   6.031   1.040  0.00  0.00    +0.019 A 
ATOM     28  C   UNL     1      -0.077   7.454   2.436  0.00  0.00    +0.083 C 
ATOM     29  C   UNL     1       0.044   7.384   3.977  0.00  0.00    +0.175 C 
ATOM     30  O   UNL     1      -0.292   6.016   4.262  0.00  0.00    -0.488 OA
ATOM     31  C   UNL     1      -0.952   8.336   4.642  0.00  0.00    +0.052 C 
ENDBRANCH  20  22
ENDBRANCH   3  20
BRANCH   1  32
ATOM     32  C   UNL     1      -5.171  -0.315  -0.042  0.00  0.00    +0.107 C 
BRANCH  32  33
ATOM     33  C   UNL     1      -5.162  -0.862  -1.471  0.00  0.00    +0.000 C 
BRANCH  33  34
ATOM     34  C   UNL     1      -5.229  -2.390  -1.433  0.00  0.00    -0.077 C 
BRANCH  34  35
ATOM     35  N   UNL     1      -5.188  -2.901  -2.820  0.00  0.00    +0.379 N 
ATOM     36  H   UNL     1      -5.792  -2.316  -3.409  0.00  0.00    -0.082 HD
BRANCH  35  38
ATOM     37  C   UNL     1      -3.826  -3.158  -4.835  0.00  0.00    -0.017 C 
ATOM     38  C   UNL     1      -3.805  -2.839  -3.339  0.00  0.00    -0.082 C 
ENDBRANCH  35  38
BRANCH  35  39
ATOM     39  C   UNL     1      -5.681  -4.293  -2.860  0.00  0.00    -0.082 C 
ATOM     40  C   UNL     1      -7.208  -4.275  -2.768  0.00  0.00    -0.017 C 
ENDBRANCH  35  39
ENDBRANCH  34  35
ENDBRANCH  33  34
ENDBRANCH  32  33
ENDBRANCH   1  32
TORSDOF 13
