REMARK  Name = ZINC35157277
REMARK  14 active torsions:
REMARK  status: ('A' for Active; 'I' for Inactive)
REMARK    1  A    between atoms: C_1  and  C_2
REMARK    2  A    between atoms: C_7  and  C_8
REMARK    3  A    between atoms: C_8  and  N_9
REMARK    4  A    between atoms: C_19  and  S_22
REMARK    5  A    between atoms: S_22  and  C_23
REMARK    6  A    between atoms: C_23  and  C_24
REMARK    7  A    between atoms: C_24  and  C_25
REMARK    8  A    between atoms: C_25  and  C_26
REMARK    9  A    between atoms: C_26  and  C_27
REMARK   10  A    between atoms: N_29  and  C_30
REMARK   11  A    between atoms: C_30  and  C_31
REMARK   12  A    between atoms: C_31  and  N_32
REMARK   13  A    between atoms: N_32  and  C_33
REMARK   14  A    between atoms: N_32  and  C_34
REMARK                            x       y       z     vdW  Elec       q    Type
REMARK                         _______ _______ _______ _____ _____    ______ ____
ROOT
ATOM      1  N   UNL     1      -1.294   0.750   2.672  0.00  0.00    -0.319 N 
ATOM      2  C   UNL     1      -1.807   1.931   2.160  0.00  0.00    +0.053 A 
ATOM      3  C   UNL     1      -1.269   2.897   1.316  0.00  0.00    +0.026 A 
ATOM      4  C   UNL     1      -2.019   3.997   0.959  0.00  0.00    +0.002 A 
ATOM      5  C   UNL     1      -3.312   4.153   1.434  0.00  0.00    +0.001 A 
ATOM      6  C   UNL     1      -3.863   3.207   2.272  0.00  0.00    +0.012 A 
ATOM      7  C   UNL     1      -3.116   2.091   2.640  0.00  0.00    +0.029 A 
ATOM      8  C   UNL     1      -3.391   0.922   3.494  0.00  0.00    +0.138 A 
ATOM      9  C   UNL     1      -2.225   0.128   3.466  0.00  0.00    +0.165 A 
ATOM     10  N   UNL     1      -2.217  -1.004   4.163  0.00  0.00    -0.201 NA
ATOM     11  C   UNL     1      -3.296  -1.350   4.852  0.00  0.00    +0.211 A 
ATOM     12  N   UNL     1      -4.385  -0.588   4.858  0.00  0.00    -0.122 NA
ATOM     13  N   UNL     1      -4.434   0.523   4.206  0.00  0.00    -0.143 NA
ENDROOT
BRANCH   1  14
ATOM     14  C   UNL     1       0.050   0.235   2.400  0.00  0.00    +0.159 C 
BRANCH  14  21
ATOM     15  C   UNL     1       2.868  -0.376   2.209  0.00  0.00    +0.044 C 
ATOM     16  C   UNL     1       2.348   0.428   3.373  0.00  0.00    -0.046 A 
ATOM     17  C   UNL     1       3.220   0.879   4.346  0.00  0.00    +0.004 A 
ATOM     18  C   UNL     1       2.743   1.617   5.413  0.00  0.00    +0.000 A 
ATOM     19  C   UNL     1       1.394   1.905   5.507  0.00  0.00    +0.000 A 
ATOM     20  C   UNL     1       0.522   1.455   4.534  0.00  0.00    +0.005 A 
ATOM     21  C   UNL     1       1.000   0.721   3.464  0.00  0.00    -0.025 A 
ENDBRANCH  14  21
ENDBRANCH   1  14
BRANCH  11  22
ATOM     22  S   UNL     1      -3.288  -2.851   5.775  0.00  0.00    -0.084 S 
BRANCH  22  23
ATOM     23  C   UNL     1      -4.934  -2.909   6.535  0.00  0.00    +0.077 C 
BRANCH  23  24
ATOM     24  C   UNL     1      -5.063  -4.179   7.377  0.00  0.00    +0.012 C 
BRANCH  24  25
ATOM     25  C   UNL     1      -6.451  -4.228   8.017  0.00  0.00    +0.010 C 
BRANCH  25  26
ATOM     26  C   UNL     1      -6.580  -5.499   8.860  0.00  0.00    +0.096 C 
BRANCH  26  27
ATOM     27  C   UNL     1      -7.948  -5.547   9.491  0.00  0.00    +0.213 C 
ATOM     28  O   UNL     1      -8.741  -4.652   9.287  0.00  0.00    -0.276 OA
ATOM     29  N   UNL     1      -8.289  -6.583  10.281  0.00  0.00    -0.317 N 
ATOM     30  H   UNL     1      -7.655  -7.298  10.444  0.00  0.00    +0.149 HD
BRANCH  29  31
ATOM     31  C   UNL     1      -9.619  -6.630  10.895  0.00  0.00    +0.085 C 
BRANCH  31  32
ATOM     32  C   UNL     1      -9.748  -7.901  11.737  0.00  0.00    -0.061 C 
BRANCH  32  33
ATOM     33  N   UNL     1     -11.081  -7.947  12.352  0.00  0.00    +0.377 N 
ATOM     34  C   UNL     1     -11.248  -9.222  13.062  0.00  0.00    -0.097 C 
ATOM     35  C   UNL     1     -11.221  -6.836  13.302  0.00  0.00    -0.097 C 
ATOM     36  H   UNL     1     -11.786  -7.867  11.634  0.00  0.00    -0.083 HD
ENDBRANCH  32  33
ENDBRANCH  31  32
ENDBRANCH  29  31
ENDBRANCH  26  27
ENDBRANCH  25  26
ENDBRANCH  24  25
ENDBRANCH  23  24
ENDBRANCH  22  23
ENDBRANCH  11  22
TORSDOF 11
