REMARK  Name = ZINC16790594
REMARK  10 active torsions:
REMARK  status: ('A' for Active; 'I' for Inactive)
REMARK    1  A    between atoms: C_1  and  C_2
REMARK    2  A    between atoms: C_5  and  C_8
REMARK    3  A    between atoms: N_10  and  N_11
REMARK    4  A    between atoms: C_15  and  C_16
REMARK    5  A    between atoms: C_19  and  O_24
REMARK    6  A    between atoms: C_20  and  O_22
REMARK    7  A    between atoms: O_22  and  C_23
REMARK    8  A    between atoms: O_24  and  C_25
REMARK    9  A    between atoms: C_25  and  C_27
REMARK   10  A    between atoms: C_30  and  C_33
REMARK                            x       y       z     vdW  Elec       q    Type
REMARK                         _______ _______ _______ _____ _____    ______ ____
ROOT
ATOM      1  N   UNL     1       4.772   0.381   0.868  0.00  0.00    -0.169 N 
ATOM      2  C   UNL     1       3.726   0.417   1.677  0.00  0.00    +0.275 C 
ATOM      3  O   UNL     1       2.852   1.255   1.554  0.00  0.00    -0.267 OA
ATOM      4  C   UNL     1       3.674  -0.609   2.737  0.00  0.00    +0.079 C 
ATOM      5  C   UNL     1       2.737  -0.814   3.698  0.00  0.00    +0.028 C 
ATOM      6  S   UNL     1       5.188  -1.503   2.412  0.00  0.00    -0.059 S 
ATOM      7  C   UNL     1       5.739  -0.548   1.008  0.00  0.00    +0.138 C 
ATOM      8  S   UNL     1       7.156  -0.757   0.070  0.00  0.00    -0.026 S 
ENDROOT
BRANCH   5   9
ATOM      9  C   UNL     1       1.483  -0.051   3.675  0.00  0.00    -0.020 A 
ATOM     10  C   UNL     1       0.918   0.408   4.871  0.00  0.00    +0.012 A 
ATOM     11  C   UNL     1      -0.260   1.123   4.846  0.00  0.00    +0.051 A 
ATOM     12  C   UNL     1      -0.889   1.389   3.637  0.00  0.00    +0.173 A 
ATOM     13  C   UNL     1      -0.333   0.936   2.441  0.00  0.00    +0.163 A 
ATOM     14  C   UNL     1       0.845   0.214   2.457  0.00  0.00    +0.057 A 
BRANCH  13  15
ATOM     15  O   UNL     1      -0.953   1.200   1.260  0.00  0.00    -0.491 OA
ATOM     16  C   UNL     1      -0.327   0.705   0.075  0.00  0.00    +0.277 C 
ENDBRANCH  13  15
BRANCH  12  17
ATOM     17  O   UNL     1      -2.050   2.095   3.619  0.00  0.00    -0.419 OA
BRANCH  17  18
ATOM     18  C   UNL     1      -3.193   1.389   3.518  0.00  0.00    +0.345 C 
ATOM     19  O   UNL     1      -3.152   0.186   3.357  0.00  0.00    -0.245 OA
BRANCH  18  20
ATOM     20  C   UNL     1      -4.496   2.079   3.603  0.00  0.00    +0.059 A 
ATOM     21  C   UNL     1      -4.548   3.461   3.794  0.00  0.00    +0.015 A 
ATOM     22  C   UNL     1      -5.768   4.099   3.868  0.00  0.00    +0.004 A 
ATOM     23  C   UNL     1      -6.941   3.371   3.764  0.00  0.00    -0.050 A 
ATOM     24  C   UNL     1      -6.897   2.000   3.580  0.00  0.00    +0.004 A 
ATOM     25  C   UNL     1      -5.683   1.350   3.499  0.00  0.00    +0.015 A 
ATOM     26  C   UNL     1      -8.270   4.074   3.852  0.00  0.00    +0.044 C 
ENDBRANCH  18  20
ENDBRANCH  17  18
ENDBRANCH  12  17
ENDBRANCH   5   9
BRANCH   1  29
ATOM     27  C   UNL     1       5.750   2.350  -0.044  0.00  0.00    +0.261 C 
ATOM     28  O   UNL     1       6.446   2.448   0.947  0.00  0.00    -0.269 OA
ATOM     29  N   UNL     1       4.877   1.330  -0.158  0.00  0.00    -0.222 N 
ATOM     30  H   UNL     1       4.322   1.252  -0.949  0.00  0.00    +0.174 HD
BRANCH  27  35
ATOM     31  C   UNL     1       6.184   6.247  -4.257  0.00  0.00    +0.044 C 
ATOM     32  C   UNL     1       6.071   5.226  -3.154  0.00  0.00    -0.050 A 
ATOM     33  C   UNL     1       6.864   5.340  -2.026  0.00  0.00    +0.004 A 
ATOM     34  C   UNL     1       6.765   4.410  -1.012  0.00  0.00    +0.013 A 
ATOM     35  C   UNL     1       5.862   3.351  -1.127  0.00  0.00    +0.038 A 
ATOM     36  C   UNL     1       5.068   3.239  -2.270  0.00  0.00    +0.013 A 
ATOM     37  C   UNL     1       5.173   4.180  -3.273  0.00  0.00    +0.004 A 
ENDBRANCH  27  35
ENDBRANCH   1  29
TORSDOF 7
