REMARK  Name = ZINC27694907
REMARK  20 active torsions:
REMARK  status: ('A' for Active; 'I' for Inactive)
REMARK    1  A    between atoms: C_1  and  C_2
REMARK    2  A    between atoms: C_2  and  C_4
REMARK    3  A    between atoms: C_2  and  C_14
REMARK    4  A    between atoms: C_7  and  C_10
REMARK    5  A    between atoms: C_10  and  C_11
REMARK    6  A    between atoms: C_11  and  C_12
REMARK    7  A    between atoms: C_11  and  C_13
REMARK    8  A    between atoms: N_22  and  C_23
REMARK    9  A    between atoms: C_23  and  C_24
REMARK   10  A    between atoms: C_24  and  C_26
REMARK   11  A    between atoms: C_24  and  O_36
REMARK   12  A    between atoms: C_26  and  N_27
REMARK   13  A    between atoms: N_27  and  C_28
REMARK   14  A    between atoms: N_27  and  C_32
REMARK   15  A    between atoms: C_28  and  C_29
REMARK   16  A    between atoms: C_29  and  C_30
REMARK   17  A    between atoms: C_29  and  C_31
REMARK   18  A    between atoms: C_32  and  C_33
REMARK   19  A    between atoms: C_33  and  C_34
REMARK   20  A    between atoms: C_33  and  C_35
REMARK                            x       y       z     vdW  Elec       q    Type
REMARK                         _______ _______ _______ _____ _____    ______ ____
ROOT
ATOM      1  C   UNL     1       0.609  -0.677   1.135  0.00  0.00    +0.118 A 
ATOM      2  N   UNL     1       0.228  -0.621   2.377  0.00  0.00    -0.232 NA
ATOM      3  C   UNL     1       1.051  -1.384   3.142  0.00  0.00    +0.089 A 
ATOM      4  C   UNL     1       1.102  -1.676   4.507  0.00  0.00    +0.030 A 
ATOM      5  C   UNL     1       2.077  -2.502   4.991  0.00  0.00    +0.002 A 
ATOM      6  C   UNL     1       3.022  -3.056   4.139  0.00  0.00    +0.002 A 
ATOM      7  C   UNL     1       2.991  -2.782   2.788  0.00  0.00    +0.028 A 
ATOM      8  C   UNL     1       2.007  -1.945   2.279  0.00  0.00    +0.069 A 
ATOM      9  N   UNL     1       1.697  -1.484   1.015  0.00  0.00    -0.325 N 
ENDROOT
BRANCH   1  11
ATOM     10  C   UNL     1      -0.021   1.550   0.245  0.00  0.00    +0.020 C 
ATOM     11  C   UNL     1      -0.063   0.042  -0.007  0.00  0.00    +0.082 C 
BRANCH  11  12
ATOM     12  C   UNL     1      -1.496  -0.411  -0.112  0.00  0.00    -0.037 A 
ATOM     13  C   UNL     1      -2.360  -0.221   0.950  0.00  0.00    +0.004 A 
ATOM     14  C   UNL     1      -3.675  -0.636   0.854  0.00  0.00    +0.004 A 
ATOM     15  C   UNL     1      -4.127  -1.240  -0.305  0.00  0.00    -0.047 A 
ATOM     16  C   UNL     1      -3.263  -1.429  -1.367  0.00  0.00    +0.004 A 
ATOM     17  C   UNL     1      -1.949  -1.010  -1.273  0.00  0.00    +0.004 A 
BRANCH  15  18
ATOM     18  C   UNL     1      -5.560  -1.693  -0.409  0.00  0.00    +0.038 C 
BRANCH  18  19
ATOM     19  C   UNL     1      -6.415  -0.556  -0.974  0.00  0.00    -0.013 C 
ATOM     20  C   UNL     1      -5.979  -0.256  -2.409  0.00  0.00    +0.007 C 
ATOM     21  C   UNL     1      -7.887  -0.972  -0.964  0.00  0.00    +0.007 C 
ENDBRANCH  18  19
ENDBRANCH  15  18
ENDBRANCH  11  12
ENDBRANCH   1  11
BRANCH   9  22
ATOM     22  C   UNL     1       2.411  -1.802  -0.225  0.00  0.00    +0.153 C 
BRANCH  22  23
ATOM     23  C   UNL     1       3.524  -0.776  -0.450  0.00  0.00    +0.118 C 
BRANCH  23  24
ATOM     24  O   UNL     1       2.947   0.513  -0.665  0.00  0.00    -0.392 OA
ATOM     25  H   UNL     1       2.359   0.558  -1.431  0.00  0.00    +0.210 HD
ENDBRANCH  23  24
BRANCH  23  26
ATOM     26  C   UNL     1       4.347  -1.178  -1.675  0.00  0.00    -0.045 C 
BRANCH  26  27
ATOM     27  N   UNL     1       5.487  -0.262  -1.821  0.00  0.00    +0.382 N 
ATOM     28  H   UNL     1       5.151   0.689  -1.856  0.00  0.00    -0.082 HD
BRANCH  27  29
ATOM     29  C   UNL     1       6.392  -0.420  -0.675  0.00  0.00    -0.076 C 
BRANCH  29  30
ATOM     30  C   UNL     1       7.503   0.630  -0.754  0.00  0.00    -0.034 C 
ATOM     31  C   UNL     1       6.892   2.028  -0.642  0.00  0.00    +0.005 C 
ATOM     32  C   UNL     1       8.493   0.412   0.392  0.00  0.00    +0.005 C 
ENDBRANCH  29  30
ENDBRANCH  27  29
BRANCH  27  33
ATOM     33  C   UNL     1       6.208  -0.572  -3.062  0.00  0.00    -0.076 C 
BRANCH  33  34
ATOM     34  C   UNL     1       5.309  -0.273  -4.263  0.00  0.00    -0.034 C 
ATOM     35  C   UNL     1       5.031   1.230  -4.331  0.00  0.00    +0.005 C 
ATOM     36  C   UNL     1       6.010  -0.720  -5.548  0.00  0.00    +0.005 C 
ENDBRANCH  33  34
ENDBRANCH  27  33
ENDBRANCH  26  27
ENDBRANCH  23  26
ENDBRANCH  22  23
ENDBRANCH   9  22
TORSDOF 13
