REMARK  Name = ZINC36585902
REMARK  17 active torsions:
REMARK  status: ('A' for Active; 'I' for Inactive)
REMARK    1  A    between atoms: C_1  and  C_2
REMARK    2  A    between atoms: C_2  and  C_3
REMARK    3  A    between atoms: C_3  and  C_4
REMARK    4  A    between atoms: C_3  and  C_6
REMARK    5  A    between atoms: C_4  and  C_5
REMARK    6  A    between atoms: C_6  and  C_8
REMARK    7  A    between atoms: C_6  and  N_22
REMARK    8  A    between atoms: N_10  and  C_11
REMARK    9  A    between atoms: C_11  and  S_12
REMARK   10  A    between atoms: S_12  and  C_15
REMARK   11  A    between atoms: C_18  and  C_21
REMARK   12  A    between atoms: N_22  and  C_35
REMARK   13  A    between atoms: C_23  and  C_25
REMARK   14  A    between atoms: C_27  and  N_32
REMARK   15  A    between atoms: C_35  and  C_36
REMARK   16  A    between atoms: C_35  and  C_37
REMARK   17  A    between atoms: C_35  and  C_38
REMARK                            x       y       z     vdW  Elec       q    Type
REMARK                         _______ _______ _______ _____ _____    ______ ____
ROOT
ATOM      1  C   UNL     1      -1.031  -0.692   3.844  0.00  0.00    +0.166 C 
ENDROOT
BRANCH   1   2
ATOM      2  C   UNL     1      -2.502  -1.023   3.844  0.00  0.00    +0.235 C 
ATOM      3  O   UNL     1      -3.322  -0.140   3.711  0.00  0.00    -0.274 OA
ATOM      4  N   UNL     1      -2.905  -2.301   3.993  0.00  0.00    -0.295 N 
ATOM      5  H   UNL     1      -2.249  -3.015   4.027  0.00  0.00    +0.150 HD
BRANCH   4   6
ATOM      6  C   UNL     1      -4.332  -2.610   4.102  0.00  0.00    +0.278 C 
BRANCH   6   7
ATOM      7  S   UNL     1      -4.962  -3.139   2.485  0.00  0.00    +0.013 S 
ATOM      8  O   UNL     1      -6.383  -3.177   2.502  0.00  0.00    -0.168 OA
ATOM      9  O   UNL     1      -4.268  -2.465   1.445  0.00  0.00    -0.168 OA
BRANCH   7  10
ATOM     10  C   UNL     1      -4.470  -4.824   2.336  0.00  0.00    +0.090 A 
ATOM     11  C   UNL     1      -3.297  -5.146   1.679  0.00  0.00    +0.027 A 
ATOM     12  C   UNL     1      -2.910  -6.468   1.562  0.00  0.00    +0.005 A 
ATOM     13  C   UNL     1      -3.696  -7.468   2.103  0.00  0.00    -0.050 A 
ATOM     14  C   UNL     1      -4.869  -7.147   2.761  0.00  0.00    +0.005 A 
ATOM     15  C   UNL     1      -5.253  -5.824   2.882  0.00  0.00    +0.027 A 
ATOM     16  C   UNL     1      -3.276  -8.910   1.975  0.00  0.00    +0.044 C 
ENDBRANCH   7  10
ENDBRANCH   6   7
ENDBRANCH   4   6
ENDBRANCH   1   2
BRANCH   1  17
ATOM     17  N   UNL     1      -0.858   0.762   3.878  0.00  0.00    -0.281 N 
ATOM     18  C   UNL     1      -0.115   1.329   4.849  0.00  0.00    +0.251 C 
ATOM     19  O   UNL     1       0.393   0.637   5.709  0.00  0.00    -0.270 OA
BRANCH  18  20
ATOM     20  C   UNL     1       0.082   2.792   4.867  0.00  0.00    +0.086 A 
ATOM     21  C   UNL     1      -0.581   3.602   3.943  0.00  0.00    +0.049 A 
ATOM     22  C   UNL     1      -0.393   4.966   3.965  0.00  0.00    +0.127 A 
ATOM     23  C   UNL     1       0.453   5.540   4.901  0.00  0.00    +0.036 A 
ATOM     24  C   UNL     1       1.115   4.751   5.821  0.00  0.00    +0.054 A 
ATOM     25  C   UNL     1       0.932   3.376   5.816  0.00  0.00    +0.191 A 
ATOM     26  O   UNL     1       1.577   2.600   6.723  0.00  0.00    -0.287 OA
BRANCH  22  27
ATOM     27  N   UNL     1      -1.096   5.824   2.984  0.00  0.00    +0.056 N 
ATOM     28  O   UNL     1      -1.762   5.321   2.110  0.00  0.00    -0.126 OA
ATOM     29  O   UNL     1      -1.004   7.027   3.058  0.00  0.00    -0.126 OA
ENDBRANCH  22  27
ENDBRANCH  18  20
BRANCH  17  30
ATOM     30  C   UNL     1      -1.493   1.599   2.857  0.00  0.00    +0.030 C 
ATOM     31  C   UNL     1      -2.193   0.708   1.830  0.00  0.00    +0.031 C 
ATOM     32  C   UNL     1      -2.521   2.519   3.519  0.00  0.00    +0.031 C 
ATOM     33  C   UNL     1      -0.428   2.446   2.157  0.00  0.00    +0.031 C 
ENDBRANCH  17  30
ENDBRANCH   1  17
BRANCH   1  34
ATOM     34  C   UNL     1      -0.383  -1.253   2.577  0.00  0.00    +0.018 C 
BRANCH  34  36
ATOM     35  C   UNL     1       1.194   0.655   2.238  0.00  0.00    +0.004 C 
ATOM     36  C   UNL     1       1.091  -0.842   2.534  0.00  0.00    +0.002 C 
ENDBRANCH  34  36
BRANCH  34  37
ATOM     37  C   UNL     1      -0.486  -2.780   2.584  0.00  0.00    +0.002 C 
ATOM     38  C   UNL     1      -1.848  -3.201   2.029  0.00  0.00    +0.004 C 
ENDBRANCH  34  37
ENDBRANCH   1  34
TORSDOF 11
