REMARK  Name = ZINC35247001
REMARK  13 active torsions:
REMARK  status: ('A' for Active; 'I' for Inactive)
REMARK    1  A    between atoms: C_1  and  C_2
REMARK    2  A    between atoms: C_2  and  C_3
REMARK    3  A    between atoms: C_2  and  C_4
REMARK    4  A    between atoms: C_2  and  C_5
REMARK    5  A    between atoms: C_8  and  C_11
REMARK    6  A    between atoms: C_11  and  N_12
REMARK    7  A    between atoms: N_12  and  C_13
REMARK    8  A    between atoms: N_12  and  C_20
REMARK    9  A    between atoms: C_13  and  C_14
REMARK   10  A    between atoms: C_20  and  C_21
REMARK   11  A    between atoms: C_24  and  C_26
REMARK   12  A    between atoms: N_28  and  C_29
REMARK   13  A    between atoms: C_29  and  C_30
REMARK                            x       y       z     vdW  Elec       q    Type
REMARK                         _______ _______ _______ _____ _____    ______ ____
ROOT
ATOM      1  N   UNL     1       2.290  -0.813  -5.835  0.00  0.00    +0.390 N 
ATOM      2  H   UNL     1       1.392  -0.399  -6.038  0.00  0.00    -0.080 HD
ENDROOT
BRANCH   1   3
ATOM      3  C   UNL     1       2.166  -1.708  -4.677  0.00  0.00    -0.042 C 
BRANCH   3   7
ATOM      4  C   UNL     1       0.503   0.445  -1.384  0.00  0.00    -0.042 A 
ATOM      5  C   UNL     1      -0.329  -0.209  -2.272  0.00  0.00    +0.004 A 
ATOM      6  C   UNL     1       0.209  -0.906  -3.338  0.00  0.00    +0.002 A 
ATOM      7  C   UNL     1       1.579  -0.948  -3.516  0.00  0.00    -0.064 A 
ATOM      8  C   UNL     1       2.412  -0.292  -2.628  0.00  0.00    +0.002 A 
ATOM      9  C   UNL     1       1.873   0.408  -1.564  0.00  0.00    +0.004 A 
BRANCH   4  11
ATOM     10  C   UNL     1       0.317   2.678  -0.321  0.00  0.00    +0.015 C 
ATOM     11  C   UNL     1      -0.083   1.205  -0.222  0.00  0.00    -0.013 C 
ATOM     12  C   UNL     1       0.447   0.620   1.089  0.00  0.00    +0.015 C 
ATOM     13  C   UNL     1      -1.608   1.087  -0.253  0.00  0.00    +0.015 C 
ENDBRANCH   4  11
ENDBRANCH   3   7
ENDBRANCH   1   3
BRANCH   1  14
ATOM     14  C   UNL     1       3.262   0.246  -5.534  0.00  0.00    -0.042 C 
BRANCH  14  15
ATOM     15  C   UNL     1       3.292   1.238  -6.668  0.00  0.00    -0.064 A 
ATOM     16  C   UNL     1       4.243   1.121  -7.664  0.00  0.00    +0.002 A 
ATOM     17  C   UNL     1       4.271   2.031  -8.704  0.00  0.00    +0.000 A 
ATOM     18  C   UNL     1       3.346   3.057  -8.749  0.00  0.00    +0.000 A 
ATOM     19  C   UNL     1       2.394   3.174  -7.754  0.00  0.00    +0.000 A 
ATOM     20  C   UNL     1       2.364   2.261  -6.716  0.00  0.00    +0.002 A 
ENDBRANCH  14  15
ENDBRANCH   1  14
BRANCH   1  21
ATOM     21  C   UNL     1       2.748  -1.581  -7.001  0.00  0.00    -0.002 C 
BRANCH  21  22
ATOM     22  C   UNL     1       1.694  -2.587  -7.386  0.00  0.00    +0.090 A 
ATOM     23  C   UNL     1       0.624  -2.343  -8.174  0.00  0.00    +0.043 A 
ATOM     24  C   UNL     1      -0.096  -3.543  -8.277  0.00  0.00    +0.055 A 
ATOM     25  C   UNL     1       0.580  -4.471  -7.537  0.00  0.00    +0.189 A 
ATOM     26  O   UNL     1       1.667  -3.872  -7.008  0.00  0.00    -0.457 OA
BRANCH  25  27
ATOM     27  C   UNL     1       0.194  -5.874  -7.353  0.00  0.00    +0.280 C 
ATOM     28  O   UNL     1      -0.812  -6.303  -7.887  0.00  0.00    -0.267 OA
ATOM     29  N   UNL     1       0.953  -6.687  -6.593  0.00  0.00    -0.305 N 
ATOM     30  H   UNL     1       1.755  -6.345  -6.168  0.00  0.00    +0.149 HD
BRANCH  29  31
ATOM     31  C   UNL     1       0.568  -8.089  -6.409  0.00  0.00    +0.140 C 
BRANCH  31  32
ATOM     32  C   UNL     1       1.575  -8.775  -5.524  0.00  0.00    -0.030 A 
ATOM     33  C   UNL     1       2.682  -9.388  -6.082  0.00  0.00    +0.005 A 
ATOM     34  C   UNL     1       3.606 -10.018  -5.270  0.00  0.00    +0.000 A 
ATOM     35  C   UNL     1       3.425 -10.034  -3.900  0.00  0.00    +0.000 A 
ATOM     36  C   UNL     1       2.319  -9.421  -3.341  0.00  0.00    +0.000 A 
ATOM     37  C   UNL     1       1.397  -8.787  -4.153  0.00  0.00    +0.005 A 
ENDBRANCH  31  32
ENDBRANCH  29  31
ENDBRANCH  25  27
ENDBRANCH  21  22
ENDBRANCH   1  21
TORSDOF 10
