REMARK  Name = ZINC59490500
REMARK  12 active torsions:
REMARK  status: ('A' for Active; 'I' for Inactive)
REMARK    1  A    between atoms: C_1  and  C_2
REMARK    2  A    between atoms: C_2  and  N_3
REMARK    3  A    between atoms: C_4  and  S_18
REMARK    4  A    between atoms: N_5  and  C_6
REMARK    5  A    between atoms: C_6  and  C_7
REMARK    6  A    between atoms: C_7  and  C_8
REMARK    7  A    between atoms: C_11  and  O_16
REMARK    8  A    between atoms: C_12  and  O_14
REMARK    9  A    between atoms: O_14  and  C_15
REMARK   10  A    between atoms: O_16  and  C_17
REMARK   11  A    between atoms: S_18  and  C_19
REMARK   12  A    between atoms: N_24  and  C_27
REMARK                            x       y       z     vdW  Elec       q    Type
REMARK                         _______ _______ _______ _____ _____    ______ ____
ROOT
ATOM      1  N   UNL     1       0.569  -0.396   0.795  0.00  0.00    -0.326 N 
ATOM      2  C   UNL     1       0.698  -1.700   1.213  0.00  0.00    +0.129 C 
ATOM      3  N   UNL     1       1.306  -1.969   2.335  0.00  0.00    -0.367 N 
ATOM      4  H   UNL     1       1.004   0.317   1.289  0.00  0.00    +0.148 HD
ATOM      5  H   UNL     1       1.397  -2.889   2.630  0.00  0.00    +0.161 HD
ENDROOT
BRANCH   1   7
ATOM      6  C   UNL     1      -0.306   1.435  -0.570  0.00  0.00    +0.024 C 
ATOM      7  C   UNL     1      -0.224  -0.083  -0.396  0.00  0.00    +0.100 C 
ENDBRANCH   1   7
BRANCH   3   8
ATOM      8  C   UNL     1       1.853  -0.881   3.150  0.00  0.00    +0.119 C 
BRANCH   8   9
ATOM      9  C   UNL     1       2.510  -1.464   4.403  0.00  0.00    +0.056 C 
BRANCH   9  10
ATOM     10  C   UNL     1       3.073  -0.345   5.241  0.00  0.00    -0.042 A 
ATOM     11  C   UNL     1       4.370   0.086   5.036  0.00  0.00    +0.007 A 
ATOM     12  C   UNL     1       4.891   1.111   5.802  0.00  0.00    +0.049 A 
ATOM     13  C   UNL     1       4.112   1.711   6.779  0.00  0.00    +0.161 A 
ATOM     14  C   UNL     1       2.806   1.278   6.986  0.00  0.00    +0.162 A 
ATOM     15  C   UNL     1       2.289   0.252   6.211  0.00  0.00    +0.053 A 
BRANCH  14  16
ATOM     16  O   UNL     1       2.038   1.863   7.943  0.00  0.00    -0.491 OA
ATOM     17  C   UNL     1       0.707   1.367   8.099  0.00  0.00    +0.277 C 
ENDBRANCH  14  16
BRANCH  13  18
ATOM     18  O   UNL     1       4.623   2.720   7.534  0.00  0.00    -0.491 OA
ATOM     19  C   UNL     1       5.971   3.112   7.266  0.00  0.00    +0.277 C 
ENDBRANCH  13  18
ENDBRANCH   9  10
ENDBRANCH   8   9
ENDBRANCH   3   8
BRANCH   2  20
ATOM     20  S   UNL     1       0.040  -3.008   0.233  0.00  0.00    -0.079 S 
BRANCH  20  21
ATOM     21  C   UNL     1       1.462  -4.095  -0.061  0.00  0.00    +0.149 C 
ATOM     22  C   UNL     1       1.042  -5.328  -0.886  0.00  0.00    +0.120 C 
ATOM     23  C   UNL     1       1.869  -5.210  -2.148  0.00  0.00    +0.228 C 
ATOM     24  O   UNL     1       1.845  -5.986  -3.079  0.00  0.00    -0.275 OA
ATOM     25  N   UNL     1       2.631  -4.111  -2.074  0.00  0.00    -0.209 N 
ATOM     26  C   UNL     1       2.484  -3.408  -0.940  0.00  0.00    +0.240 C 
ATOM     27  O   UNL     1       3.074  -2.385  -0.663  0.00  0.00    -0.274 OA
BRANCH  25  28
ATOM     28  C   UNL     1       3.511  -3.728  -3.095  0.00  0.00    +0.044 A 
ATOM     29  C   UNL     1       4.883  -3.770  -2.884  0.00  0.00    +0.025 A 
ATOM     30  C   UNL     1       5.748  -3.392  -3.892  0.00  0.00    +0.017 A 
ATOM     31  C   UNL     1       5.249  -2.972  -5.112  0.00  0.00    +0.018 A 
ATOM     32  C   UNL     1       3.882  -2.929  -5.325  0.00  0.00    +0.017 A 
ATOM     33  C   UNL     1       3.013  -3.311  -4.322  0.00  0.00    +0.025 A 
ATOM     34 BR   UNL     1       6.436  -2.454  -6.489  0.00  0.00    -0.050 Br
ENDBRANCH  25  28
ENDBRANCH  20  21
ENDBRANCH   2  20
TORSDOF 9
