REMARK  Name = ZINC09058815
REMARK  4 active torsions:
REMARK  status: ('A' for Active; 'I' for Inactive)
REMARK    1  A    between atoms: C_1  and  C_2
REMARK    2  A    between atoms: C_11  and  O_22
REMARK    3  A    between atoms: C_13  and  C_15
REMARK    4  A    between atoms: C_18  and  O_21
REMARK                            x       y       z     vdW  Elec       q    Type
REMARK                         _______ _______ _______ _____ _____    ______ ____
ROOT
ATOM      1  C   UNL     1      -0.018   1.503   0.010  0.00  0.00    +0.086 C 
ATOM      2  C   UNL     1       0.002  -0.004   0.002  0.00  0.00    +0.109 A 
ATOM      3  N   UNL     1      -1.169  -0.673   0.004  0.00  0.00    -0.311 N 
ATOM      4  H   UNL     1      -2.005  -0.182   0.002  0.00  0.00    +0.170 HD
ATOM      5  C   UNL     1      -1.182  -2.024   0.009  0.00  0.00    +0.257 A 
ATOM      6  O   UNL     1      -2.236  -2.639   0.022  0.00  0.00    -0.267 OA
ATOM      7  C   UNL     1       0.042  -2.701  -0.002  0.00  0.00    +0.069 A 
ATOM      8  C   UNL     1       1.218  -1.966  -0.018  0.00  0.00    +0.167 A 
ATOM      9  N   UNL     1       1.151  -0.620  -0.012  0.00  0.00    -0.215 NA
ATOM     10  N   UNL     1       2.420  -2.599  -0.061  0.00  0.00    -0.197 NA
ATOM     11  C   UNL     1       2.523  -3.852  -0.381  0.00  0.00    +0.190 C 
ATOM     12  C   UNL     1       1.322  -4.667  -0.780  0.00  0.00    +0.108 C 
ATOM     13  C   UNL     1       0.096  -4.205   0.014  0.00  0.00    +0.067 C 
ENDROOT
BRANCH  13  14
ATOM     14  C   UNL     1       0.203  -4.692   1.436  0.00  0.00    -0.039 A 
ATOM     15  C   UNL     1       1.276  -4.307   2.218  0.00  0.00    +0.008 A 
ATOM     16  C   UNL     1       1.377  -4.752   3.522  0.00  0.00    +0.045 A 
ATOM     17  C   UNL     1       0.400  -5.586   4.046  0.00  0.00    +0.117 A 
ATOM     18  C   UNL     1      -0.676  -5.971   3.260  0.00  0.00    +0.045 A 
ATOM     19  C   UNL     1      -0.775  -5.518   1.958  0.00  0.00    +0.008 A 
BRANCH  17  20
ATOM     20  O   UNL     1       0.497  -6.026   5.329  0.00  0.00    -0.507 OA
ATOM     21  H   UNL     1       0.071  -5.447   5.976  0.00  0.00    +0.292 HD
ENDBRANCH  17  20
ENDBRANCH  13  14
BRANCH  11  22
ATOM     22  O   UNL     1       3.734  -4.437  -0.356  0.00  0.00    -0.495 OA
ATOM     23  H   UNL     1       4.451  -3.845  -0.090  0.00  0.00    +0.293 HD
ENDBRANCH  11  22
TORSDOF 3
