REMARK  Name = ZINC40099197
REMARK  6 active torsions:
REMARK  status: ('A' for Active; 'I' for Inactive)
REMARK    1  A    between atoms: C_1  and  C_2
REMARK    2  A    between atoms: C_6  and  N_8
REMARK    3  A    between atoms: N_11  and  C_12
REMARK    4  A    between atoms: C_12  and  C_14
REMARK    5  A    between atoms: C_12  and  C_15
REMARK    6  A    between atoms: C_18  and  C_20
REMARK                            x       y       z     vdW  Elec       q    Type
REMARK                         _______ _______ _______ _____ _____    ______ ____
ROOT
ATOM      1  N   UNL     1       0.053  -2.796   2.396  0.00  0.00    -0.267 N 
ATOM      2  C   UNL     1       0.151  -2.133   3.565  0.00  0.00    +0.304 C 
ATOM      3  O   UNL     1       0.134  -0.917   3.577  0.00  0.00    -0.252 OA
ATOM      4  N   UNL     1       0.267  -2.817   4.721  0.00  0.00    -0.290 N 
ATOM      5  H   UNL     1       0.001  -3.765   2.391  0.00  0.00    +0.156 HD
ATOM      6  H   UNL     1       0.281  -3.786   4.711  0.00  0.00    +0.151 HD
ENDROOT
BRANCH   1  12
ATOM      7  C   UNL     1      -1.307   1.189  -0.143  0.00  0.00    +0.044 C 
ATOM      8  C   UNL     1      -0.627  -0.154  -0.071  0.00  0.00    -0.049 A 
ATOM      9  C   UNL     1      -0.029  -0.686  -1.198  0.00  0.00    +0.006 A 
ATOM     10  C   UNL     1       0.597  -1.917  -1.137  0.00  0.00    +0.040 A 
ATOM     11  C   UNL     1       0.626  -2.621   0.054  0.00  0.00    +0.145 A 
ATOM     12  C   UNL     1       0.025  -2.087   1.188  0.00  0.00    +0.070 A 
ATOM     13  C   UNL     1      -0.597  -0.848   1.123  0.00  0.00    +0.029 A 
ATOM     14  F   UNL     1       1.237  -3.824   0.114  0.00  0.00    -0.204 F 
ENDBRANCH   1  12
BRANCH   4  15
ATOM     15  C   UNL     1       0.374  -2.095   5.991  0.00  0.00    +0.137 C 
ATOM     16  C   UNL     1      -1.027  -1.756   6.504  0.00  0.00    +0.036 C 
BRANCH  15  17
ATOM     17  C   UNL     1       1.083  -2.959   7.002  0.00  0.00    +0.125 A 
ATOM     18  C   UNL     1       1.991  -2.537   7.900  0.00  0.00    +0.047 A 
ATOM     19  C   UNL     1       2.394  -3.671   8.641  0.00  0.00    +0.045 A 
ATOM     20  C   UNL     1       1.708  -4.720   8.150  0.00  0.00    +0.102 A 
ATOM     21  O   UNL     1       0.912  -4.282   7.162  0.00  0.00    -0.463 OA
ATOM     22  C   UNL     1       1.813  -6.144   8.633  0.00  0.00    +0.086 C 
ENDBRANCH  15  17
ENDBRANCH   4  15
TORSDOF 3
