REMARK  Name = ZINC13197105
REMARK  13 active torsions:
REMARK  status: ('A' for Active; 'I' for Inactive)
REMARK    1  A    between atoms: C_1  and  C_2
REMARK    2  A    between atoms: C_2  and  C_3
REMARK    3  A    between atoms: C_3  and  C_5
REMARK    4  A    between atoms: C_3  and  N_6
REMARK    5  A    between atoms: N_6  and  C_7
REMARK    6  A    between atoms: C_15  and  C_17
REMARK    7  A    between atoms: C_17  and  S_18
REMARK    8  A    between atoms: S_18  and  C_19
REMARK    9  A    between atoms: C_22  and  C_28
REMARK   10  A    between atoms: N_23  and  C_24
REMARK   11  A    between atoms: C_24  and  C_25
REMARK   12  A    between atoms: C_25  and  C_26
REMARK   13  A    between atoms: C_31  and  C_34
REMARK                            x       y       z     vdW  Elec       q    Type
REMARK                         _______ _______ _______ _____ _____    ______ ____
ROOT
ATOM      1  C   UNL     1       1.766   5.665  -0.085  0.00  0.00    +0.192 A 
ATOM      2  N   UNL     1       0.477   5.571   0.151  0.00  0.00    -0.122 NA
ATOM      3  N   UNL     1       0.127   4.335   0.202  0.00  0.00    -0.128 NA
ATOM      4  C   UNL     1       1.170   3.565   0.002  0.00  0.00    +0.165 A 
ATOM      5  N   UNL     1       2.254   4.393  -0.183  0.00  0.00    -0.302 N 
ENDROOT
BRANCH   4   6
ATOM      6  C   UNL     1       1.181   2.087  -0.016  0.00  0.00    +0.019 A 
ATOM      7  C   UNL     1       0.137   1.371   0.572  0.00  0.00    +0.012 A 
ATOM      8  C   UNL     1       0.153  -0.008   0.552  0.00  0.00    +0.004 A 
ATOM      9  C   UNL     1       1.200  -0.682  -0.051  0.00  0.00    -0.050 A 
ATOM     10  C   UNL     1       2.238   0.021  -0.636  0.00  0.00    +0.004 A 
ATOM     11  C   UNL     1       2.235   1.401  -0.622  0.00  0.00    +0.012 A 
ATOM     12  C   UNL     1       1.211  -2.189  -0.070  0.00  0.00    +0.044 C 
ENDBRANCH   4   6
BRANCH   1  13
ATOM     13  S   UNL     1       2.695   7.154  -0.239  0.00  0.00    -0.077 S 
BRANCH  13  14
ATOM     14  C   UNL     1       1.380   8.372   0.015  0.00  0.00    +0.173 C 
BRANCH  14  16
ATOM     15  N   UNL     1       1.158  10.835   0.083  0.00  0.00    -0.293 N 
ATOM     16  C   UNL     1       1.957   9.761  -0.076  0.00  0.00    +0.226 C 
ATOM     17  O   UNL     1       3.141   9.913  -0.291  0.00  0.00    -0.275 OA
BRANCH  15  18
ATOM     18  C   UNL     1       1.719  12.185  -0.006  0.00  0.00    +0.099 C 
ATOM     19  C   UNL     1       2.344  12.388  -1.395  0.00  0.00    +0.046 C 
ATOM     20  C   UNL     1       3.196  13.688  -1.358  0.00  0.00    +0.168 C 
ATOM     21  S   UNL     1       3.984  13.528   0.300  0.00  0.00    -0.029 S 
ATOM     22  O   UNL     1       5.239  12.878   0.154  0.00  0.00    -0.174 OA
ATOM     23  O   UNL     1       3.919  14.781   0.966  0.00  0.00    -0.174 OA
ATOM     24  C   UNL     1       2.797  12.366   1.090  0.00  0.00    +0.188 C 
ENDBRANCH  15  18
BRANCH  15  25
ATOM     25  C   UNL     1      -0.272  10.651   0.344  0.00  0.00    +0.073 C 
ATOM     26  C   UNL     1      -1.083  11.316  -0.770  0.00  0.00    +0.028 C 
BRANCH  25  28
ATOM     27  C   UNL     1       0.084  10.543   2.814  0.00  0.00    +0.005 C 
ATOM     28  C   UNL     1      -0.632  11.289   1.687  0.00  0.00    +0.019 C 
ENDBRANCH  25  28
ENDBRANCH  15  25
ENDBRANCH  14  16
ENDBRANCH  13  14
ENDBRANCH   1  13
BRANCH   5  29
ATOM     29  C   UNL     1       3.640   3.993  -0.436  0.00  0.00    +0.137 C 
BRANCH  29  30
ATOM     30  C   UNL     1       3.901   3.980  -1.943  0.00  0.00    +0.147 C 
BRANCH  30  31
ATOM     31  C   UNL     1       5.327   3.569  -2.203  0.00  0.00    +0.358 C 
ATOM     32  O   UNL     1       6.060   3.313  -1.277  0.00  0.00    -0.246 OA
ATOM     33  O   UNL     1       5.784   3.488  -3.463  0.00  0.00    -0.246 OA
ENDBRANCH  30  31
ENDBRANCH  29  30
ENDBRANCH   5  29
TORSDOF 10
