REMARK  Name = ZINC39596561
REMARK  9 active torsions:
REMARK  status: ('A' for Active; 'I' for Inactive)
REMARK    1  A    between atoms: C_1  and  C_2
REMARK    2  A    between atoms: C_7  and  C_8
REMARK    3  A    between atoms: C_8  and  C_9
REMARK    4  A    between atoms: C_13  and  C_22
REMARK    5  A    between atoms: N_24  and  C_25
REMARK    6  A    between atoms: C_25  and  C_26
REMARK    7  A    between atoms: C_26  and  C_28
REMARK    8  A    between atoms: C_26  and  O_29
REMARK    9  A    between atoms: O_29  and  C_30
REMARK                            x       y       z     vdW  Elec       q    Type
REMARK                         _______ _______ _______ _____ _____    ______ ____
ROOT
ATOM      1  C   UNL     1       0.669   0.130   2.701  0.00  0.00    +0.220 C 
ATOM      2  O   UNL     1      -0.114  -0.463   1.990  0.00  0.00    -0.275 OA
ATOM      3  N   UNL     1       0.252   0.661   3.867  0.00  0.00    -0.300 N 
ATOM      4  C   UNL     1       1.052   1.420   4.857  0.00  0.00    +0.121 C 
ATOM      5  C   UNL     1       0.110   2.545   5.340  0.00  0.00    +0.100 C 
ATOM      6  C   UNL     1      -1.308   2.013   5.071  0.00  0.00    -0.004 C 
ATOM      7  C   UNL     1      -1.113   0.624   4.446  0.00  0.00    +0.115 C 
ATOM      8  C   UNL     1      -2.038   2.928   4.093  0.00  0.00    -0.010 C 
ATOM      9  C   UNL     1      -3.465   2.410   3.885  0.00  0.00    -0.082 C 
ATOM     10  N   UNL     1      -4.167   2.376   5.174  0.00  0.00    +0.379 N 
ATOM     11  C   UNL     1      -3.511   1.424   6.078  0.00  0.00    -0.082 C 
ATOM     12  C   UNL     1      -2.087   1.900   6.378  0.00  0.00    -0.010 C 
ATOM     13  H   UNL     1      -4.152   3.296   5.588  0.00  0.00    -0.086 HD
ATOM     14  H   UNL     1      -5.124   2.093   5.026  0.00  0.00    -0.086 HD
ENDROOT
BRANCH   5  15
ATOM     15  C   UNL     1       0.356   3.808   4.556  0.00  0.00    +0.218 C 
ATOM     16  O   UNL     1       0.756   3.744   3.413  0.00  0.00    -0.275 OA
ATOM     17  N   UNL     1       0.133   5.009   5.125  0.00  0.00    -0.312 N 
ATOM     18  H   UNL     1      -0.187   5.061   6.040  0.00  0.00    +0.149 HD
BRANCH  17  19
ATOM     19  C   UNL     1       0.372   6.237   4.363  0.00  0.00    +0.148 C 
BRANCH  19  20
ATOM     20  C   UNL     1       0.043   7.451   5.234  0.00  0.00    +0.187 C 
ATOM     21  C   UNL     1       0.173   8.727   4.401  0.00  0.00    +0.053 C 
BRANCH  20  22
ATOM     22  O   UNL     1       0.951   7.507   6.336  0.00  0.00    -0.488 OA
BRANCH  22  23
ATOM     23  C   UNL     1       0.526   8.153   7.454  0.00  0.00    +0.121 A 
ATOM     24  C   UNL     1      -0.696   8.809   7.455  0.00  0.00    +0.048 A 
ATOM     25  C   UNL     1      -1.127   9.465   8.591  0.00  0.00    +0.042 A 
ATOM     26  C   UNL     1      -0.339   9.469   9.730  0.00  0.00    +0.124 A 
ATOM     27  C   UNL     1       0.881   8.814   9.731  0.00  0.00    +0.042 A 
ATOM     28  C   UNL     1       1.312   8.152   8.598  0.00  0.00    +0.048 A 
ATOM     29  F   UNL     1      -0.761  10.111  10.841  0.00  0.00    -0.205 F 
ENDBRANCH  22  23
ENDBRANCH  20  22
ENDBRANCH  19  20
ENDBRANCH  17  19
ENDBRANCH   5  15
BRANCH   1  30
ATOM     30  C   UNL     1       2.109   0.273   2.280  0.00  0.00    +0.131 C 
BRANCH  30  37
ATOM     31  C   UNL     1       1.541   1.698  -0.168  0.00  0.00    +0.044 C 
ATOM     32  C   UNL     1       2.042   0.278  -0.222  0.00  0.00    -0.047 A 
ATOM     33  C   UNL     1       2.235  -0.341  -1.443  0.00  0.00    +0.003 A 
ATOM     34  C   UNL     1       2.694  -1.644  -1.492  0.00  0.00    +0.000 A 
ATOM     35  C   UNL     1       2.960  -2.328  -0.321  0.00  0.00    +0.000 A 
ATOM     36  C   UNL     1       2.769  -1.709   0.900  0.00  0.00    +0.004 A 
ATOM     37  C   UNL     1       2.313  -0.404   0.949  0.00  0.00    -0.036 A 
ENDBRANCH  30  37
ENDBRANCH   1  30
TORSDOF 7
