REMARK  Name = ZINC12368199
REMARK  3 active torsions:
REMARK  status: ('A' for Active; 'I' for Inactive)
REMARK    1  A    between atoms: C_4  and  C_7
REMARK    2  A    between atoms: C_15  and  N_67
REMARK    3  A    between atoms: C_22  and  C_24
REMARK                            x       y       z     vdW  Elec       q    Type
REMARK                         _______ _______ _______ _____ _____    ______ ____
ROOT
ATOM      1  C   UNL     1      -0.053   5.293   2.641  0.00  0.00    +0.015 C 
ATOM      2  C   UNL     1      -1.323   4.860   2.722  0.00  0.00    -0.005 C 
ATOM      3  C   UNL     1      -2.166   5.158   3.942  0.00  0.00    +0.039 C 
ATOM      4  C   UNL     1      -2.951   3.877   4.264  0.00  0.00    +0.009 C 
ATOM      5  C   UNL     1      -3.866   3.557   3.087  0.00  0.00    +0.035 C 
ATOM      6  C   UNL     1      -3.097   3.466   1.791  0.00  0.00    -0.020 C 
ATOM      7  C   UNL     1      -1.929   4.082   1.621  0.00  0.00    +0.121 C 
ATOM      8  O   UNL     1      -1.242   4.042   0.448  0.00  0.00    -0.503 OA
ATOM      9  C   UNL     1      -1.575   3.033  -0.506  0.00  0.00    +0.087 C 
ATOM     10  C   UNL     1      -0.943   3.393  -1.855  0.00  0.00    +0.029 C 
ATOM     11  C   UNL     1      -1.408   4.788  -2.276  0.00  0.00    +0.002 C 
ATOM     12  C   UNL     1      -2.932   4.802  -2.412  0.00  0.00    +0.000 C 
ATOM     13  C   UNL     1      -3.570   4.426  -1.073  0.00  0.00    +0.006 C 
ATOM     14  C   UNL     1      -3.103   3.028  -0.664  0.00  0.00    +0.027 C 
ATOM     15  C   UNL     1      -3.719   2.647   0.681  0.00  0.00    +0.053 C 
ENDROOT
BRANCH   1  19
ATOM     16  C   UNL     1       2.551   3.691  -0.301  0.00  0.00    +0.000 A 
ATOM     17  C   UNL     1       2.530   5.056  -0.070  0.00  0.00    +0.001 A 
ATOM     18  C   UNL     1       1.686   5.584   0.885  0.00  0.00    +0.008 A 
ATOM     19  C   UNL     1       0.851   4.737   1.619  0.00  0.00    -0.025 A 
ATOM     20  C   UNL     1       0.882   3.360   1.384  0.00  0.00    +0.008 A 
ATOM     21  C   UNL     1       1.728   2.847   0.423  0.00  0.00    +0.001 A 
ENDBRANCH   1  19
BRANCH  15  22
ATOM     22  C   UNL     1      -5.203   2.906   0.642  0.00  0.00    -0.040 A 
ATOM     23  C   UNL     1      -6.083   1.854   0.467  0.00  0.00    +0.004 A 
ATOM     24  C   UNL     1      -7.445   2.090   0.435  0.00  0.00    +0.000 A 
ATOM     25  C   UNL     1      -7.926   3.379   0.570  0.00  0.00    +0.000 A 
ATOM     26  C   UNL     1      -7.046   4.431   0.740  0.00  0.00    +0.000 A 
ATOM     27  C   UNL     1      -5.684   4.194   0.776  0.00  0.00    +0.004 A 
ENDBRANCH  15  22
BRANCH   9  32
ATOM     28  C   UNL     1      -2.242   0.861   0.369  0.00  0.00    -0.073 C 
ATOM     29  C   UNL     1      -1.661  -0.573   0.285  0.00  0.00    -0.020 C 
ATOM     30  C   UNL     1      -0.767  -0.510  -0.975  0.00  0.00    -0.020 C 
ATOM     31  C   UNL     1      -0.450   0.984  -1.169  0.00  0.00    -0.073 C 
ATOM     32  N   UNL     1      -1.103   1.687  -0.064  0.00  0.00    +0.406 N 
ATOM     33  H   UNL     1      -0.442   1.800   0.714  0.00  0.00    -0.076 HD
ENDBRANCH   9  32
TORSDOF 3
