REMARK  Name = ZINC50321690
REMARK  8 active torsions:
REMARK  status: ('A' for Active; 'I' for Inactive)
REMARK    1  A    between atoms: C_1  and  C_2
REMARK    2  A    between atoms: C_7  and  C_9
REMARK    3  A    between atoms: C_7  and  C_10
REMARK    4  A    between atoms: C_11  and  C_13
REMARK    5  A    between atoms: C_14  and  N_22
REMARK    6  A    between atoms: C_15  and  C_19
REMARK    7  A    between atoms: C_19  and  C_20
REMARK    8  A    between atoms: C_19  and  C_21
REMARK                            x       y       z     vdW  Elec       q    Type
REMARK                         _______ _______ _______ _____ _____    ______ ____
ROOT
ATOM      1  C   UNL     1      -2.961  -2.257  -1.659  0.00  0.00    +0.168 A 
ATOM      2  C   UNL     1      -3.815  -2.989  -2.523  0.00  0.00    +0.078 A 
ATOM      3  C   UNL     1      -4.436  -2.057  -3.293  0.00  0.00    +0.060 A 
ATOM      4  N   UNL     1      -3.969  -0.842  -2.901  0.00  0.00    -0.279 N 
ATOM      5  H   UNL     1      -4.242   0.007  -3.283  0.00  0.00    +0.189 HD
ATOM      6  N   UNL     1      -3.119  -0.980  -1.948  0.00  0.00    -0.167 NA
ENDROOT
BRANCH   1  16
ATOM      7  C   UNL     1       0.631   1.205  -0.695  0.00  0.00    +0.039 C 
ATOM      8  C   UNL     1       0.429  -0.298  -0.497  0.00  0.00    +0.133 C 
ATOM      9  C   UNL     1      -1.066  -0.597  -0.335  0.00  0.00    +0.139 C 
ATOM     10  N   UNL     1      -1.219  -2.012   0.039  0.00  0.00    -0.291 N 
ATOM     11  C   UNL     1      -0.415  -2.521   1.163  0.00  0.00    +0.142 C 
ATOM     12  C   UNL     1       1.048  -2.129   0.928  0.00  0.00    +0.080 C 
ATOM     13  O   UNL     1       1.125  -0.723   0.678  0.00  0.00    -0.368 OA
ATOM     14  C   UNL     1       1.875  -2.473   2.168  0.00  0.00    +0.043 C 
ATOM     15  C   UNL     1       1.594  -2.892  -0.281  0.00  0.00    +0.043 C 
ATOM     16  C   UNL     1      -2.068  -2.818  -0.627  0.00  0.00    +0.269 C 
ATOM     17  O   UNL     1      -2.100  -4.008  -0.378  0.00  0.00    -0.268 OA
ENDBRANCH   1  16
BRANCH   3  18
ATOM     18  C   UNL     1      -5.449  -2.320  -4.377  0.00  0.00    +0.033 C 
ATOM     19  C   UNL     1      -6.763  -1.619  -4.028  0.00  0.00    +0.014 C 
ATOM     20  C   UNL     1      -4.922  -1.782  -5.709  0.00  0.00    +0.014 C 
ENDBRANCH   3  18
BRANCH   2  21
ATOM     21  N   UNL     1      -3.985  -4.381  -2.572  0.00  0.00    -0.355 N 
ATOM     22  H   UNL     1      -3.484  -4.952  -1.968  0.00  0.00    +0.142 HD
ATOM     23  H   UNL     1      -4.602  -4.772  -3.210  0.00  0.00    +0.142 HD
ENDBRANCH   2  21
TORSDOF 3
