REMARK  Name = ZINC40804486
REMARK  6 active torsions:
REMARK  status: ('A' for Active; 'I' for Inactive)
REMARK    1  A    between atoms: C_1  and  C_2
REMARK    2  A    between atoms: C_5  and  C_8
REMARK    3  A    between atoms: N_10  and  N_11
REMARK    4  A    between atoms: C_18  and  C_36
REMARK    5  A    between atoms: C_19  and  C_21
REMARK    6  A    between atoms: N_26  and  C_29
REMARK                            x       y       z     vdW  Elec       q    Type
REMARK                         _______ _______ _______ _____ _____    ______ ____
ROOT
ATOM      1  N   UNL     1      -0.377  -6.337   1.244  0.00  0.00    -0.184 NA
ATOM      2  C   UNL     1      -0.041  -6.995   2.310  0.00  0.00    +0.070 C 
ATOM      3  C   UNL     1       0.223  -6.311   3.643  0.00  0.00    +0.058 C 
ATOM      4  C   UNL     1       1.461  -6.953   4.276  0.00  0.00    +0.014 C 
ATOM      5  C   UNL     1       1.196  -8.424   4.609  0.00  0.00    +0.075 C 
ATOM      6  C   UNL     1       0.682  -9.130   3.380  0.00  0.00    +0.115 A 
ATOM      7  C   UNL     1       0.107  -8.467   2.320  0.00  0.00    +0.042 A 
ATOM      8  C   UNL     1      -0.253  -9.428   1.367  0.00  0.00    +0.009 A 
ATOM      9  C   UNL     1       0.111 -10.638   1.888  0.00  0.00    +0.193 A 
ATOM     10  O   UNL     1       0.678 -10.432   3.101  0.00  0.00    -0.454 OA
ATOM     11  C   UNL     1      -0.909  -9.178   0.034  0.00  0.00    +0.048 C 
ENDROOT
BRANCH   9  12
ATOM     12  C   UNL     1      -0.073 -11.941   1.238  0.00  0.00    +0.282 C 
ATOM     13  O   UNL     1      -0.448 -11.997   0.082  0.00  0.00    -0.267 OA
ATOM     14  N   UNL     1       0.174 -13.076   1.922  0.00  0.00    -0.292 N 
ATOM     15  C   UNL     1       0.459 -13.034   3.363  0.00  0.00    +0.127 C 
ATOM     16  C   UNL     1      -0.531 -13.957   4.085  0.00  0.00    +0.124 C 
ATOM     17  N   UNL     1      -0.543 -15.258   3.403  0.00  0.00    -0.325 N 
ATOM     18  C   UNL     1      -0.828 -15.300   1.962  0.00  0.00    +0.124 C 
ATOM     19  C   UNL     1       0.156 -14.378   1.241  0.00  0.00    +0.127 C 
BRANCH  17  20
ATOM     20  C   UNL     1      -0.287 -16.436   4.113  0.00  0.00    +0.065 A 
ATOM     21  C   UNL     1      -1.333 -17.138   4.697  0.00  0.00    +0.026 A 
ATOM     22  C   UNL     1      -1.077 -18.301   5.396  0.00  0.00    +0.002 A 
ATOM     23  C   UNL     1       0.219 -18.768   5.517  0.00  0.00    +0.003 A 
ATOM     24  C   UNL     1       1.264 -18.072   4.938  0.00  0.00    +0.040 A 
ATOM     25  C   UNL     1       1.015 -16.910   4.231  0.00  0.00    +0.144 A 
ATOM     26  F   UNL     1       2.036 -16.234   3.660  0.00  0.00    -0.204 F 
ENDBRANCH  17  20
ENDBRANCH   9  12
BRANCH   1  29
ATOM     27  C   UNL     1      -0.851  -4.258   0.184  0.00  0.00    +0.263 C 
ATOM     28  O   UNL     1      -1.057  -4.851  -0.857  0.00  0.00    -0.268 OA
ATOM     29  N   UNL     1      -0.502  -4.942   1.292  0.00  0.00    -0.203 N 
ATOM     30  H   UNL     1      -0.339  -4.469   2.123  0.00  0.00    +0.178 HD
BRANCH  27  35
ATOM     31  C   UNL     1      -1.369   1.469   0.383  0.00  0.00    +0.044 C 
ATOM     32  C   UNL     1      -1.233  -0.031   0.331  0.00  0.00    -0.050 A 
ATOM     33  C   UNL     1      -1.467  -0.703  -0.856  0.00  0.00    +0.004 A 
ATOM     34  C   UNL     1      -1.345  -2.076  -0.910  0.00  0.00    +0.013 A 
ATOM     35  C   UNL     1      -0.984  -2.787   0.235  0.00  0.00    +0.038 A 
ATOM     36  C   UNL     1      -0.749  -2.103   1.429  0.00  0.00    +0.013 A 
ATOM     37  C   UNL     1      -0.869  -0.729   1.469  0.00  0.00    +0.004 A 
ENDBRANCH  27  35
ENDBRANCH   1  29
TORSDOF 4
