REMARK  Name = ZINC32925254
REMARK  6 active torsions:
REMARK  status: ('A' for Active; 'I' for Inactive)
REMARK    1  A    between atoms: C_1  and  C_2
REMARK    2  A    between atoms: C_2  and  C_3
REMARK    3  A    between atoms: C_2  and  C_4
REMARK    4  A    between atoms: C_7  and  C_31
REMARK    5  A    between atoms: C_10  and  C_12
REMARK    6  A    between atoms: C_13  and  C_25
REMARK                            x       y       z     vdW  Elec       q    Type
REMARK                         _______ _______ _______ _____ _____    ______ ____
ROOT
ATOM      1  C   UNL     1      -2.601   5.785  -5.521  0.00  0.00    +0.238 C 
ATOM      2  O   UNL     1      -3.043   4.989  -6.323  0.00  0.00    -0.274 OA
ATOM      3  N   UNL     1      -2.139   5.357  -4.330  0.00  0.00    -0.185 N 
ATOM      4  C   UNL     1      -2.112   3.957  -3.876  0.00  0.00    +0.137 C 
ATOM      5  C   UNL     1      -1.488   4.044  -2.469  0.00  0.00    +0.087 C 
ATOM      6  C   UNL     1      -1.231   5.522  -2.275  0.00  0.00    +0.075 C 
ATOM      7  N   UNL     1      -1.608   6.166  -3.328  0.00  0.00    -0.181 NA
ENDROOT
BRANCH   6   8
ATOM      8  C   UNL     1      -0.639   6.128  -1.076  0.00  0.00    +0.070 A 
ATOM      9  C   UNL     1       0.748   6.208  -0.933  0.00  0.00    +0.005 A 
ATOM     10  C   UNL     1       1.287   6.819   0.290  0.00  0.00    +0.008 A 
ATOM     11  C   UNL     1       2.669   6.928   0.480  0.00  0.00    +0.030 A 
ATOM     12  C   UNL     1       3.156   7.508   1.630  0.00  0.00    +0.042 A 
ATOM     13  C   UNL     1       2.283   7.990   2.596  0.00  0.00    +0.022 A 
ATOM     14  C   UNL     1       0.920   7.895   2.421  0.00  0.00    +0.028 A 
ATOM     15  C   UNL     1       0.404   7.312   1.266  0.00  0.00    +0.050 A 
ATOM     16  N   UNL     1      -0.962   7.216   1.089  0.00  0.00    -0.322 N 
ATOM     17  H   UNL     1      -1.645   7.601   1.860  0.00  0.00    +0.169 HD
ATOM     18  C   UNL     1      -1.495   6.659  -0.012  0.00  0.00    +0.259 A 
ATOM     19  O   UNL     1      -2.706   6.595  -0.126  0.00  0.00    -0.267 OA
ATOM     20 CL   UNL     1       4.870   7.638   1.873  0.00  0.00    -0.084 Cl
BRANCH   9  21
ATOM     21  C   UNL     1       1.649   5.685  -1.980  0.00  0.00    -0.016 A 
ATOM     22  C   UNL     1       2.405   6.565  -2.758  0.00  0.00    +0.008 A 
ATOM     23  C   UNL     1       3.245   6.070  -3.734  0.00  0.00    +0.001 A 
ATOM     24  C   UNL     1       3.340   4.705  -3.942  0.00  0.00    +0.000 A 
ATOM     25  C   UNL     1       2.589   3.828  -3.179  0.00  0.00    +0.001 A 
ATOM     26  C   UNL     1       1.749   4.309  -2.196  0.00  0.00    +0.008 A 
ENDBRANCH   9  21
ENDBRANCH   6   8
BRANCH   4  27
ATOM     27  C   UNL     1      -1.248   3.122  -4.784  0.00  0.00    -0.021 A 
ATOM     28  C   UNL     1      -0.074   3.646  -5.293  0.00  0.00    +0.009 A 
ATOM     29  C   UNL     1       0.723   2.882  -6.126  0.00  0.00    +0.050 A 
ATOM     30  C   UNL     1       0.346   1.590  -6.453  0.00  0.00    +0.166 A 
ATOM     31  C   UNL     1      -0.836   1.062  -5.940  0.00  0.00    +0.167 A 
ATOM     32  C   UNL     1      -1.627   1.831  -5.101  0.00  0.00    +0.055 A 
ATOM     33  O   UNL     1      -0.982  -0.213  -6.404  0.00  0.00    -0.453 OA
ATOM     34  C   UNL     1      -0.090  -0.318  -7.529  0.00  0.00    +0.466 C 
ATOM     35  O   UNL     1       0.941   0.645  -7.239  0.00  0.00    -0.453 OA
ENDBRANCH   4  27
BRANCH   1  37
ATOM     36  C   UNL     1      -3.147   7.469  -7.258  0.00  0.00    +0.017 C 
ATOM     37  C   UNL     1      -2.569   7.254  -5.858  0.00  0.00    +0.071 C 
ATOM     38  C   UNL     1      -3.403   8.030  -4.837  0.00  0.00    +0.017 C 
ENDBRANCH   1  37
TORSDOF 4
