REMARK  Name = ZINC39661264
REMARK  5 active torsions:
REMARK  status: ('A' for Active; 'I' for Inactive)
REMARK    1  A    between atoms: C_1  and  O_2
REMARK    2  A    between atoms: O_2  and  C_3
REMARK    3  A    between atoms: C_7  and  C_9
REMARK    4  A    between atoms: C_13  and  C_22
REMARK    5  A    between atoms: N_24  and  C_25
REMARK                            x       y       z     vdW  Elec       q    Type
REMARK                         _______ _______ _______ _____ _____    ______ ____
ROOT
ATOM      1  C   UNL     1       1.425  -3.909   2.129  0.00  0.00    +0.248 C 
ATOM      2  O   UNL     1       2.012  -4.415   3.066  0.00  0.00    -0.270 OA
ATOM      3  N   UNL     1       0.751  -4.686   1.258  0.00  0.00    -0.296 N 
ATOM      4  C   UNL     1       0.069  -4.270   0.009  0.00  0.00    +0.121 C 
ATOM      5  C   UNL     1       0.371  -5.404  -0.997  0.00  0.00    +0.100 C 
ATOM      6  C   UNL     1       0.669  -6.634  -0.124  0.00  0.00    -0.004 C 
ATOM      7  C   UNL     1       0.532  -6.151   1.327  0.00  0.00    +0.115 C 
ATOM      8  C   UNL     1      -0.341  -7.742  -0.410  0.00  0.00    -0.010 C 
ATOM      9  C   UNL     1       0.011  -8.975   0.427  0.00  0.00    -0.082 C 
ATOM     10  N   UNL     1       1.367  -9.425   0.094  0.00  0.00    +0.379 N 
ATOM     11  C   UNL     1       2.342  -8.389   0.459  0.00  0.00    -0.082 C 
ATOM     12  C   UNL     1       2.089  -7.131  -0.377  0.00  0.00    -0.010 C 
ATOM     13  H   UNL     1       1.574 -10.272   0.601  0.00  0.00    -0.086 HD
ATOM     14  H   UNL     1       1.427  -9.606  -0.897  0.00  0.00    -0.086 HD
ENDROOT
BRANCH   1  19
ATOM     15  C   UNL     1       0.348  -0.405   1.299  0.00  0.00    +0.121 A 
ATOM     16  C   UNL     1       1.500   0.309   1.604  0.00  0.00    +0.047 A 
ATOM     17  C   UNL     1       2.621  -0.347   2.077  0.00  0.00    +0.019 A 
ATOM     18  C   UNL     1       2.603  -1.717   2.250  0.00  0.00    +0.030 A 
ATOM     19  C   UNL     1       1.448  -2.443   1.946  0.00  0.00    +0.054 A 
ATOM     20  C   UNL     1       0.317  -1.777   1.474  0.00  0.00    +0.059 A 
ATOM     21 BR   UNL     1       4.139  -2.610   2.897  0.00  0.00    -0.050 Br
BRANCH  15  23
ATOM     22  C   UNL     1      -0.647   1.663   0.678  0.00  0.00    +0.277 C 
ATOM     23  O   UNL     1      -0.750   0.246   0.834  0.00  0.00    -0.495 OA
ENDBRANCH  15  23
ENDBRANCH   1  19
BRANCH   5  24
ATOM     24  C   UNL     1      -0.826  -5.658  -1.876  0.00  0.00    +0.219 C 
ATOM     25  O   UNL     1      -1.945  -5.473  -1.445  0.00  0.00    -0.275 OA
ATOM     26  N   UNL     1      -0.654  -6.091  -3.140  0.00  0.00    -0.304 N 
ATOM     27  H   UNL     1       0.241  -6.239  -3.485  0.00  0.00    +0.149 HD
BRANCH  26  28
ATOM     28  C   UNL     1      -1.818  -6.338  -3.995  0.00  0.00    +0.151 C 
ATOM     29  C   UNL     1      -1.453  -7.394  -5.039  0.00  0.00    +0.042 C 
ATOM     30  C   UNL     1      -2.419  -7.227  -6.236  0.00  0.00    +0.079 C 
ATOM     31  S   UNL     1      -2.783  -5.430  -6.171  0.00  0.00    -0.086 S 
ATOM     32  C   UNL     1      -2.243  -5.037  -4.633  0.00  0.00    +0.209 C 
ATOM     33  O   UNL     1      -2.204  -3.931  -4.135  0.00  0.00    -0.283 OA
ENDBRANCH  26  28
ENDBRANCH   5  24
TORSDOF 4
