REMARK  Name = ZINC19651274
REMARK  10 active torsions:
REMARK  status: ('A' for Active; 'I' for Inactive)
REMARK    1  A    between atoms: C_1  and  C_2
REMARK    2  A    between atoms: C_5  and  C_33
REMARK    3  A    between atoms: C_6  and  N_8
REMARK    4  A    between atoms: C_9  and  C_11
REMARK    5  A    between atoms: C_11  and  C_13
REMARK    6  A    between atoms: C_11  and  N_14
REMARK    7  A    between atoms: C_25  and  C_29
REMARK    8  A    between atoms: C_29  and  C_30
REMARK    9  A    between atoms: C_29  and  C_31
REMARK   10  A    between atoms: C_29  and  C_32
REMARK                            x       y       z     vdW  Elec       q    Type
REMARK                         _______ _______ _______ _____ _____    ______ ____
ROOT
ATOM      1  N   UNL     1      -2.824   3.790  -0.061  0.00  0.00    -0.199 N 
ATOM      2  C   UNL     1      -3.376   4.434  -1.107  0.00  0.00    +0.279 A 
ATOM      3  O   UNL     1      -2.704   4.730  -2.080  0.00  0.00    -0.265 OA
ATOM      4  C   UNL     1      -4.772   4.765  -1.055  0.00  0.00    +0.079 A 
ATOM      5  C   UNL     1      -5.573   5.455  -2.064  0.00  0.00    -0.023 A 
ATOM      6  C   UNL     1      -6.879   5.652  -1.780  0.00  0.00    -0.004 A 
ATOM      7  S   UNL     1      -7.112   4.939  -0.174  0.00  0.00    -0.071 S 
ATOM      8  C   UNL     1      -5.451   4.378   0.111  0.00  0.00    +0.138 A 
ATOM      9  N   UNL     1      -4.846   3.744   1.110  0.00  0.00    -0.123 NA
ATOM     10  N   UNL     1      -3.594   3.445   1.054  0.00  0.00    -0.061 NA
ATOM     11  C   UNL     1      -7.903   6.328  -2.640  0.00  0.00    +0.046 C 
ATOM     12  C   UNL     1      -7.171   7.101  -3.746  0.00  0.00    -0.000 C 
ATOM     13  C   UNL     1      -6.120   6.181  -4.376  0.00  0.00    +0.009 C 
ATOM     14  C   UNL     1      -4.981   5.938  -3.385  0.00  0.00    +0.037 C 
ENDROOT
BRANCH  12  15
ATOM     15  C   UNL     1      -8.174   7.541  -4.815  0.00  0.00    -0.035 C 
ATOM     16  C   UNL     1      -9.232   8.444  -4.179  0.00  0.00    +0.011 C 
ATOM     17  C   UNL     1      -7.441   8.311  -5.915  0.00  0.00    +0.011 C 
ATOM     18  C   UNL     1      -8.850   6.308  -5.418  0.00  0.00    +0.011 C 
ENDBRANCH  12  15
BRANCH   1  19
ATOM     19  C   UNL     1      -1.401   3.443  -0.095  0.00  0.00    +0.195 C 
ATOM     20  C   UNL     1      -0.683   4.120   1.074  0.00  0.00    +0.043 C 
BRANCH  19  22
ATOM     21  N   UNL     1      -0.017   1.395   0.010  0.00  0.00    -0.284 N 
ATOM     22  C   UNL     1      -1.246   1.948   0.018  0.00  0.00    +0.242 C 
ATOM     23  O   UNL     1      -2.228   1.242   0.117  0.00  0.00    -0.273 OA
ATOM     24  H   UNL     1       0.875   2.038  -0.005  0.00  0.00    +0.155 HD
BRANCH  21  30
ATOM     25  C   UNL     1      -1.627  -3.011   1.480  0.00  0.00    +0.044 C 
ATOM     26  C   UNL     1      -0.642  -2.157   0.725  0.00  0.00    -0.049 A 
ATOM     27  C   UNL     1       0.404  -2.750   0.041  0.00  0.00    +0.004 A 
ATOM     28  C   UNL     1       1.310  -1.970  -0.654  0.00  0.00    +0.005 A 
ATOM     29  C   UNL     1       1.173  -0.595  -0.666  0.00  0.00    -0.029 A 
ATOM     30  C   UNL     1       0.124   0.003   0.020  0.00  0.00    +0.037 A 
ATOM     31  C   UNL     1      -0.781  -0.783   0.721  0.00  0.00    +0.027 A 
ATOM     32  C   UNL     1       2.162   0.255  -1.422  0.00  0.00    +0.045 C 
ENDBRANCH  21  30
ENDBRANCH  19  22
ENDBRANCH   1  19
TORSDOF 4
