REMARK  Name = ZINC39696120
REMARK  9 active torsions:
REMARK  status: ('A' for Active; 'I' for Inactive)
REMARK    1  A    between atoms: C_1  and  C_2
REMARK    2  A    between atoms: C_2  and  C_3
REMARK    3  A    between atoms: C_6  and  C_9
REMARK    4  A    between atoms: C_9  and  C_11
REMARK    5  A    between atoms: C_9  and  N_12
REMARK    6  A    between atoms: C_13  and  C_15
REMARK    7  A    between atoms: C_26  and  C_28
REMARK    8  A    between atoms: C_28  and  O_29
REMARK    9  A    between atoms: O_29  and  C_30
REMARK                            x       y       z     vdW  Elec       q    Type
REMARK                         _______ _______ _______ _____ _____    ______ ____
ROOT
ATOM      1  C   UNL     1       1.741  -4.917   6.817  0.00  0.00    +0.100 C 
ATOM      2  C   UNL     1       0.926  -5.722   5.781  0.00  0.00    +0.121 C 
ATOM      3  N   UNL     1       1.752  -6.921   5.503  0.00  0.00    -0.297 N 
ATOM      4  C   UNL     1       2.308  -7.299   6.824  0.00  0.00    +0.115 C 
ATOM      5  C   UNL     1       2.645  -5.956   7.502  0.00  0.00    -0.004 C 
ATOM      6  C   UNL     1       2.333  -6.025   8.994  0.00  0.00    -0.010 C 
ATOM      7  C   UNL     1       3.284  -7.022   9.664  0.00  0.00    -0.082 C 
ATOM      8  N   UNL     1       4.672  -6.595   9.452  0.00  0.00    +0.379 N 
ATOM      9  C   UNL     1       4.991  -6.621   8.020  0.00  0.00    -0.082 C 
ATOM     10  C   UNL     1       4.113  -5.607   7.281  0.00  0.00    -0.010 C 
ATOM     11  C   UNL     1       1.952  -7.529   4.317  0.00  0.00    +0.253 C 
ATOM     12  O   UNL     1       2.662  -8.510   4.252  0.00  0.00    -0.272 OA
ATOM     13  H   UNL     1       4.792  -5.657   9.805  0.00  0.00    -0.086 HD
ATOM     14  H   UNL     1       5.293  -7.219   9.945  0.00  0.00    -0.086 HD
ENDROOT
BRANCH   1  16
ATOM     15  N   UNL     1       2.899  -2.731   6.774  0.00  0.00    -0.308 N 
ATOM     16  C   UNL     1       2.577  -3.869   6.128  0.00  0.00    +0.219 C 
ATOM     17  O   UNL     1       2.959  -4.050   4.991  0.00  0.00    -0.275 OA
ATOM     18  H   UNL     1       2.593  -2.587   7.683  0.00  0.00    +0.149 HD
BRANCH  15  19
ATOM     19  C   UNL     1       3.711  -1.713   6.104  0.00  0.00    +0.100 C 
ATOM     20  C   UNL     1       5.193  -2.053   6.268  0.00  0.00    +0.033 C 
BRANCH  19  24
ATOM     21  C   UNL     1       2.922   2.107   7.845  0.00  0.00    -0.048 A 
ATOM     22  C   UNL     1       3.084   1.992   6.478  0.00  0.00    +0.004 A 
ATOM     23  C   UNL     1       3.339   0.755   5.914  0.00  0.00    +0.006 A 
ATOM     24  C   UNL     1       3.433  -0.365   6.718  0.00  0.00    -0.027 A 
ATOM     25  C   UNL     1       3.272  -0.249   8.086  0.00  0.00    +0.006 A 
ATOM     26  C   UNL     1       3.021   0.988   8.650  0.00  0.00    +0.004 A 
BRANCH  21  28
ATOM     27  C   UNL     1       3.966   4.139   8.810  0.00  0.00    +0.009 C 
ATOM     28  C   UNL     1       2.643   3.455   8.460  0.00  0.00    +0.032 C 
ENDBRANCH  21  28
ENDBRANCH  19  24
ENDBRANCH  15  19
ENDBRANCH   1  16
BRANCH  11  29
ATOM     29  C   UNL     1       1.294  -6.990   3.073  0.00  0.00    +0.324 C 
BRANCH  29  30
ATOM     30  O   UNL     1       1.657  -7.801   1.954  0.00  0.00    -0.483 OA
BRANCH  30  31
ATOM     31  C   UNL     1       1.145  -7.449   0.745  0.00  0.00    +0.123 A 
ATOM     32  C   UNL     1       0.314  -6.343   0.638  0.00  0.00    +0.046 A 
ATOM     33  C   UNL     1      -0.206  -5.986  -0.591  0.00  0.00    +0.005 A 
ATOM     34  C   UNL     1       0.101  -6.730  -1.715  0.00  0.00    +0.020 A 
ATOM     35  C   UNL     1       0.928  -7.834  -1.612  0.00  0.00    +0.044 A 
ATOM     36  C   UNL     1       1.456  -8.191  -0.384  0.00  0.00    +0.065 A 
ATOM     37 CL   UNL     1       1.311  -8.767  -3.025  0.00  0.00    -0.083 Cl
ENDBRANCH  30  31
ENDBRANCH  29  30
ENDBRANCH  11  29
TORSDOF 7
