REMARK  Name = ZINC26542067
REMARK  4 active torsions:
REMARK  status: ('A' for Active; 'I' for Inactive)
REMARK    1  A    between atoms: C_4  and  N_17
REMARK    2  A    between atoms: C_5  and  N_7
REMARK    3  A    between atoms: N_7  and  S_8
REMARK    4  A    between atoms: S_8  and  C_11
REMARK                            x       y       z     vdW  Elec       q    Type
REMARK                         _______ _______ _______ _____ _____    ______ ____
ROOT
ATOM      1  C   UNL     1      -0.560   5.544  -1.423  0.00  0.00    +0.002 A 
ATOM      2  C   UNL     1      -1.809   5.912  -1.890  0.00  0.00    +0.002 A 
ATOM      3  C   UNL     1      -2.760   4.948  -2.166  0.00  0.00    +0.030 A 
ATOM      4  C   UNL     1      -2.463   3.607  -1.976  0.00  0.00    +0.091 A 
ATOM      5  C   UNL     1      -1.204   3.235  -1.506  0.00  0.00    +0.100 A 
ATOM      6  C   UNL     1      -0.257   4.211  -1.225  0.00  0.00    +0.029 A 
ENDROOT
BRANCH   4   7
ATOM      7  N   UNL     1      -3.426   2.626  -2.257  0.00  0.00    -0.218 N 
ATOM      8  C   UNL     1      -4.678   2.830  -2.709  0.00  0.00    +0.225 A 
ATOM      9  N   UNL     1      -5.255   1.663  -2.847  0.00  0.00    -0.222 NA
ATOM     10  C   UNL     1      -4.411   0.697  -2.486  0.00  0.00    +0.245 A 
ATOM     11  N   UNL     1      -3.279   1.236  -2.118  0.00  0.00    -0.153 NA
ENDBRANCH   4   7
BRANCH   5  12
ATOM     12  N   UNL     1      -0.897   1.885  -1.312  0.00  0.00    -0.095 NA
BRANCH  12  13
ATOM     13  S   UNL     1       0.067   1.428  -0.046  0.00  0.00    +0.098 S 
ATOM     14  O   UNL     1       0.080   0.007  -0.038  0.00  0.00    -0.148 OA
ATOM     15  O   UNL     1       1.256   2.201  -0.142  0.00  0.00    -0.148 OA
BRANCH  13  16
ATOM     16  C   UNL     1      -0.743   1.933   1.435  0.00  0.00    +0.149 A 
ATOM     17  C   UNL     1      -1.632   1.251   2.196  0.00  0.00    +0.038 A 
ATOM     18  C   UNL     1      -2.145   1.852   3.331  0.00  0.00    +0.025 A 
ATOM     19  C   UNL     1      -1.742   3.108   3.647  0.00  0.00    +0.057 A 
ATOM     20  S   UNL     1      -0.599   3.474   2.326  0.00  0.00    -0.061 S 
ATOM     21 BR   UNL     1      -2.252   4.188   5.113  0.00  0.00    -0.043 Br
ENDBRANCH  13  16
ENDBRANCH  12  13
ENDBRANCH   5  12
TORSDOF 4
