REMARK  Name = ZINC39686916
REMARK  8 active torsions:
REMARK  status: ('A' for Active; 'I' for Inactive)
REMARK    1  A    between atoms: C_1  and  C_2
REMARK    2  A    between atoms: C_2  and  C_4
REMARK    3  A    between atoms: C_2  and  N_12
REMARK    4  A    between atoms: C_4  and  C_5
REMARK    5  A    between atoms: C_13  and  C_15
REMARK    6  A    between atoms: C_26  and  C_28
REMARK    7  A    between atoms: C_31  and  O_34
REMARK    8  A    between atoms: O_34  and  C_35
REMARK                            x       y       z     vdW  Elec       q    Type
REMARK                         _______ _______ _______ _____ _____    ______ ____
ROOT
ATOM      1  C   UNL     1       1.268  -1.372   3.945  0.00  0.00    +0.100 C 
ATOM      2  C   UNL     1       2.289  -0.218   4.064  0.00  0.00    +0.121 C 
ATOM      3  N   UNL     1       1.690   0.712   5.050  0.00  0.00    -0.296 N 
ATOM      4  C   UNL     1       1.085  -0.174   6.073  0.00  0.00    +0.115 C 
ATOM      5  C   UNL     1       0.482  -1.342   5.267  0.00  0.00    -0.004 C 
ATOM      6  C   UNL     1      -0.997  -1.086   4.996  0.00  0.00    -0.010 C 
ATOM      7  C   UNL     1      -1.766  -1.117   6.319  0.00  0.00    -0.082 C 
ATOM      8  N   UNL     1      -1.585  -2.424   6.962  0.00  0.00    +0.379 N 
ATOM      9  C   UNL     1      -0.171  -2.623   7.303  0.00  0.00    -0.082 C 
ATOM     10  C   UNL     1       0.665  -2.655   6.021  0.00  0.00    -0.010 C 
ATOM     11  C   UNL     1       1.694   2.059   5.023  0.00  0.00    +0.247 C 
ATOM     12  O   UNL     1       2.138   2.646   4.055  0.00  0.00    -0.270 OA
ATOM     13  H   UNL     1      -2.141  -2.464   7.803  0.00  0.00    -0.086 HD
ATOM     14  H   UNL     1      -1.883  -3.152   6.330  0.00  0.00    -0.086 HD
ENDROOT
BRANCH  11  15
ATOM     15  C   UNL     1       1.159   2.822   6.167  0.00  0.00    +0.037 A 
ATOM     16  C   UNL     1       1.067   2.224   7.427  0.00  0.00    +0.016 A 
ATOM     17  C   UNL     1       0.568   2.939   8.492  0.00  0.00    +0.047 A 
ATOM     18  C   UNL     1       0.156   4.255   8.316  0.00  0.00    +0.130 A 
ATOM     19  C   UNL     1       0.246   4.854   7.065  0.00  0.00    +0.047 A 
ATOM     20  C   UNL     1       0.749   4.147   5.996  0.00  0.00    +0.016 A 
BRANCH  18  21
ATOM     21  O   UNL     1      -0.336   4.956   9.369  0.00  0.00    -0.406 OA
BRANCH  21  22
ATOM     22  C   UNL     1      -0.741   6.303   9.118  0.00  0.00    +0.575 C 
ATOM     23  F   UNL     1      -1.754   6.314   8.153  0.00  0.00    -0.133 F 
ATOM     24  F   UNL     1      -1.219   6.875  10.302  0.00  0.00    -0.133 F 
ATOM     25  F   UNL     1       0.353   7.041   8.654  0.00  0.00    -0.133 F 
ENDBRANCH  21  22
ENDBRANCH  18  21
ENDBRANCH  11  15
BRANCH   1  27
ATOM     26  N   UNL     1      -0.176  -2.182   2.108  0.00  0.00    -0.312 N 
ATOM     27  C   UNL     1       0.343  -1.135   2.779  0.00  0.00    +0.218 C 
ATOM     28  O   UNL     1       0.067  -0.003   2.445  0.00  0.00    -0.275 OA
ATOM     29  H   UNL     1       0.045  -3.088   2.375  0.00  0.00    +0.149 HD
BRANCH  26  31
ATOM     30  C   UNL     1      -0.250  -1.736  -0.296  0.00  0.00    +0.028 C 
ATOM     31  C   UNL     1      -1.075  -1.952   0.974  0.00  0.00    +0.074 C 
BRANCH  31  32
ATOM     32  C   UNL     1      -1.985  -3.168   0.790  0.00  0.00    +0.060 C 
BRANCH  32  33
ATOM     33  C   UNL     1      -2.885  -3.309   1.990  0.00  0.00    -0.010 A 
ATOM     34  C   UNL     1      -2.524  -4.144   3.031  0.00  0.00    +0.006 A 
ATOM     35  C   UNL     1      -3.349  -4.273   4.132  0.00  0.00    +0.000 A 
ATOM     36  C   UNL     1      -4.537  -3.567   4.194  0.00  0.00    +0.003 A 
ATOM     37  C   UNL     1      -4.900  -2.732   3.155  0.00  0.00    +0.038 A 
ATOM     38  C   UNL     1      -4.071  -2.598   2.054  0.00  0.00    +0.127 A 
ATOM     39  F   UNL     1      -4.423  -1.778   1.039  0.00  0.00    -0.205 F 
ENDBRANCH  32  33
ENDBRANCH  31  32
ENDBRANCH  26  31
ENDBRANCH   1  27
TORSDOF 7
