REMARK  Name = ZINC64015626
REMARK  11 active torsions:
REMARK  status: ('A' for Active; 'I' for Inactive)
REMARK    1  A    between atoms: C_1  and  C_2
REMARK    2  A    between atoms: C_7  and  C_32
REMARK    3  A    between atoms: C_8  and  C_12
REMARK    4  A    between atoms: C_12  and  N_13
REMARK    5  A    between atoms: N_16  and  C_23
REMARK    6  A    between atoms: C_17  and  C_20
REMARK    7  A    between atoms: C_20  and  C_21
REMARK    8  A    between atoms: C_21  and  O_22
REMARK    9  A    between atoms: N_26  and  C_29
REMARK   10  A    between atoms: C_29  and  C_30
REMARK   11  A    between atoms: C_29  and  C_31
REMARK                            x       y       z     vdW  Elec       q    Type
REMARK                         _______ _______ _______ _____ _____    ______ ____
ROOT
ATOM      1  N   UNL     1      -1.486  -0.331   5.090  0.00  0.00    -0.297 NA
ATOM      2  C   UNL     1      -0.352  -0.344   6.025  0.00  0.00    +0.100 C 
ATOM      3  C   UNL     1      -0.255   1.014   6.724  0.00  0.00    +0.100 C 
ATOM      4  N   UNL     1      -1.514   1.289   7.431  0.00  0.00    -0.294 NA
ATOM      5  C   UNL     1      -2.648   1.302   6.497  0.00  0.00    +0.073 C 
ATOM      6  C   UNL     1      -2.745  -0.056   5.797  0.00  0.00    +0.103 C 
ENDROOT
BRANCH   4   7
ATOM      7  C   UNL     1      -1.433   2.551   8.179  0.00  0.00    +0.054 C 
ATOM      8  C   UNL     1      -1.056   3.688   7.224  0.00  0.00    +0.000 C 
ATOM      9  C   UNL     1      -0.896   4.984   8.022  0.00  0.00    -0.077 C 
ATOM     10  N   UNL     1       0.160   4.816   9.028  0.00  0.00    +0.381 N 
ATOM     11  C   UNL     1      -0.227   3.777   9.989  0.00  0.00    -0.077 C 
ATOM     12  C   UNL     1      -0.362   2.434   9.267  0.00  0.00    +0.000 C 
ATOM     13  H   UNL     1       1.019   4.548   8.571  0.00  0.00    -0.081 HD
BRANCH  10  14
ATOM     14  C   UNL     1       0.364   6.086   9.738  0.00  0.00    -0.075 C 
ATOM     15  C   UNL     1       1.464   5.913  10.787  0.00  0.00    -0.014 C 
ATOM     16  C   UNL     1       0.777   7.169   8.739  0.00  0.00    -0.014 C 
ENDBRANCH  10  14
ENDBRANCH   4   7
BRANCH   1  17
ATOM     17  C   UNL     1      -1.567  -1.593   4.342  0.00  0.00    +0.113 C 
BRANCH  17  25
ATOM     18  C   UNL     1      -0.224   1.123  -0.037  0.00  0.00    +0.046 C 
ATOM     19  C   UNL     1      -0.344  -0.378   0.018  0.00  0.00    -0.027 A 
ATOM     20  C   UNL     1      -0.438  -1.086  -1.128  0.00  0.00    +0.005 A 
ATOM     21  C   UNL     1      -0.552  -2.483  -1.147  0.00  0.00    +0.001 A 
ATOM     22  C   UNL     1      -0.575  -3.210  -0.007  0.00  0.00    +0.010 A 
ATOM     23  C   UNL     1      -0.478  -2.516   1.282  0.00  0.00    -0.001 A 
ATOM     24  C   UNL     1      -0.474  -2.956   2.562  0.00  0.00    -0.040 C 
ATOM     25  C   UNL     1      -0.347  -1.723   3.428  0.00  0.00    +0.120 C 
ATOM     26  N   UNL     1      -0.283  -0.586   2.503  0.00  0.00    -0.376 N 
ATOM     27  C   UNL     1      -0.353  -1.041   1.276  0.00  0.00    +0.046 A 
ATOM     28  C   UNL     1      -0.576  -4.385   3.029  0.00  0.00    +0.042 C 
ATOM     29  H   UNL     1      -0.200   0.347   2.757  0.00  0.00    +0.160 HD
ENDBRANCH  17  25
ENDBRANCH   1  17
BRANCH   5  30
ATOM     30  C   UNL     1      -3.941   1.573   7.267  0.00  0.00    +0.048 C 
BRANCH  30  31
ATOM     31  C   UNL     1      -5.112   1.660   6.285  0.00  0.00    +0.157 C 
BRANCH  31  32
ATOM     32  O   UNL     1      -6.301   2.017   6.992  0.00  0.00    -0.395 OA
ATOM     33  H   UNL     1      -7.085   2.090   6.430  0.00  0.00    +0.209 HD
ENDBRANCH  31  32
ENDBRANCH  30  31
ENDBRANCH   5  30
TORSDOF 7
