REMARK  Name = ZINC08277100
REMARK  3 active torsions:
REMARK  status: ('A' for Active; 'I' for Inactive)
REMARK    1  A    between atoms: C_1  and  C_2
REMARK    2  A    between atoms: C_9  and  C_18
REMARK    3  A    between atoms: C_20  and  N_25
REMARK                            x       y       z     vdW  Elec       q    Type
REMARK                         _______ _______ _______ _____ _____    ______ ____
ROOT
ATOM      1  C   UNL     1      -0.871   7.280  -1.654  0.00  0.00    +0.047 C 
ATOM      2  C   UNL     1      -0.714   6.967  -0.188  0.00  0.00    -0.011 A 
ATOM      3  C   UNL     1       0.320   7.534   0.529  0.00  0.00    +0.046 A 
ATOM      4  C   UNL     1       0.461   7.245   1.875  0.00  0.00    +0.020 A 
ATOM      5  C   UNL     1      -0.430   6.393   2.496  0.00  0.00    +0.007 A 
ATOM      6  C   UNL     1      -1.473   5.819   1.782  0.00  0.00    -0.019 A 
ATOM      7  C   UNL     1      -1.615   6.107   0.437  0.00  0.00    +0.036 A 
ATOM      8  N   UNL     1      -2.643   5.562  -0.333  0.00  0.00    -0.336 N 
ATOM      9  C   UNL     1      -3.071   4.261   0.184  0.00  0.00    +0.106 C 
ATOM     10  C   UNL     1      -3.550   4.404   1.620  0.00  0.00    +0.029 C 
ATOM     11  C   UNL     1      -2.404   4.898   2.526  0.00  0.00    +0.049 C 
ATOM     12  C   UNL     1      -3.125   5.712   3.587  0.00  0.00    -0.023 C 
ATOM     13  C   UNL     1      -4.301   6.093   3.155  0.00  0.00    -0.030 C 
ATOM     14  C   UNL     1      -4.536   5.591   1.743  0.00  0.00    +0.033 C 
ATOM     15 CL   UNL     1       1.440   8.604  -0.255  0.00  0.00    -0.083 Cl
ATOM     16  H   UNL     1      -2.371   5.494  -1.302  0.00  0.00    +0.147 HD
ENDROOT
BRANCH   9  17
ATOM     17  C   UNL     1      -1.913   3.297   0.136  0.00  0.00    -0.007 A 
ATOM     18  C   UNL     1      -1.554   2.592   1.269  0.00  0.00    +0.039 A 
ATOM     19  C   UNL     1      -0.492   1.708   1.226  0.00  0.00    +0.127 A 
ATOM     20  C   UNL     1       0.211   1.529   0.049  0.00  0.00    +0.034 A 
ATOM     21  C   UNL     1      -0.147   2.234  -1.085  0.00  0.00    +0.022 A 
ATOM     22  C   UNL     1      -1.207   3.122  -1.040  0.00  0.00    +0.046 A 
ATOM     23 CL   UNL     1      -1.654   4.013  -2.462  0.00  0.00    -0.083 Cl
BRANCH  19  24
ATOM     24  N   UNL     1      -0.107   0.954   2.439  0.00  0.00    +0.056 N 
ATOM     25  O   UNL     1       0.829   0.175   2.401  0.00  0.00    -0.126 OA
ATOM     26  O   UNL     1      -0.726   1.111   3.476  0.00  0.00    -0.126 OA
ENDBRANCH  19  24
ENDBRANCH   9  17
TORSDOF 2
