REMARK  Name = ZINC13271661
REMARK  11 active torsions:
REMARK  status: ('A' for Active; 'I' for Inactive)
REMARK    1  A    between atoms: C_1  and  C_2
REMARK    2  A    between atoms: C_2  and  C_4
REMARK    3  A    between atoms: C_2  and  S_17
REMARK    4  A    between atoms: N_6  and  C_7
REMARK    5  A    between atoms: S_17  and  C_18
REMARK    6  A    between atoms: C_21  and  C_31
REMARK    7  A    between atoms: N_22  and  C_23
REMARK    8  A    between atoms: C_23  and  C_25
REMARK    9  A    between atoms: C_23  and  C_28
REMARK   10  A    between atoms: C_25  and  C_26
REMARK   11  A    between atoms: C_25  and  C_27
REMARK                            x       y       z     vdW  Elec       q    Type
REMARK                         _______ _______ _______ _____ _____    ______ ____
ROOT
ATOM      1  S   UNL     1       0.849  -0.593  -1.492  0.00  0.00    -0.073 S 
ENDROOT
BRANCH   1   2
ATOM      2  C   UNL     1       2.510  -0.043  -1.286  0.00  0.00    +0.193 A 
ATOM      3  N   UNL     1       2.987   0.628  -0.262  0.00  0.00    -0.122 NA
ATOM      4  N   UNL     1       4.237   0.868  -0.433  0.00  0.00    -0.128 NA
ATOM      5  C   UNL     1       4.638   0.365  -1.580  0.00  0.00    +0.172 A 
ATOM      6  N   UNL     1       3.544  -0.239  -2.158  0.00  0.00    -0.287 N 
BRANCH   5   7
ATOM      7  C   UNL     1       5.999   0.430  -2.136  0.00  0.00    +0.056 A 
ATOM      8  C   UNL     1       7.176   0.748  -1.508  0.00  0.00    +0.019 A 
ATOM      9  C   UNL     1       8.341   0.742  -2.242  0.00  0.00    +0.008 A 
ATOM     10  C   UNL     1       8.290   0.422  -3.561  0.00  0.00    +0.046 A 
ATOM     11  S   UNL     1       6.549   0.106  -3.804  0.00  0.00    -0.094 S 
ENDBRANCH   5   7
BRANCH   6  12
ATOM     12  C   UNL     1       3.498  -0.944  -3.442  0.00  0.00    +0.206 C 
BRANCH  12  13
ATOM     13  C   UNL     1       2.496  -0.251  -4.368  0.00  0.00    +0.017 C 
ATOM     14  C   UNL     1       2.932   1.198  -4.597  0.00  0.00    +0.010 C 
ATOM     15  C   UNL     1       2.448  -0.986  -5.709  0.00  0.00    +0.010 C 
ENDBRANCH  12  13
BRANCH  12  16
ATOM     16  C   UNL     1       3.069  -2.371  -3.217  0.00  0.00    +0.379 C 
ATOM     17  O   UNL     1       2.056  -2.794  -3.748  0.00  0.00    -0.244 OA
ATOM     18  O   UNL     1       3.734  -3.102  -2.503  0.00  0.00    -0.244 OA
ENDBRANCH  12  16
ENDBRANCH   6  12
ENDBRANCH   1   2
BRANCH   1  20
ATOM     19  C   UNL     1      -0.008   1.520   0.019  0.00  0.00    +0.029 C 
ATOM     20  C   UNL     1       0.004  -0.010   0.003  0.00  0.00    +0.137 C 
BRANCH  20  21
ATOM     21  C   UNL     1      -1.412  -0.524   0.013  0.00  0.00    +0.230 C 
ATOM     22  O   UNL     1      -1.931  -0.891  -1.021  0.00  0.00    -0.274 OA
ATOM     23  N   UNL     1      -2.103  -0.575   1.169  0.00  0.00    -0.284 N 
ATOM     24  H   UNL     1      -1.668  -0.345   2.004  0.00  0.00    +0.155 HD
BRANCH  23  25
ATOM     25  C   UNL     1      -3.450  -0.960   1.163  0.00  0.00    +0.037 A 
ATOM     26  C   UNL     1      -4.344  -0.374   2.050  0.00  0.00    +0.027 A 
ATOM     27  C   UNL     1      -5.671  -0.755   2.046  0.00  0.00    +0.051 A 
ATOM     28  C   UNL     1      -6.117  -1.722   1.156  0.00  0.00    +0.162 A 
ATOM     29  C   UNL     1      -5.225  -2.308   0.266  0.00  0.00    +0.164 A 
ATOM     30  C   UNL     1      -3.893  -1.924   0.268  0.00  0.00    +0.072 A 
ATOM     31  O   UNL     1      -5.645  -3.253  -0.620  0.00  0.00    -0.485 OA
ATOM     32  C   UNL     1      -6.904  -3.877  -0.346  0.00  0.00    +0.270 C 
ATOM     33  C   UNL     1      -7.915  -2.781   0.016  0.00  0.00    +0.270 C 
ATOM     34  O   UNL     1      -7.429  -2.086   1.169  0.00  0.00    -0.485 OA
ENDBRANCH  23  25
ENDBRANCH  20  21
ENDBRANCH   1  20
TORSDOF 8
