REMARK  Name = ZINC63625432
REMARK  11 active torsions:
REMARK  status: ('A' for Active; 'I' for Inactive)
REMARK    1  A    between atoms: C_1  and  C_2
REMARK    2  A    between atoms: C_2  and  O_3
REMARK    3  A    between atoms: O_3  and  C_4
REMARK    4  A    between atoms: C_4  and  C_6
REMARK    5  A    between atoms: C_7  and  C_33
REMARK    6  A    between atoms: C_8  and  C_13
REMARK    7  A    between atoms: C_10  and  C_12
REMARK    8  A    between atoms: C_18  and  C_21
REMARK    9  A    between atoms: C_21  and  C_22
REMARK   10  A    between atoms: N_24  and  C_25
REMARK   11  A    between atoms: C_25  and  C_26
REMARK                            x       y       z     vdW  Elec       q    Type
REMARK                         _______ _______ _______ _____ _____    ______ ____
ROOT
ATOM      1  C   UNL     1       3.760  -4.457   3.797  0.00  0.00    +0.228 C 
ATOM      2  O   UNL     1       4.036  -4.929   2.715  0.00  0.00    -0.275 OA
ATOM      3  N   UNL     1       4.640  -4.544   4.814  0.00  0.00    -0.301 N 
ATOM      4  C   UNL     1       4.274  -4.084   6.161  0.00  0.00    +0.108 C 
ATOM      5  C   UNL     1       4.531  -5.220   7.156  0.00  0.00    +0.023 C 
ATOM      6  C   UNL     1       5.981  -5.690   7.025  0.00  0.00    +0.001 C 
ATOM      7  C   UNL     1       6.220  -6.224   5.610  0.00  0.00    +0.023 C 
ATOM      8  C   UNL     1       5.980  -5.105   4.599  0.00  0.00    +0.108 C 
ENDROOT
BRANCH   1  11
ATOM      9  C   UNL     1       0.453  -4.686   3.360  0.00  0.00    +0.148 C 
ATOM     10  C   UNL     1       1.357  -4.785   4.352  0.00  0.00    -0.023 C 
ATOM     11  C   UNL     1       2.433  -3.773   4.004  0.00  0.00    +0.147 C 
ATOM     12  C   UNL     1       1.930  -3.168   2.709  0.00  0.00    +0.033 C 
ATOM     13  N   UNL     1       0.817  -3.754   2.435  0.00  0.00    -0.249 NA
ATOM     14  C   UNL     1       2.605  -2.093   1.896  0.00  0.00    +0.062 C 
ATOM     15  C   UNL     1       1.311  -5.701   5.547  0.00  0.00    +0.042 C 
BRANCH   9  16
ATOM     16  C   UNL     1      -0.781  -5.494   3.281  0.00  0.00    +0.358 C 
ATOM     17  O   UNL     1      -1.032  -6.305   4.149  0.00  0.00    -0.243 OA
BRANCH  16  18
ATOM     18  O   UNL     1      -1.627  -5.330   2.246  0.00  0.00    -0.460 OA
BRANCH  18  20
ATOM     19  C   UNL     1      -3.634  -5.820   0.991  0.00  0.00    +0.048 C 
ATOM     20  C   UNL     1      -2.802  -6.144   2.233  0.00  0.00    +0.229 C 
ENDBRANCH  18  20
ENDBRANCH  16  18
ENDBRANCH   9  16
ENDBRANCH   1  11
BRANCH   6  21
ATOM     21  C   UNL     1       6.251  -6.801   8.041  0.00  0.00    +0.099 C 
BRANCH  21  22
ATOM     22  C   UNL     1       7.709  -7.179   7.997  0.00  0.00    +0.214 C 
ATOM     23  O   UNL     1       8.459  -6.616   7.228  0.00  0.00    -0.276 OA
ATOM     24  N   UNL     1       8.180  -8.144   8.812  0.00  0.00    -0.311 N 
ATOM     25  H   UNL     1       7.581  -8.595   9.427  0.00  0.00    +0.149 HD
BRANCH  24  26
ATOM     26  C   UNL     1       9.598  -8.512   8.768  0.00  0.00    +0.142 C 
BRANCH  26  27
ATOM     27  C   UNL     1       9.863  -9.606   9.770  0.00  0.00    +0.005 A 
ATOM     28  C   UNL     1      10.415  -9.300  10.999  0.00  0.00    +0.008 A 
ATOM     29  C   UNL     1      10.659 -10.303  11.918  0.00  0.00    +0.000 A 
ATOM     30  C   UNL     1      10.351 -11.615  11.608  0.00  0.00    +0.003 A 
ATOM     31  C   UNL     1       9.799 -11.924  10.380  0.00  0.00    +0.038 A 
ATOM     32  C   UNL     1       9.549 -10.919   9.461  0.00  0.00    +0.128 A 
ATOM     33  F   UNL     1       9.004 -11.219   8.262  0.00  0.00    -0.205 F 
ENDBRANCH  26  27
ENDBRANCH  24  26
ENDBRANCH  21  22
ENDBRANCH   6  21
TORSDOF 8
