REMARK  Name = ZINC39324930
REMARK  10 active torsions:
REMARK  status: ('A' for Active; 'I' for Inactive)
REMARK    1  A    between atoms: C_1  and  C_2
REMARK    2  A    between atoms: C_9  and  C_14
REMARK    3  A    between atoms: C_14  and  N_15
REMARK    4  A    between atoms: N_15  and  C_16
REMARK    5  A    between atoms: N_15  and  S_25
REMARK    6  A    between atoms: C_16  and  C_17
REMARK    7  A    between atoms: C_20  and  O_23
REMARK    8  A    between atoms: O_23  and  C_24
REMARK    9  A    between atoms: S_25  and  C_28
REMARK   10  A    between atoms: C_33  and  C_34
REMARK                            x       y       z     vdW  Elec       q    Type
REMARK                         _______ _______ _______ _____ _____    ______ ____
ROOT
ATOM      1  N   UNL     1       1.147  -5.842   3.393  0.00  0.00    -0.171 NA
ENDROOT
BRANCH   1   2
ATOM      2  S   UNL     1       0.389  -6.744   4.557  0.00  0.00    +0.062 S 
ATOM      3  O   UNL     1       1.113  -7.962   4.662  0.00  0.00    -0.153 OA
ATOM      4  O   UNL     1       0.181  -5.883   5.668  0.00  0.00    -0.153 OA
BRANCH   2   5
ATOM      5  C   UNL     1      -1.207  -7.160   3.937  0.00  0.00    +0.117 A 
ATOM      6  C   UNL     1      -1.722  -6.484   2.846  0.00  0.00    +0.029 A 
ATOM      7  C   UNL     1      -2.974  -6.810   2.360  0.00  0.00    +0.002 A 
ATOM      8  C   UNL     1      -3.712  -7.812   2.964  0.00  0.00    +0.001 A 
ATOM      9  C   UNL     1      -3.196  -8.487   4.054  0.00  0.00    +0.014 A 
ATOM     10  C   UNL     1      -1.942  -8.164   4.538  0.00  0.00    +0.081 A 
BRANCH  10  11
ATOM     11  C   UNL     1      -1.378  -8.904   5.723  0.00  0.00    +0.419 C 
ATOM     12  F   UNL     1      -2.353  -9.762   6.244  0.00  0.00    -0.166 F 
ATOM     13  F   UNL     1      -0.266  -9.652   5.321  0.00  0.00    -0.166 F 
ATOM     14  F   UNL     1      -0.992  -7.986   6.706  0.00  0.00    -0.166 F 
ENDBRANCH  10  11
ENDBRANCH   2   5
ENDBRANCH   1   2
BRANCH   1  15
ATOM     15  C   UNL     1       1.147  -4.380   3.485  0.00  0.00    +0.126 C 
BRANCH  15  24
ATOM     16  C   UNL     1       2.989   1.951   6.230  0.00  0.00    +0.044 C 
ATOM     17  C   UNL     1       2.931   0.445   6.240  0.00  0.00    -0.050 A 
ATOM     18  C   UNL     1       3.058  -0.235   7.451  0.00  0.00    +0.005 A 
ATOM     19  C   UNL     1       3.015  -1.590   7.539  0.00  0.00    +0.024 A 
ATOM     20  C   UNL     1       2.838  -2.375   6.385  0.00  0.00    +0.040 A 
ATOM     21  N   UNL     1       2.798  -3.704   6.482  0.00  0.00    -0.284 N 
ATOM     22  C   UNL     1       2.635  -4.500   5.439  0.00  0.00    +0.225 C 
ATOM     23  O   UNL     1       2.606  -5.707   5.590  0.00  0.00    -0.275 OA
ATOM     24  C   UNL     1       2.484  -3.905   4.057  0.00  0.00    +0.114 C 
ATOM     25  C   UNL     1       2.529  -2.394   3.941  0.00  0.00    -0.003 C 
ATOM     26  C   UNL     1       2.702  -1.683   5.091  0.00  0.00    -0.007 A 
ATOM     27  C   UNL     1       2.752  -0.221   5.070  0.00  0.00    +0.012 A 
ATOM     28  H   UNL     1       2.893  -4.106   7.360  0.00  0.00    +0.155 HD
ENDBRANCH  15  24
ENDBRANCH   1  15
BRANCH   1  29
ATOM     29  C   UNL     1       1.816  -6.505   2.272  0.00  0.00    +0.144 C 
BRANCH  29  30
ATOM     30  C   UNL     1       3.273  -6.704   2.604  0.00  0.00    -0.031 A 
ATOM     31  C   UNL     1       4.194  -5.725   2.281  0.00  0.00    +0.008 A 
ATOM     32  C   UNL     1       5.530  -5.905   2.583  0.00  0.00    +0.046 A 
ATOM     33  C   UNL     1       5.947  -7.069   3.212  0.00  0.00    +0.120 A 
ATOM     34  C   UNL     1       5.021  -8.050   3.536  0.00  0.00    +0.046 A 
ATOM     35  C   UNL     1       3.685  -7.863   3.236  0.00  0.00    +0.008 A 
BRANCH  33  36
ATOM     36  O   UNL     1       7.261  -7.249   3.510  0.00  0.00    -0.495 OA
ATOM     37  C   UNL     1       7.617  -8.472   4.158  0.00  0.00    +0.277 C 
ENDBRANCH  33  36
ENDBRANCH  29  30
ENDBRANCH   1  29
TORSDOF 8
