REMARK  Name = ZINC16843761
REMARK  5 active torsions:
REMARK  status: ('A' for Active; 'I' for Inactive)
REMARK    1  A    between atoms: C_1  and  C_2
REMARK    2  A    between atoms: C_3  and  C_18
REMARK    3  A    between atoms: N_10  and  C_11
REMARK    4  A    between atoms: C_16  and  N_17
REMARK    5  A    between atoms: C_18  and  C_19
REMARK                            x       y       z     vdW  Elec       q    Type
REMARK                         _______ _______ _______ _____ _____    ______ ____
ROOT
ATOM      1  C   UNL     1      -1.405  -0.741   1.827  0.00  0.00    +0.066 C 
ATOM      2  C   UNL     1      -1.244   0.700   2.238  0.00  0.00    +0.050 A 
ATOM      3  C   UNL     1      -0.487   1.545   1.478  0.00  0.00    +0.042 A 
ATOM      4  C   UNL     1      -0.357   2.887   1.878  0.00  0.00    +0.256 A 
ATOM      5  O   UNL     1       0.307   3.670   1.220  0.00  0.00    -0.267 OA
ATOM      6  N   UNL     1      -0.981   3.291   3.005  0.00  0.00    -0.295 N 
ATOM      7  H   UNL     1      -0.905   4.212   3.300  0.00  0.00    +0.172 HD
ATOM      8  C   UNL     1      -1.718   2.402   3.726  0.00  0.00    +0.200 A 
ATOM      9  N   UNL     1      -1.835   1.146   3.344  0.00  0.00    -0.221 NA
ATOM     10  N   UNL     1      -2.348   2.820   4.868  0.00  0.00    -0.284 N 
ATOM     11  H   UNL     1      -2.325   3.757   5.120  0.00  0.00    +0.155 HD
ENDROOT
BRANCH  10  12
ATOM     12  C   UNL     1      -3.026   1.895   5.673  0.00  0.00    +0.054 A 
ATOM     13  C   UNL     1      -2.576   0.586   5.759  0.00  0.00    +0.025 A 
ATOM     14  C   UNL     1      -3.244  -0.324   6.556  0.00  0.00    +0.002 A 
ATOM     15  C   UNL     1      -4.368   0.064   7.263  0.00  0.00    +0.002 A 
ATOM     16  C   UNL     1      -4.827   1.365   7.178  0.00  0.00    +0.024 A 
ATOM     17  C   UNL     1      -4.160   2.286   6.384  0.00  0.00    +0.046 A 
BRANCH  17  18
ATOM     18  N   UNL     1      -4.624   3.603   6.297  0.00  0.00    -0.357 N 
ATOM     19  H   UNL     1      -4.157   4.246   5.741  0.00  0.00    +0.142 HD
ATOM     20  H   UNL     1      -5.413   3.873   6.793  0.00  0.00    +0.142 HD
ENDBRANCH  17  18
ENDBRANCH  10  12
BRANCH   3  21
ATOM     21  C   UNL     1       0.192   1.049   0.228  0.00  0.00    +0.077 C 
BRANCH  21  22
ATOM     22  C   UNL     1       1.617   0.676   0.545  0.00  0.00    -0.043 A 
ATOM     23  C   UNL     1       2.631   1.598   0.359  0.00  0.00    +0.005 A 
ATOM     24  C   UNL     1       3.937   1.259   0.655  0.00  0.00    +0.020 A 
ATOM     25  C   UNL     1       4.233  -0.008   1.126  0.00  0.00    +0.041 A 
ATOM     26  C   UNL     1       3.219  -0.933   1.306  0.00  0.00    +0.020 A 
ATOM     27  C   UNL     1       1.912  -0.590   1.015  0.00  0.00    +0.005 A 
ATOM     28 CL   UNL     1       5.875  -0.438   1.491  0.00  0.00    -0.084 Cl
ENDBRANCH  21  22
ENDBRANCH   3  21
TORSDOF 4
