REMARK  Name = ZINC19848441
REMARK  6 active torsions:
REMARK  status: ('A' for Active; 'I' for Inactive)
REMARK    1  A    between atoms: C_1  and  C_2
REMARK    2  A    between atoms: C_6  and  N_8
REMARK    3  A    between atoms: C_13  and  C_25
REMARK    4  A    between atoms: C_16  and  C_21
REMARK    5  A    between atoms: C_16  and  C_22
REMARK    6  A    between atoms: C_30  and  O_31
REMARK                            x       y       z     vdW  Elec       q    Type
REMARK                         _______ _______ _______ _____ _____    ______ ____
ROOT
ATOM      1  N   UNL     1      -1.007  -0.114  -1.781  0.00  0.00    -0.210 N 
ATOM      2  C   UNL     1      -0.738   1.095  -1.273  0.00  0.00    +0.229 C 
ATOM      3  O   UNL     1      -1.030   2.152  -1.789  0.00  0.00    -0.275 OA
ATOM      4  C   UNL     1      -0.014   0.936   0.045  0.00  0.00    +0.077 C 
ATOM      5  C   UNL     1       1.443   1.416  -0.115  0.00  0.00    -0.023 C 
ATOM      6  N   UNL     1       2.257   0.364   0.559  0.00  0.00    +0.395 N 
ATOM      7  C   UNL     1       1.602  -0.907   0.155  0.00  0.00    +0.045 C 
ATOM      8  C   UNL     1       0.090  -0.604   0.213  0.00  0.00    +0.086 C 
ATOM      9  C   UNL     1      -0.587  -1.138  -1.030  0.00  0.00    +0.229 C 
ATOM     10  O   UNL     1      -0.727  -2.311  -1.302  0.00  0.00    -0.275 OA
ATOM     11  C   UNL     1       2.015  -1.290  -1.268  0.00  0.00    +0.002 C 
ATOM     12  H   UNL     1       3.298   0.424   0.209  0.00  0.00    -0.083 HD
ATOM     13  H   UNL     1       2.227   0.518   1.648  0.00  0.00    -0.083 HD
ENDROOT
BRANCH   1  19
ATOM     14  C   UNL     1      -4.977   0.642  -4.585  0.00  0.00    +0.044 C 
ATOM     15  C   UNL     1      -3.599   0.064  -4.386  0.00  0.00    -0.049 A 
ATOM     16  C   UNL     1      -2.993  -0.644  -5.407  0.00  0.00    +0.003 A 
ATOM     17  C   UNL     1      -1.730  -1.176  -5.229  0.00  0.00    +0.002 A 
ATOM     18  C   UNL     1      -1.067  -0.997  -4.030  0.00  0.00    +0.024 A 
ATOM     19  C   UNL     1      -1.675  -0.292  -3.001  0.00  0.00    +0.044 A 
ATOM     20  C   UNL     1      -2.944   0.241  -3.183  0.00  0.00    +0.027 A 
ENDBRANCH   1  19
BRANCH   5  21
ATOM     21  C   UNL     1       1.640   2.738   0.582  0.00  0.00    -0.018 A 
ATOM     22  C   UNL     1       2.025   2.768   1.909  0.00  0.00    +0.020 A 
ATOM     23  C   UNL     1       2.211   3.981   2.548  0.00  0.00    +0.018 A 
ATOM     24  C   UNL     1       2.001   5.165   1.864  0.00  0.00    +0.019 A 
ATOM     25  C   UNL     1       1.610   5.139   0.539  0.00  0.00    +0.047 A 
ATOM     26  C   UNL     1       1.428   3.924  -0.105  0.00  0.00    +0.119 A 
ATOM     27 BR   UNL     1       2.745   4.020   4.362  0.00  0.00    -0.050 Br
BRANCH  26  28
ATOM     28  O   UNL     1       1.044   3.895  -1.409  0.00  0.00    -0.507 OA
ATOM     29  H   UNL     1       0.876   4.836  -1.953  0.00  0.00    +0.292 HD
ENDBRANCH  26  28
ENDBRANCH   5  21
BRANCH   7  30
ATOM     30  C   UNL     1       1.954  -2.009   1.120  0.00  0.00    +0.346 C 
ATOM     31  O   UNL     1       1.114  -2.811   1.454  0.00  0.00    -0.248 OA
ATOM     32  O   UNL     1       3.201  -2.101   1.608  0.00  0.00    -0.248 OA
ENDBRANCH   7  30
TORSDOF 4
