REMARK  Name = ZINC64555837
REMARK  6 active torsions:
REMARK  status: ('A' for Active; 'I' for Inactive)
REMARK    1  A    between atoms: C_1  and  C_2
REMARK    2  A    between atoms: C_6  and  S_24
REMARK    3  A    between atoms: N_10  and  C_11
REMARK    4  A    between atoms: C_11  and  C_12
REMARK    5  A    between atoms: N_15  and  C_17
REMARK    6  A    between atoms: S_24  and  N_27
REMARK                            x       y       z     vdW  Elec       q    Type
REMARK                         _______ _______ _______ _____ _____    ______ ____
ROOT
ATOM      1  C   UNL     1      -0.019   1.526   0.010  0.00  0.00    +0.028 C 
ATOM      2  C   UNL     1       0.002  -0.004   0.002  0.00  0.00    +0.075 C 
ATOM      3  C   UNL     1      -1.427  -0.558   0.119  0.00  0.00    +0.059 C 
ATOM      4  C   UNL     1      -1.420  -1.360   1.401  0.00  0.00    -0.023 A 
ATOM      5  C   UNL     1      -2.419  -2.085   2.022  0.00  0.00    +0.034 A 
ATOM      6  C   UNL     1      -2.162  -2.745   3.209  0.00  0.00    +0.105 A 
ATOM      7  C   UNL     1      -0.902  -2.678   3.775  0.00  0.00    +0.030 A 
ATOM      8  C   UNL     1       0.098  -1.956   3.159  0.00  0.00    +0.025 A 
ATOM      9  C   UNL     1      -0.154  -1.286   1.960  0.00  0.00    +0.034 A 
ATOM     10  N   UNL     1       0.707  -0.509   1.183  0.00  0.00    -0.321 N 
ENDROOT
BRANCH   6  11
ATOM     11  S   UNL     1      -3.437  -3.669   4.000  0.00  0.00    +0.056 S 
ATOM     12  O   UNL     1      -3.092  -3.741   5.377  0.00  0.00    -0.153 OA
ATOM     13  O   UNL     1      -4.671  -3.124   3.552  0.00  0.00    -0.153 OA
BRANCH  11  14
ATOM     14  N   UNL     1      -3.360  -5.214   3.411  0.00  0.00    -0.204 NA
ATOM     15  H   UNL     1      -2.688  -5.449   2.751  0.00  0.00    +0.144 HD
ATOM     16  H   UNL     1      -3.986  -5.885   3.725  0.00  0.00    +0.144 HD
ENDBRANCH  11  14
ENDBRANCH   6  11
BRANCH  10  17
ATOM     17  C   UNL     1       2.111  -0.239   1.502  0.00  0.00    +0.162 C 
BRANCH  17  18
ATOM     18  C   UNL     1       2.204   1.011   2.338  0.00  0.00    +0.081 A 
ATOM     19  C   UNL     1       2.266   1.060   3.735  0.00  0.00    +0.046 A 
ATOM     20  C   UNL     1       2.342   2.360   4.104  0.00  0.00    +0.115 A 
ATOM     21  N   UNL     1       2.329   3.108   2.977  0.00  0.00    -0.239 N 
ATOM     22  N   UNL     1       2.248   2.238   1.883  0.00  0.00    -0.170 NA
BRANCH  21  23
ATOM     23  C   UNL     1       2.392   4.508   2.915  0.00  0.00    +0.068 A 
ATOM     24  C   UNL     1       2.481   5.252   4.084  0.00  0.00    +0.028 A 
ATOM     25  C   UNL     1       2.543   6.630   4.021  0.00  0.00    +0.005 A 
ATOM     26  C   UNL     1       2.515   7.271   2.796  0.00  0.00    +0.038 A 
ATOM     27  C   UNL     1       2.425   6.532   1.628  0.00  0.00    +0.125 A 
ATOM     28  C   UNL     1       2.370   5.151   1.686  0.00  0.00    +0.066 A 
ATOM     29  F   UNL     1       2.398   7.160   0.432  0.00  0.00    -0.205 F 
ENDBRANCH  21  23
ENDBRANCH  17  18
ENDBRANCH  10  17
TORSDOF 5
