REMARK  Name = ZINC13032452
REMARK  12 active torsions:
REMARK  status: ('A' for Active; 'I' for Inactive)
REMARK    1  A    between atoms: C_1  and  C_2
REMARK    2  A    between atoms: C_2  and  C_3
REMARK    3  A    between atoms: C_3  and  C_4
REMARK    4  A    between atoms: C_3  and  C_5
REMARK    5  A    between atoms: C_3  and  N_6
REMARK    6  A    between atoms: C_7  and  C_9
REMARK    7  A    between atoms: C_9  and  C_11
REMARK    8  A    between atoms: C_9  and  N_16
REMARK    9  A    between atoms: N_16  and  C_17
REMARK   10  A    between atoms: C_17  and  C_18
REMARK   11  A    between atoms: C_27  and  C_29
REMARK   12  A    between atoms: C_29  and  N_30
REMARK                            x       y       z     vdW  Elec       q    Type
REMARK                         _______ _______ _______ _____ _____    ______ ____
ROOT
ATOM      1  N   UNL     1      -2.480   4.397  -0.064  0.00  0.00    -0.278 N 
ATOM      2  C   UNL     1      -2.033   5.257  -1.000  0.00  0.00    +0.238 C 
ATOM      3  O   UNL     1      -1.058   4.977  -1.665  0.00  0.00    -0.274 OA
ENDROOT
BRANCH   1   4
ATOM      4  C   UNL     1      -1.724   3.178   0.232  0.00  0.00    +0.228 C 
BRANCH   4   5
ATOM      5  C   UNL     1      -1.491   3.079   1.717  0.00  0.00    +0.134 A 
ATOM      6  C   UNL     1      -0.316   3.268   2.344  0.00  0.00    +0.047 A 
ATOM      7  C   UNL     1      -0.552   3.078   3.725  0.00  0.00    +0.041 A 
ATOM      8  C   UNL     1      -1.858   2.785   3.860  0.00  0.00    +0.195 A 
ATOM      9  O   UNL     1      -2.423   2.792   2.641  0.00  0.00    -0.465 OA
ENDBRANCH   4   5
BRANCH   4  11
ATOM     10  N   UNL     1      -2.002   0.738  -0.067  0.00  0.00    -0.308 N 
ATOM     11  C   UNL     1      -2.505   1.977  -0.236  0.00  0.00    +0.242 C 
ATOM     12  O   UNL     1      -3.587   2.125  -0.763  0.00  0.00    -0.273 OA
ATOM     13  H   UNL     1      -1.134   0.620   0.351  0.00  0.00    +0.149 HD
BRANCH  10  14
ATOM     14  C   UNL     1      -2.761  -0.429  -0.521  0.00  0.00    +0.029 C 
ATOM     15  C   UNL     1      -4.104  -0.479   0.209  0.00  0.00    +0.031 C 
ATOM     16  C   UNL     1      -3.003  -0.325  -2.029  0.00  0.00    +0.031 C 
BRANCH  14  18
ATOM     17  C   UNL     1      -2.761  -2.922  -0.694  0.00  0.00    +0.006 C 
ATOM     18  C   UNL     1      -1.968  -1.702  -0.219  0.00  0.00    +0.022 C 
ENDBRANCH  14  18
ENDBRANCH  10  14
ENDBRANCH   4  11
ENDBRANCH   1   4
BRANCH   1  19
ATOM     19  C   UNL     1      -3.722   4.682   0.659  0.00  0.00    +0.144 C 
BRANCH  19  20
ATOM     20  C   UNL     1      -3.554   5.942   1.470  0.00  0.00    -0.026 A 
ATOM     21  C   UNL     1      -2.898   5.897   2.686  0.00  0.00    +0.009 A 
ATOM     22  C   UNL     1      -2.737   7.051   3.430  0.00  0.00    +0.050 A 
ATOM     23  C   UNL     1      -3.243   8.254   2.964  0.00  0.00    +0.166 A 
ATOM     24  C   UNL     1      -3.909   8.297   1.741  0.00  0.00    +0.167 A 
ATOM     25  C   UNL     1      -4.061   7.138   0.998  0.00  0.00    +0.054 A 
ATOM     26  O   UNL     1      -4.308   9.582   1.507  0.00  0.00    -0.453 OA
ATOM     27  C   UNL     1      -4.239  10.244   2.784  0.00  0.00    +0.466 C 
ATOM     28  O   UNL     1      -3.225   9.510   3.496  0.00  0.00    -0.453 OA
ENDBRANCH  19  20
ENDBRANCH   1  19
BRANCH   2  29
ATOM     29  C   UNL     1      -2.744   6.568  -1.220  0.00  0.00    +0.241 C 
BRANCH  29  30
ATOM     30  N   UNL     1      -2.201   7.223  -2.413  0.00  0.00    -0.235 N 
ATOM     31  C   UNL     1      -2.647   7.079  -3.705  0.00  0.00    +0.090 A 
ATOM     32  C   UNL     1      -3.665   6.341  -4.300  0.00  0.00    +0.029 A 
ATOM     33  C   UNL     1      -3.858   6.416  -5.651  0.00  0.00    +0.002 A 
ATOM     34  C   UNL     1      -3.047   7.224  -6.437  0.00  0.00    +0.002 A 
ATOM     35  C   UNL     1      -2.042   7.958  -5.878  0.00  0.00    +0.032 A 
ATOM     36  C   UNL     1      -1.823   7.899  -4.496  0.00  0.00    +0.113 A 
ATOM     37  N   UNL     1      -0.931   8.493  -3.678  0.00  0.00    -0.129 NA
ATOM     38  N   UNL     1      -1.128   8.126  -2.460  0.00  0.00    -0.064 NA
ENDBRANCH  29  30
ENDBRANCH   2  29
TORSDOF 9
