REMARK  Name = ZINC40305467
REMARK  6 active torsions:
REMARK  status: ('A' for Active; 'I' for Inactive)
REMARK    1  A    between atoms: C_1  and  S_2
REMARK    2  A    between atoms: S_2  and  N_5
REMARK    3  A    between atoms: C_8  and  N_11
REMARK    4  A    between atoms: C_12  and  C_14
REMARK    5  A    between atoms: C_17  and  N_21
REMARK    6  A    between atoms: C_19  and  N_20
REMARK                            x       y       z     vdW  Elec       q    Type
REMARK                         _______ _______ _______ _____ _____    ______ ____
ROOT
ATOM      1  N   UNL     1       2.235  -3.383  -3.993  0.00  0.00    -0.308 N 
ATOM      2  C   UNL     1       3.402  -3.546  -4.646  0.00  0.00    +0.246 C 
ATOM      3  O   UNL     1       4.172  -2.611  -4.759  0.00  0.00    -0.270 OA
ATOM      4  H   UNL     1       1.621  -4.128  -3.903  0.00  0.00    +0.149 HD
ENDROOT
BRANCH   1   8
ATOM      5  N   UNL     1       0.732  -0.390  -1.470  0.00  0.00    -0.181 NA
ATOM      6  C   UNL     1       0.016  -0.577  -2.739  0.00  0.00    +0.111 C 
ATOM      7  C   UNL     1       0.371  -1.955  -3.307  0.00  0.00    +0.039 C 
ATOM      8  C   UNL     1       1.892  -2.079  -3.419  0.00  0.00    +0.076 C 
ATOM      9  C   UNL     1       2.520  -1.953  -2.029  0.00  0.00    +0.039 C 
ATOM     10  C   UNL     1       2.190  -0.570  -1.448  0.00  0.00    +0.111 C 
BRANCH   5  12
ATOM     11  C   UNL     1      -0.104   1.837  -0.084  0.00  0.00    +0.215 C 
ATOM     12  S   UNL     1      -0.088   0.023  -0.092  0.00  0.00    +0.029 S 
ATOM     13  O   UNL     1       0.720  -0.464   0.971  0.00  0.00    -0.158 OA
ATOM     14  O   UNL     1      -1.403  -0.477  -0.289  0.00  0.00    -0.158 OA
ENDBRANCH   5  12
ENDBRANCH   1   8
BRANCH   2  15
ATOM     15  C   UNL     1       3.746  -4.855  -5.222  0.00  0.00    +0.057 A 
ATOM     16  C   UNL     1       2.924  -5.963  -4.989  0.00  0.00    +0.016 A 
ATOM     17  C   UNL     1       3.243  -7.177  -5.524  0.00  0.00    +0.023 A 
ATOM     18  C   UNL     1       4.388  -7.325  -6.306  0.00  0.00    +0.026 A 
ATOM     19  C   UNL     1       5.215  -6.237  -6.547  0.00  0.00    +0.046 A 
ATOM     20  C   UNL     1       4.899  -4.997  -6.014  0.00  0.00    +0.039 A 
BRANCH  20  21
ATOM     21  N   UNL     1       5.719  -3.903  -6.256  0.00  0.00    -0.357 N 
ATOM     22  H   UNL     1       5.542  -3.057  -5.815  0.00  0.00    +0.142 HD
ATOM     23  H   UNL     1       6.469  -3.984  -6.867  0.00  0.00    +0.142 HD
ENDBRANCH  20  21
BRANCH  18  24
ATOM     24  N   UNL     1       4.703  -8.568  -6.844  0.00  0.00    -0.358 N 
ATOM     25  H   UNL     1       4.126  -9.330  -6.676  0.00  0.00    +0.142 HD
ATOM     26  H   UNL     1       5.499  -8.673  -7.388  0.00  0.00    +0.142 HD
ENDBRANCH  18  24
ENDBRANCH   2  15
TORSDOF 5
