REMARK  Name = ZINC09513378
REMARK  9 active torsions:
REMARK  status: ('A' for Active; 'I' for Inactive)
REMARK    1  A    between atoms: C_1  and  C_2
REMARK    2  A    between atoms: C_7  and  N_12
REMARK    3  A    between atoms: C_9  and  C_11
REMARK    4  A    between atoms: C_13  and  C_15
REMARK    5  A    between atoms: C_15  and  C_17
REMARK    6  A    between atoms: C_15  and  O_18
REMARK    7  A    between atoms: O_18  and  C_19
REMARK    8  A    between atoms: C_19  and  C_21
REMARK    9  A    between atoms: C_34  and  N_64
REMARK                            x       y       z     vdW  Elec       q    Type
REMARK                         _______ _______ _______ _____ _____    ______ ____
ROOT
ATOM      1  C   UNL     1      -4.809   0.274  -1.383  0.00  0.00    +0.341 C 
ATOM      2  O   UNL     1      -4.864  -0.886  -1.737  0.00  0.00    -0.245 OA
ENDROOT
BRANCH   1   3
ATOM      3  C   UNL     1      -4.156   0.626  -0.105  0.00  0.00    +0.071 A 
ATOM      4  C   UNL     1      -4.897   0.675   1.102  0.00  0.00    +0.015 A 
ATOM      5  C   UNL     1      -6.269   0.393   1.132  0.00  0.00    +0.011 A 
ATOM      6  C   UNL     1      -6.942   0.451   2.315  0.00  0.00    +0.001 A 
ATOM      7  C   UNL     1      -6.284   0.789   3.496  0.00  0.00    +0.002 A 
ATOM      8  C   UNL     1      -4.953   1.070   3.502  0.00  0.00    +0.028 A 
ATOM      9  C   UNL     1      -4.223   1.019   2.300  0.00  0.00    +0.072 A 
ATOM     10  N   UNL     1      -2.918   1.288   2.274  0.00  0.00    -0.251 NA
ATOM     11  C   UNL     1      -2.209   1.250   1.165  0.00  0.00    +0.042 A 
ATOM     12  C   UNL     1      -2.796   0.919  -0.052  0.00  0.00    -0.028 A 
ATOM     13  C   UNL     1      -2.004   0.864  -1.331  0.00  0.00    -0.041 C 
ATOM     14  C   UNL     1      -0.013   1.086   0.008  0.00  0.00    -0.073 C 
ATOM     15  C   UNL     1      -0.735   1.582   1.260  0.00  0.00    +0.037 C 
ATOM     16  C   UNL     1       0.095   1.445  -2.386  0.00  0.00    -0.096 C 
ATOM     17  N   UNL     1      -0.738   1.599  -1.172  0.00  0.00    +0.381 N 
ATOM     18  H   UNL     1      -0.944   2.595  -1.032  0.00  0.00    -0.082 HD
ENDBRANCH   1   3
BRANCH   1  19
ATOM     19  O   UNL     1      -5.341   1.241  -2.156  0.00  0.00    -0.449 OA
BRANCH  19  20
ATOM     20  C   UNL     1      -5.966   0.822  -3.398  0.00  0.00    +0.259 C 
ATOM     21  C   UNL     1      -4.925   0.823  -4.518  0.00  0.00    +0.062 C 
BRANCH  20  23
ATOM     22  N   UNL     1      -7.870   1.529  -4.809  0.00  0.00    -0.309 N 
ATOM     23  C   UNL     1      -7.080   1.776  -3.746  0.00  0.00    +0.254 C 
ATOM     24  O   UNL     1      -7.265   2.765  -3.070  0.00  0.00    -0.272 OA
ATOM     25  H   UNL     1      -7.723   0.738  -5.351  0.00  0.00    +0.149 HD
BRANCH  22  31
ATOM     26  C   UNL     1      -9.970   4.740  -6.676  0.00  0.00    +0.008 C 
ATOM     27  C   UNL     1     -10.407   3.308  -6.993  0.00  0.00    -0.009 C 
ATOM     28  C   UNL     1     -11.651   2.961  -6.173  0.00  0.00    +0.003 C 
ATOM     29  C   UNL     1     -11.328   3.078  -4.682  0.00  0.00    +0.002 C 
ATOM     30  C   UNL     1     -10.197   2.109  -4.328  0.00  0.00    +0.022 C 
ATOM     31  C   UNL     1      -8.953   2.457  -5.148  0.00  0.00    +0.076 C 
ATOM     32  C   UNL     1      -9.276   2.340  -6.639  0.00  0.00    +0.009 C 
ATOM     33  C   UNL     1      -8.032   2.687  -7.459  0.00  0.00    +0.009 C 
ENDBRANCH  22  31
ENDBRANCH  20  23
ENDBRANCH  19  20
ENDBRANCH   1  19
TORSDOF 5
