REMARK  Name = ZINC33127637
REMARK  6 active torsions:
REMARK  status: ('A' for Active; 'I' for Inactive)
REMARK    1  A    between atoms: C_1  and  C_2
REMARK    2  A    between atoms: C_2  and  C_3
REMARK    3  A    between atoms: C_6  and  N_9
REMARK    4  A    between atoms: N_12  and  C_13
REMARK    5  A    between atoms: C_13  and  C_15
REMARK    6  A    between atoms: C_13  and  C_16
REMARK                            x       y       z     vdW  Elec       q    Type
REMARK                         _______ _______ _______ _____ _____    ______ ____
ROOT
ATOM      1  N   UNL     1      -2.770   3.463   4.194  0.00  0.00    -0.269 N 
ATOM      2  C   UNL     1      -2.286   4.403   5.030  0.00  0.00    +0.304 C 
ATOM      3  O   UNL     1      -1.290   5.030   4.728  0.00  0.00    -0.252 OA
ATOM      4  N   UNL     1      -2.907   4.647   6.201  0.00  0.00    -0.288 N 
ATOM      5  H   UNL     1      -3.718   2.956   4.425  0.00  0.00    +0.156 HD
ATOM      6  H   UNL     1      -3.809   4.079   6.474  0.00  0.00    +0.151 HD
ENDROOT
BRANCH   1  10
ATOM      7  C   UNL     1      -0.673   2.480   0.730  0.00  0.00    -0.048 A 
ATOM      8  C   UNL     1      -1.364   1.501   1.420  0.00  0.00    +0.005 A 
ATOM      9  C   UNL     1      -2.056   1.823   2.571  0.00  0.00    +0.023 A 
ATOM     10  C   UNL     1      -2.066   3.133   3.030  0.00  0.00    +0.035 A 
ATOM     11  C   UNL     1      -1.376   4.115   2.332  0.00  0.00    +0.023 A 
ATOM     12  C   UNL     1      -0.682   3.786   1.184  0.00  0.00    +0.005 A 
BRANCH   7  14
ATOM     13  C   UNL     1       1.520   1.738  -0.158  0.00  0.00    +0.009 C 
ATOM     14  C   UNL     1       0.085   2.125  -0.523  0.00  0.00    +0.032 C 
ENDBRANCH   7  14
ENDBRANCH   1  10
BRANCH   4  15
ATOM     15  C   UNL     1      -2.381   5.668   7.111  0.00  0.00    +0.158 C 
ATOM     16  C   UNL     1      -1.287   5.056   7.987  0.00  0.00    +0.038 C 
BRANCH  15  17
ATOM     17  C   UNL     1      -3.495   6.183   7.985  0.00  0.00    +0.240 C 
ATOM     18  O   UNL     1      -4.575   5.631   7.980  0.00  0.00    -0.273 OA
ATOM     19  N   UNL     1      -3.291   7.257   8.774  0.00  0.00    -0.269 N 
ATOM     20  C   UNL     1      -2.062   8.055   8.805  0.00  0.00    +0.118 C 
ATOM     21  C   UNL     1      -2.321   9.154   9.848  0.00  0.00    +0.056 C 
ATOM     22  C   UNL     1      -3.721   8.879  10.351  0.00  0.00    -0.024 A 
ATOM     23  C   UNL     1      -4.218   7.770   9.686  0.00  0.00    +0.040 A 
ATOM     24  C   UNL     1      -5.506   7.321   9.986  0.00  0.00    +0.024 A 
ATOM     25  C   UNL     1      -6.268   7.976  10.930  0.00  0.00    +0.002 A 
ATOM     26  C   UNL     1      -5.762   9.082  11.588  0.00  0.00    +0.000 A 
ATOM     27  C   UNL     1      -4.488   9.532  11.296  0.00  0.00    +0.005 A 
ENDBRANCH  15  17
ENDBRANCH   4  15
TORSDOF 4
