REMARK  Name = ZINC14020675
REMARK  10 active torsions:
REMARK  status: ('A' for Active; 'I' for Inactive)
REMARK    1  A    between atoms: C_1  and  C_2
REMARK    2  A    between atoms: C_2  and  O_3
REMARK    3  A    between atoms: O_3  and  C_4
REMARK    4  A    between atoms: C_9  and  C_10
REMARK    5  A    between atoms: N_12  and  C_13
REMARK    6  A    between atoms: C_13  and  N_15
REMARK    7  A    between atoms: N_15  and  N_16
REMARK    8  A    between atoms: C_17  and  C_19
REMARK    9  A    between atoms: C_19  and  O_20
REMARK   10  A    between atoms: O_20  and  C_21
REMARK                            x       y       z     vdW  Elec       q    Type
REMARK                         _______ _______ _______ _____ _____    ______ ____
ROOT
ATOM      1  N   UNL     1       2.323   0.998  -0.015  0.00  0.00    -0.245 N 
ATOM      2  H   UNL     1       3.156   1.494  -0.020  0.00  0.00    +0.172 HD
ENDROOT
BRANCH   1   3
ATOM      3  N   UNL     1       2.342  -0.403  -0.022  0.00  0.00    -0.232 N 
ATOM      4  C   UNL     1       3.518  -1.061  -0.037  0.00  0.00    +0.267 C 
ATOM      5  O   UNL     1       4.560  -0.441  -0.044  0.00  0.00    -0.271 OA
ATOM      6  H   UNL     1       1.509  -0.900  -0.017  0.00  0.00    +0.173 HD
BRANCH   4   7
ATOM      7  C   UNL     1       3.539  -2.568  -0.045  0.00  0.00    +0.326 C 
BRANCH   7   8
ATOM      8  O   UNL     1       4.892  -3.026  -0.061  0.00  0.00    -0.482 OA
BRANCH   8   9
ATOM      9  C   UNL     1       5.088  -4.371  -0.070  0.00  0.00    +0.136 A 
ATOM     10  C   UNL     1       3.985  -5.229  -0.064  0.00  0.00    +0.047 A 
ATOM     11  C   UNL     1       4.149  -6.579  -0.073  0.00  0.00    +0.012 A 
ATOM     12  C   UNL     1       5.445  -7.124  -0.089  0.00  0.00    -0.017 A 
ATOM     13  C   UNL     1       5.650  -8.514  -0.099  0.00  0.00    +0.008 A 
ATOM     14  C   UNL     1       6.919  -9.008  -0.114  0.00  0.00    +0.001 A 
ATOM     15  C   UNL     1       8.021  -8.155  -0.121  0.00  0.00    +0.001 A 
ATOM     16  C   UNL     1       7.861  -6.803  -0.112  0.00  0.00    +0.010 A 
ATOM     17  C   UNL     1       6.566  -6.257  -0.095  0.00  0.00    -0.000 A 
ATOM     18  C   UNL     1       6.362  -4.866  -0.090  0.00  0.00    +0.067 A 
ATOM     19 BR   UNL     1       7.841  -3.688  -0.105  0.00  0.00    -0.046 Br
ENDBRANCH   8   9
ENDBRANCH   7   8
ENDBRANCH   4   7
ENDBRANCH   1   3
BRANCH   1  20
ATOM     20  C   UNL     1       1.147   1.655   0.000  0.00  0.00    +0.153 C 
ATOM     21  S   UNL     1       1.124   3.367   0.009  0.00  0.00    -0.017 S 
BRANCH  20  24
ATOM     22  C   UNL     1      -1.187   1.624   0.017  0.00  0.00    +0.253 C 
ATOM     23  O   UNL     1      -1.204   2.839   0.023  0.00  0.00    -0.270 OA
ATOM     24  N   UNL     1      -0.011   0.966   0.007  0.00  0.00    -0.263 N 
ATOM     25  H   UNL     1       0.002  -0.004   0.002  0.00  0.00    +0.157 HD
BRANCH  22  31
ATOM     26  C   UNL     1      -3.680   1.549   0.028  0.00  0.00    +0.133 A 
ATOM     27  C   UNL     1      -4.865   0.829   0.030  0.00  0.00    +0.046 A 
ATOM     28  C   UNL     1      -4.837  -0.551   0.022  0.00  0.00    +0.004 A 
ATOM     29  C   UNL     1      -3.627  -1.227   0.012  0.00  0.00    +0.001 A 
ATOM     30  C   UNL     1      -2.440  -0.528   0.005  0.00  0.00    +0.017 A 
ATOM     31  C   UNL     1      -2.454   0.869   0.018  0.00  0.00    +0.079 A 
BRANCH  26  32
ATOM     32  O   UNL     1      -3.707   2.906   0.035  0.00  0.00    -0.491 OA
BRANCH  32  34
ATOM     33  C   UNL     1      -4.822   5.050   0.051  0.00  0.00    +0.048 C 
ATOM     34  C   UNL     1      -4.992   3.529   0.044  0.00  0.00    +0.226 C 
ENDBRANCH  32  34
ENDBRANCH  26  32
ENDBRANCH  22  31
ENDBRANCH  20  24
ENDBRANCH   1  20
TORSDOF 9
