REMARK  Name = ZINC27520354
REMARK  6 active torsions:
REMARK  status: ('A' for Active; 'I' for Inactive)
REMARK    1  A    between atoms: C_1  and  O_2
REMARK    2  A    between atoms: O_2  and  C_3
REMARK    3  A    between atoms: C_6  and  N_9
REMARK    4  A    between atoms: C_10  and  C_12
REMARK    5  A    between atoms: N_26  and  C_27
REMARK    6  A    between atoms: C_28  and  C_36
REMARK                            x       y       z     vdW  Elec       q    Type
REMARK                         _______ _______ _______ _____ _____    ______ ____
ROOT
ATOM      1  C   UNL     1      -0.530   9.305   1.210  0.00  0.00    +0.098 A 
ATOM      2  C   UNL     1       0.081  10.193   0.329  0.00  0.00    +0.030 A 
ATOM      3  C   UNL     1       0.045  11.568   0.641  0.00  0.00    +0.026 A 
ATOM      4  C   UNL     1       0.471  12.571  -0.338  0.00  0.00    -0.007 A 
ATOM      5  C   UNL     1       0.947  12.207  -1.600  0.00  0.00    +0.009 A 
ATOM      6  C   UNL     1       1.333  13.175  -2.482  0.00  0.00    +0.001 A 
ATOM      7  C   UNL     1       1.259  14.521  -2.139  0.00  0.00    +0.001 A 
ATOM      8  C   UNL     1       0.800  14.910  -0.916  0.00  0.00    +0.008 A 
ATOM      9  C   UNL     1       0.396  13.939   0.015  0.00  0.00    -0.017 A 
ATOM     10  C   UNL     1      -0.084  14.303   1.288  0.00  0.00    +0.012 A 
ATOM     11  C   UNL     1      -0.465  13.363   2.189  0.00  0.00    +0.047 A 
ATOM     12  C   UNL     1      -0.405  11.998   1.897  0.00  0.00    +0.138 A 
ATOM     13  O   UNL     1      -0.759  11.086   2.835  0.00  0.00    -0.439 OA
ATOM     14  C   UNL     1      -1.204   9.883   2.386  0.00  0.00    +0.212 A 
ATOM     15  N   UNL     1      -2.200   9.252   2.982  0.00  0.00    -0.319 N 
ATOM     16  H   UNL     1      -2.540   8.277   2.602  0.00  0.00    +0.169 HD
ENDROOT
BRANCH  15  17
ATOM     17  C   UNL     1      -2.799   9.803   4.056  0.00  0.00    +0.098 A 
ATOM     18  C   UNL     1      -3.862   9.306   4.820  0.00  0.00    +0.086 A 
ATOM     19  C   UNL     1      -4.317  10.110   5.941  0.00  0.00    -0.018 A 
ATOM     20  C   UNL     1      -3.672  11.282   6.140  0.00  0.00    -0.004 A 
ATOM     21  S   UNL     1      -2.445  11.354   4.864  0.00  0.00    -0.075 S 
ATOM     22  C   UNL     1      -3.943  12.294   7.210  0.00  0.00    +0.043 C 
ATOM     23  C   UNL     1      -5.311  11.987   7.835  0.00  0.00    +0.005 C 
ATOM     24  C   UNL     1      -5.380  10.491   8.155  0.00  0.00    +0.005 C 
ATOM     25  C   UNL     1      -5.461   9.685   6.858  0.00  0.00    +0.037 C 
BRANCH  18  26
ATOM     26  C   UNL     1      -4.476   8.050   4.510  0.00  0.00    +0.102 C 
ATOM     27  N   UNL     1      -4.964   7.054   4.263  0.00  0.00    -0.191 NA
ENDBRANCH  18  26
ENDBRANCH  15  17
BRANCH   1  29
ATOM     28  N   UNL     1      -1.111   7.019   1.845  0.00  0.00    -0.281 N 
ATOM     29  C   UNL     1      -0.509   7.852   0.974  0.00  0.00    +0.253 C 
ATOM     30  O   UNL     1       0.051   7.404  -0.009  0.00  0.00    -0.270 OA
ATOM     31  H   UNL     1      -1.680   7.427   2.693  0.00  0.00    +0.155 HD
BRANCH  28  35
ATOM     32  C   UNL     1      -0.811   2.893   1.331  0.00  0.00    +0.120 A 
ATOM     33  C   UNL     1      -0.880   3.726   0.224  0.00  0.00    +0.047 A 
ATOM     34  C   UNL     1      -0.985   5.093   0.394  0.00  0.00    +0.027 A 
ATOM     35  C   UNL     1      -1.010   5.633   1.673  0.00  0.00    +0.034 A 
ATOM     36  C   UNL     1      -0.935   4.798   2.780  0.00  0.00    +0.027 A 
ATOM     37  C   UNL     1      -0.836   3.432   2.608  0.00  0.00    +0.047 A 
BRANCH  32  39
ATOM     38  C   UNL     1      -0.692   1.061  -0.181  0.00  0.00    +0.277 C 
ATOM     39  O   UNL     1      -0.713   1.547   1.163  0.00  0.00    -0.495 OA
ENDBRANCH  32  39
ENDBRANCH  28  35
ENDBRANCH   1  29
TORSDOF 5
