REMARK  Name = ZINC17663798
REMARK  6 active torsions:
REMARK  status: ('A' for Active; 'I' for Inactive)
REMARK    1  A    between atoms: C_1  and  C_2
REMARK    2  A    between atoms: C_5  and  C_8
REMARK    3  A    between atoms: C_8  and  C_10
REMARK    4  A    between atoms: C_8  and  N_15
REMARK    5  A    between atoms: C_16  and  C_18
REMARK    6  A    between atoms: C_18  and  N_19
REMARK                            x       y       z     vdW  Elec       q    Type
REMARK                         _______ _______ _______ _____ _____    ______ ____
ROOT
ATOM      1  N   UNL     1       1.837   4.309   0.895  0.00  0.00    -0.303 N 
ATOM      2  C   UNL     1       2.118   4.295   2.213  0.00  0.00    +0.234 C 
ATOM      3  O   UNL     1       2.918   3.498   2.655  0.00  0.00    -0.274 OA
ATOM      4  H   UNL     1       1.198   4.947   0.542  0.00  0.00    +0.150 HD
ENDROOT
BRANCH   1   5
ATOM      5  C   UNL     1       2.498   3.360  -0.004  0.00  0.00    +0.140 C 
BRANCH   5  10
ATOM      6  C   UNL     1       2.594   5.527  -5.360  0.00  0.00    +0.044 C 
ATOM      7  C   UNL     1       2.569   4.963  -3.963  0.00  0.00    -0.050 A 
ATOM      8  C   UNL     1       3.669   4.285  -3.472  0.00  0.00    +0.004 A 
ATOM      9  C   UNL     1       3.647   3.766  -2.191  0.00  0.00    +0.006 A 
ATOM     10  C   UNL     1       2.524   3.926  -1.401  0.00  0.00    -0.022 A 
ATOM     11  C   UNL     1       1.421   4.599  -1.894  0.00  0.00    +0.006 A 
ATOM     12  C   UNL     1       1.446   5.122  -3.173  0.00  0.00    +0.004 A 
ENDBRANCH   5  10
BRANCH   5  13
ATOM     13  C   UNL     1       1.742   2.057  -0.004  0.00  0.00    +0.014 A 
ATOM     14  C   UNL     1       2.223   0.790  -0.015  0.00  0.00    +0.013 A 
ATOM     15  C   UNL     1       1.332  -0.266  -0.012  0.00  0.00    +0.008 A 
ATOM     16  C   UNL     1       0.002  -0.004   0.002  0.00  0.00    +0.045 A 
ATOM     17  S   UNL     1      -0.022   1.781   0.012  0.00  0.00    -0.099 S 
ENDBRANCH   5  13
ENDBRANCH   1   5
BRANCH   2  18
ATOM     18  C   UNL     1       1.438   5.272   3.139  0.00  0.00    +0.222 C 
BRANCH  18  19
ATOM     19  N   UNL     1       1.910   5.056   4.509  0.00  0.00    -0.290 N 
ATOM     20  C   UNL     1       1.251   4.185   5.318  0.00  0.00    +0.203 A 
ATOM     21  N   UNL     1       1.610   3.936   6.540  0.00  0.00    -0.237 NA
ATOM     22  C   UNL     1       2.680   4.548   7.106  0.00  0.00    +0.078 A 
ATOM     23  C   UNL     1       3.062   4.284   8.424  0.00  0.00    +0.029 A 
ATOM     24  C   UNL     1       4.155   4.928   8.958  0.00  0.00    +0.017 A 
ATOM     25  C   UNL     1       4.884   5.839   8.203  0.00  0.00    +0.019 A 
ATOM     26  C   UNL     1       4.526   6.116   6.901  0.00  0.00    +0.030 A 
ATOM     27  C   UNL     1       3.423   5.474   6.342  0.00  0.00    +0.066 A 
ATOM     28  C   UNL     1       2.994   5.729   4.959  0.00  0.00    +0.262 A 
ATOM     29  O   UNL     1       3.590   6.516   4.246  0.00  0.00    -0.267 OA
ATOM     30 BR   UNL     1       6.381   6.706   8.969  0.00  0.00    -0.050 Br
ENDBRANCH  18  19
ENDBRANCH   2  18
TORSDOF 5
