REMARK  Name = ZINC10906242
REMARK  11 active torsions:
REMARK  status: ('A' for Active; 'I' for Inactive)
REMARK    1  A    between atoms: C_1  and  C_2
REMARK    2  A    between atoms: C_2  and  C_4
REMARK    3  A    between atoms: C_2  and  O_21
REMARK    4  A    between atoms: C_15  and  C_17
REMARK    5  A    between atoms: O_21  and  C_22
REMARK    6  A    between atoms: C_22  and  C_24
REMARK    7  A    between atoms: C_27  and  O_32
REMARK    8  A    between atoms: C_28  and  O_30
REMARK    9  A    between atoms: O_30  and  C_31
REMARK   10  A    between atoms: O_32  and  C_33
REMARK   11  A    between atoms: C_33  and  C_34
REMARK                            x       y       z     vdW  Elec       q    Type
REMARK                         _______ _______ _______ _____ _____    ______ ____
ROOT
ATOM      1  C   UNL     1       4.926  -0.175   1.271  0.00  0.00    +0.062 C 
ATOM      2  C   UNL     1       3.857  -0.860   0.417  0.00  0.00    +0.259 C 
ENDROOT
BRANCH   2   3
ATOM      3  C   UNL     1       2.577  -0.066   0.484  0.00  0.00    +0.261 C 
ATOM      4  O   UNL     1       1.672  -0.434   1.202  0.00  0.00    -0.271 OA
ATOM      5  N   UNL     1       2.439   1.053  -0.255  0.00  0.00    -0.258 N 
ATOM      6  C   UNL     1       3.568   1.599  -1.023  0.00  0.00    +0.209 C 
ATOM      7  C   UNL     1       3.584   3.099  -0.872  0.00  0.00    +0.235 C 
ATOM      8  O   UNL     1       4.637   3.697  -0.940  0.00  0.00    -0.274 OA
ATOM      9  N   UNL     1       2.443   3.783  -0.663  0.00  0.00    -0.283 N 
ATOM     10  C   UNL     1       1.222   3.112  -0.532  0.00  0.00    +0.056 A 
ATOM     11  C   UNL     1       1.213   1.733  -0.316  0.00  0.00    +0.058 A 
ATOM     12  C   UNL     1       0.014   1.059  -0.174  0.00  0.00    +0.026 A 
ATOM     13  C   UNL     1      -1.179   1.756  -0.256  0.00  0.00    +0.014 A 
ATOM     14  C   UNL     1      -1.173   3.122  -0.468  0.00  0.00    +0.057 A 
ATOM     15  C   UNL     1       0.023   3.802  -0.610  0.00  0.00    +0.037 A 
ATOM     16  H   UNL     1       2.468   4.751  -0.603  0.00  0.00    +0.155 HD
BRANCH  14  17
ATOM     17  C   UNL     1      -2.477   3.873  -0.553  0.00  0.00    +0.417 C 
ATOM     18  F   UNL     1      -2.916   3.897  -1.881  0.00  0.00    -0.166 F 
ATOM     19  F   UNL     1      -3.435   3.235   0.243  0.00  0.00    -0.166 F 
ATOM     20  F   UNL     1      -2.291   5.183  -0.099  0.00  0.00    -0.166 F 
ENDBRANCH  14  17
ENDBRANCH   2   3
BRANCH   2  21
ATOM     21  O   UNL     1       3.621  -2.201   0.921  0.00  0.00    -0.449 OA
BRANCH  21  22
ATOM     22  C   UNL     1       4.376  -3.190   0.403  0.00  0.00    +0.340 C 
ATOM     23  O   UNL     1       5.208  -2.939  -0.446  0.00  0.00    -0.245 OA
BRANCH  22  24
ATOM     24  C   UNL     1       4.191  -4.578   0.867  0.00  0.00    +0.063 A 
ATOM     25  C   UNL     1       3.239  -4.868   1.847  0.00  0.00    +0.019 A 
ATOM     26  C   UNL     1       3.064  -6.166   2.275  0.00  0.00    +0.050 A 
ATOM     27  C   UNL     1       3.840  -7.187   1.742  0.00  0.00    +0.163 A 
ATOM     28  C   UNL     1       4.797  -6.903   0.768  0.00  0.00    +0.162 A 
ATOM     29  C   UNL     1       4.973  -5.605   0.330  0.00  0.00    +0.064 A 
BRANCH  28  30
ATOM     30  O   UNL     1       5.556  -7.905   0.248  0.00  0.00    -0.491 OA
ATOM     31  C   UNL     1       6.516  -7.543  -0.746  0.00  0.00    +0.277 C 
ENDBRANCH  28  30
BRANCH  27  32
ATOM     32  O   UNL     1       3.668  -8.463   2.171  0.00  0.00    -0.479 OA
BRANCH  32  33
ATOM     33  C   UNL     1       2.671  -8.683   3.171  0.00  0.00    +0.324 C 
BRANCH  33  34
ATOM     34  C   UNL     1       2.624 -10.148   3.520  0.00  0.00    +0.248 C 
ATOM     35  O   UNL     1       3.371 -10.928   2.967  0.00  0.00    -0.272 OA
ATOM     36  N   UNL     1       1.752 -10.592   4.447  0.00  0.00    -0.327 N 
ATOM     37  H   UNL     1       1.155  -9.969   4.889  0.00  0.00    +0.145 HD
ATOM     38  H   UNL     1       1.722 -11.535   4.672  0.00  0.00    +0.145 HD
ENDBRANCH  33  34
ENDBRANCH  32  33
ENDBRANCH  27  32
ENDBRANCH  22  24
ENDBRANCH  21  22
ENDBRANCH   2  21
TORSDOF 9
