REMARK  Name = ZINC24849750
REMARK  11 active torsions:
REMARK  status: ('A' for Active; 'I' for Inactive)
REMARK    1  A    between atoms: C_1  and  C_2
REMARK    2  A    between atoms: C_2  and  O_3
REMARK    3  A    between atoms: O_3  and  C_4
REMARK    4  A    between atoms: C_11  and  C_18
REMARK    5  A    between atoms: C_13  and  O_14
REMARK    6  A    between atoms: C_18  and  O_19
REMARK    7  A    between atoms: O_19  and  C_20
REMARK    8  A    between atoms: C_20  and  C_22
REMARK    9  A    between atoms: C_22  and  C_24
REMARK   10  A    between atoms: C_22  and  O_25
REMARK   11  A    between atoms: O_25  and  C_26
REMARK                            x       y       z     vdW  Elec       q    Type
REMARK                         _______ _______ _______ _____ _____    ______ ____
ROOT
ATOM      1  C   UNL     1      -1.285   3.125   2.016  0.00  0.00    +0.405 C 
ATOM      2  O   UNL     1      -2.348   3.572   2.397  0.00  0.00    -0.226 OA
ATOM      3  N   UNL     1      -1.240   1.932   1.392  0.00  0.00    -0.251 N 
ATOM      4  C   UNL     1      -2.398   1.163   1.273  0.00  0.00    +0.040 A 
ATOM      5  C   UNL     1      -2.317  -0.228   1.355  0.00  0.00    +0.024 A 
ATOM      6  C   UNL     1      -3.441  -0.992   1.245  0.00  0.00    +0.014 A 
ATOM      7  C   UNL     1      -4.682  -0.379   1.037  0.00  0.00    +0.024 A 
ATOM      8  C   UNL     1      -5.904  -1.176   0.910  0.00  0.00    +0.007 A 
ATOM      9  C   UNL     1      -7.079  -0.523   0.710  0.00  0.00    +0.095 A 
ATOM     10  C   UNL     1      -7.093   0.885   0.631  0.00  0.00    +0.285 A 
ATOM     11  O   UNL     1      -5.970   1.609   0.748  0.00  0.00    -0.425 OA
ATOM     12  C   UNL     1      -4.770   1.023   0.948  0.00  0.00    +0.141 A 
ATOM     13  C   UNL     1      -3.619   1.786   1.067  0.00  0.00    +0.070 A 
ATOM     14  H   UNL     1      -0.290   1.564   0.977  0.00  0.00    +0.158 HD
ENDROOT
BRANCH  10  15
ATOM     15  O   UNL     1      -8.153   1.458   0.451  0.00  0.00    -0.480 OA
ATOM     16  H   UNL     1      -8.181   2.556   0.387  0.00  0.00    +0.295 HD
ENDBRANCH  10  15
BRANCH   1  17
ATOM     17  O   UNL     1      -0.150   3.821   2.223  0.00  0.00    -0.450 OA
BRANCH  17  19
ATOM     18  C   UNL     1       1.110   5.734   3.049  0.00  0.00    +0.048 C 
ATOM     19  C   UNL     1      -0.273   5.095   2.907  0.00  0.00    +0.230 C 
ENDBRANCH  17  19
ENDBRANCH   1  17
BRANCH   8  20
ATOM     20  C   UNL     1      -5.861  -2.680   0.999  0.00  0.00    +0.268 C 
BRANCH  20  21
ATOM     21  O   UNL     1      -7.202  -3.213   0.840  0.00  0.00    -0.457 OA
BRANCH  21  22
ATOM     22  C   UNL     1      -7.337  -4.548   0.894  0.00  0.00    +0.348 C 
ATOM     23  O   UNL     1      -6.367  -5.247   1.068  0.00  0.00    -0.247 OA
BRANCH  22  24
ATOM     24  C   UNL     1      -8.699  -5.174   0.738  0.00  0.00    +0.278 C 
ATOM     25  C   UNL     1      -9.625  -4.663   1.844  0.00  0.00    +0.064 C 
BRANCH  24  26
ATOM     26  O   UNL     1      -8.583  -6.595   0.832  0.00  0.00    -0.478 OA
BRANCH  26  27
ATOM     27  C   UNL     1      -9.544  -7.334   0.218  0.00  0.00    +0.123 A 
ATOM     28  C   UNL     1      -9.432  -8.716   0.169  0.00  0.00    +0.046 A 
ATOM     29  C   UNL     1     -10.413  -9.466  -0.451  0.00  0.00    +0.005 A 
ATOM     30  C   UNL     1     -11.500  -8.841  -1.032  0.00  0.00    +0.020 A 
ATOM     31  C   UNL     1     -11.611  -7.462  -0.990  0.00  0.00    +0.044 A 
ATOM     32  C   UNL     1     -10.635  -6.708  -0.366  0.00  0.00    +0.065 A 
ATOM     33 CL   UNL     1     -12.977  -6.679  -1.722  0.00  0.00    -0.083 Cl
ENDBRANCH  26  27
ENDBRANCH  24  26
ENDBRANCH  22  24
ENDBRANCH  21  22
ENDBRANCH  20  21
ENDBRANCH   8  20
TORSDOF 9
