REMARK  Name = ZINC09186772
REMARK  17 active torsions:
REMARK  status: ('A' for Active; 'I' for Inactive)
REMARK    1  A    between atoms: C_1  and  N_70
REMARK    2  A    between atoms: C_2  and  N_70
REMARK    3  A    between atoms: C_3  and  C_4
REMARK    4  A    between atoms: C_3  and  N_70
REMARK    5  A    between atoms: C_4  and  C_5
REMARK    6  A    between atoms: C_5  and  N_6
REMARK    7  A    between atoms: C_7  and  C_28
REMARK    8  A    between atoms: C_10  and  C_11
REMARK    9  A    between atoms: C_10  and  O_23
REMARK   10  A    between atoms: C_14  and  S_17
REMARK   11  A    between atoms: S_17  and  N_20
REMARK   12  A    between atoms: N_20  and  C_21
REMARK   13  A    between atoms: N_20  and  C_22
REMARK   14  A    between atoms: C_31  and  O_36
REMARK   15  A    between atoms: C_32  and  O_34
REMARK   16  A    between atoms: O_34  and  C_35
REMARK   17  A    between atoms: O_36  and  C_37
REMARK                            x       y       z     vdW  Elec       q    Type
REMARK                         _______ _______ _______ _____ _____    ______ ____
ROOT
ATOM      1  N   UNL     1      -1.730   5.357   0.697  0.00  0.00    -0.284 N 
ATOM      2  C   UNL     1      -2.218   4.193  -0.048  0.00  0.00    +0.145 C 
ATOM      3  C   UNL     1      -2.557   4.677  -1.438  0.00  0.00    +0.071 C 
ATOM      4  C   UNL     1      -3.052   3.922  -2.481  0.00  0.00    +0.133 C 
ATOM      5  C   UNL     1      -2.265   6.052  -1.453  0.00  0.00    +0.249 C 
ATOM      6  O   UNL     1      -2.407   6.802  -2.402  0.00  0.00    -0.282 OA
ATOM      7  C   UNL     1      -1.755   6.433  -0.108  0.00  0.00    +0.288 C 
ATOM      8  O   UNL     1      -1.411   7.552   0.215  0.00  0.00    -0.266 OA
ENDROOT
BRANCH   4   9
ATOM      9  C   UNL     1      -3.469   4.579  -3.733  0.00  0.00    +0.017 A 
ATOM     10  C   UNL     1      -4.353   5.662  -3.698  0.00  0.00    +0.013 A 
ATOM     11  C   UNL     1      -4.734   6.274  -4.873  0.00  0.00    +0.029 A 
ATOM     12  C   UNL     1      -4.252   5.812  -6.086  0.00  0.00    +0.105 A 
ATOM     13  C   UNL     1      -3.381   4.737  -6.129  0.00  0.00    +0.029 A 
ATOM     14  C   UNL     1      -2.986   4.118  -4.962  0.00  0.00    +0.013 A 
BRANCH  12  15
ATOM     15  S   UNL     1      -4.750   6.597  -7.583  0.00  0.00    +0.060 S 
ATOM     16  O   UNL     1      -5.139   7.920  -7.238  0.00  0.00    -0.153 OA
ATOM     17  O   UNL     1      -3.736   6.326  -8.541  0.00  0.00    -0.153 OA
BRANCH  15  18
ATOM     18  N   UNL     1      -6.117   5.824  -8.110  0.00  0.00    -0.183 NA
ATOM     19  C   UNL     1      -7.436   6.294  -7.679  0.00  0.00    +0.131 C 
ATOM     20  C   UNL     1      -6.007   4.671  -9.006  0.00  0.00    +0.131 C 
ENDBRANCH  15  18
ENDBRANCH  12  15
ENDBRANCH   4   9
BRANCH   2  21
ATOM     21  C   UNL     1      -1.144   3.138  -0.116  0.00  0.00    -0.019 A 
ATOM     22  C   UNL     1       0.175   3.507  -0.308  0.00  0.00    +0.009 A 
ATOM     23  C   UNL     1       1.163   2.543  -0.373  0.00  0.00    +0.050 A 
ATOM     24  C   UNL     1       0.834   1.203  -0.245  0.00  0.00    +0.162 A 
ATOM     25  C   UNL     1      -0.493   0.832  -0.051  0.00  0.00    +0.162 A 
ATOM     26  C   UNL     1      -1.480   1.802   0.007  0.00  0.00    +0.055 A 
BRANCH  25  27
ATOM     27  O   UNL     1      -0.821  -0.482   0.075  0.00  0.00    -0.491 OA
ATOM     28  C   UNL     1      -2.203  -0.790   0.272  0.00  0.00    +0.277 C 
ENDBRANCH  25  27
BRANCH  24  29
ATOM     29  O   UNL     1       1.805   0.254  -0.309  0.00  0.00    -0.491 OA
ATOM     30  C   UNL     1       3.145   0.709  -0.510  0.00  0.00    +0.277 C 
ENDBRANCH  24  29
ENDBRANCH   2  21
BRANCH   4  31
ATOM     31  O   UNL     1      -3.154   2.582  -2.355  0.00  0.00    -0.506 OA
ATOM     32  H   UNL     1      -3.529   2.196  -3.198  0.00  0.00    +0.292 HD
ENDBRANCH   4  31
BRANCH   1  33
ATOM     33  C   UNL     1      -1.287   5.350   2.093  0.00  0.00    +0.107 C 
BRANCH  33  34
ATOM     34  C   UNL     1       0.214   5.058   2.150  0.00  0.00    +0.000 C 
BRANCH  34  35
ATOM     35  C   UNL     1       0.677   5.050   3.608  0.00  0.00    -0.078 C 
BRANCH  35  38
ATOM     36  C   UNL     1       2.646   4.987   5.016  0.00  0.00    -0.097 C 
ATOM     37  C   UNL     1       2.408   3.407   3.197  0.00  0.00    -0.097 C 
ATOM     38  N   UNL     1       2.131   4.788   3.645  0.00  0.00    +0.376 N 
ATOM     39  H   UNL     1       2.605   5.445   3.013  0.00  0.00    -0.083 HD
ENDBRANCH  35  38
ENDBRANCH  34  35
ENDBRANCH  33  34
ENDBRANCH   1  33
TORSDOF 11
