REMARK  Name = ZINC39946653
REMARK  11 active torsions:
REMARK  status: ('A' for Active; 'I' for Inactive)
REMARK    1  A    between atoms: C_1  and  C_2
REMARK    2  A    between atoms: C_2  and  C_3
REMARK    3  A    between atoms: C_2  and  C_4
REMARK    4  A    between atoms: C_9  and  N_10
REMARK    5  A    between atoms: C_11  and  C_28
REMARK    6  A    between atoms: C_14  and  S_15
REMARK    7  A    between atoms: S_15  and  C_16
REMARK    8  A    between atoms: C_16  and  C_17
REMARK    9  A    between atoms: C_17  and  C_19
REMARK   10  A    between atoms: C_31  and  O_34
REMARK   11  A    between atoms: O_34  and  C_35
REMARK                            x       y       z     vdW  Elec       q    Type
REMARK                         _______ _______ _______ _____ _____    ______ ____
ROOT
ATOM      1  N   UNL     1      -1.010  -1.647  -2.090  0.00  0.00    -0.270 N 
ATOM      2  C   UNL     1      -0.171  -2.736  -2.183  0.00  0.00    +0.169 A 
ATOM      3  N   UNL     1       0.445  -2.650  -3.339  0.00  0.00    -0.128 NA
ATOM      4  N   UNL     1       0.057  -1.599  -3.967  0.00  0.00    -0.122 NA
ATOM      5  C   UNL     1      -0.836  -0.949  -3.255  0.00  0.00    +0.197 A 
ENDROOT
BRANCH   1  11
ATOM      6  C   UNL     1      -1.412  -0.526   0.013  0.00  0.00    -0.021 A 
ATOM      7  C   UNL     1      -2.259  -0.205   1.055  0.00  0.00    +0.006 A 
ATOM      8  C   UNL     1      -3.556  -0.683   1.066  0.00  0.00    +0.000 A 
ATOM      9  C   UNL     1      -4.010  -1.483   0.033  0.00  0.00    +0.002 A 
ATOM     10  C   UNL     1      -3.167  -1.807  -1.012  0.00  0.00    +0.026 A 
ATOM     11  C   UNL     1      -1.865  -1.324  -1.028  0.00  0.00    +0.054 A 
BRANCH   6  13
ATOM     12  C   UNL     1      -0.019   1.526   0.010  0.00  0.00    +0.012 C 
ATOM     13  C   UNL     1       0.002  -0.004   0.002  0.00  0.00    +0.015 C 
ATOM     14  C   UNL     1       0.742  -0.511   1.242  0.00  0.00    +0.012 C 
ENDBRANCH   6  13
ENDBRANCH   1  11
BRANCH   2  15
ATOM     15  C   UNL     1       0.002  -3.801  -1.172  0.00  0.00    +0.020 A 
ATOM     16  C   UNL     1      -0.473  -3.616   0.127  0.00  0.00    +0.015 A 
ATOM     17  C   UNL     1      -0.309  -4.611   1.067  0.00  0.00    +0.046 A 
ATOM     18  C   UNL     1       0.328  -5.796   0.723  0.00  0.00    +0.120 A 
ATOM     19  C   UNL     1       0.802  -5.983  -0.568  0.00  0.00    +0.046 A 
ATOM     20  C   UNL     1       0.637  -4.996  -1.516  0.00  0.00    +0.015 A 
BRANCH  18  21
ATOM     21  O   UNL     1       0.487  -6.774   1.652  0.00  0.00    -0.495 OA
ATOM     22  C   UNL     1       1.151  -7.967   1.231  0.00  0.00    +0.277 C 
ENDBRANCH  18  21
ENDBRANCH   2  15
BRANCH   5  23
ATOM     23  S   UNL     1      -1.654   0.543  -3.711  0.00  0.00    -0.078 S 
BRANCH  23  24
ATOM     24  C   UNL     1      -0.978   0.930  -5.350  0.00  0.00    +0.156 C 
BRANCH  24  25
ATOM     25  C   UNL     1      -1.603   2.202  -5.863  0.00  0.00    +0.172 C 
ATOM     26  O   UNL     1      -2.424   2.790  -5.189  0.00  0.00    -0.291 OA
BRANCH  25  27
ATOM     27  C   UNL     1      -1.233   2.710  -7.126  0.00  0.00    +0.024 C 
ATOM     28  C   UNL     1      -1.704   3.859  -7.737  0.00  0.00    +0.006 A 
ATOM     29  C   UNL     1      -2.641   4.843  -7.343  0.00  0.00    +0.010 A 
ATOM     30  C   UNL     1      -2.917   5.886  -8.158  0.00  0.00    +0.001 A 
ATOM     31  C   UNL     1      -2.303   6.046  -9.411  0.00  0.00    +0.002 A 
ATOM     32  C   UNL     1      -1.396   5.163  -9.880  0.00  0.00    +0.026 A 
ATOM     33  C   UNL     1      -1.037   3.998  -9.055  0.00  0.00    +0.043 A 
ATOM     34  N   UNL     1      -0.211   3.011  -9.255  0.00  0.00    -0.380 N 
ATOM     35  C   UNL     1      -0.234   2.115  -8.095  0.00  0.00    +0.152 C 
ATOM     36  H   UNL     1       0.336   2.890 -10.047  0.00  0.00    +0.160 HD
ENDBRANCH  25  27
ENDBRANCH  24  25
ENDBRANCH  23  24
ENDBRANCH   5  23
TORSDOF 8
