REMARK  Name = ZINC09408913
REMARK  7 active torsions:
REMARK  status: ('A' for Active; 'I' for Inactive)
REMARK    1  A    between atoms: C_4  and  O_7
REMARK    2  A    between atoms: O_7  and  C_8
REMARK    3  A    between atoms: C_12  and  C_14
REMARK    4  A    between atoms: C_17  and  C_32
REMARK    5  A    between atoms: N_24  and  C_25
REMARK    6  A    between atoms: C_25  and  C_26
REMARK    7  A    between atoms: C_37  and  O_38
REMARK                            x       y       z     vdW  Elec       q    Type
REMARK                         _______ _______ _______ _____ _____    ______ ____
ROOT
ATOM      1  C   UNL     1       5.780  -4.824   0.051  0.00  0.00    +0.141 C 
ATOM      2  C   UNL     1       6.505  -5.236  -1.202  0.00  0.00    +0.035 A 
ATOM      3  C   UNL     1       7.077  -4.843  -2.417  0.00  0.00    +0.102 A 
ATOM      4  N   UNL     1       7.558  -5.926  -2.994  0.00  0.00    -0.173 NA
ATOM      5  N   UNL     1       7.348  -6.963  -2.264  0.00  0.00    -0.272 N 
ATOM      6  H   UNL     1       7.616  -7.867  -2.491  0.00  0.00    +0.189 HD
ATOM      7  C   UNL     1       6.690  -6.603  -1.123  0.00  0.00    +0.126 A 
ATOM      8  C   UNL     1       6.108  -7.080   0.137  0.00  0.00    +0.266 C 
ATOM      9  O   UNL     1       6.107  -8.239   0.505  0.00  0.00    -0.268 OA
ATOM     10  N   UNL     1       5.577  -6.053   0.828  0.00  0.00    -0.283 N 
ENDROOT
BRANCH   1  15
ATOM     11  C   UNL     1       3.006  -2.295  -0.380  0.00  0.00    +0.129 A 
ATOM     12  C   UNL     1       2.007  -3.076  -0.941  0.00  0.00    +0.046 A 
ATOM     13  C   UNL     1       2.233  -4.418  -1.179  0.00  0.00    +0.004 A 
ATOM     14  C   UNL     1       3.454  -4.982  -0.858  0.00  0.00    +0.006 A 
ATOM     15  C   UNL     1       4.451  -4.205  -0.298  0.00  0.00    -0.019 A 
ATOM     16  C   UNL     1       4.232  -2.862  -0.064  0.00  0.00    +0.052 A 
BRANCH  11  17
ATOM     17  O   UNL     1       2.786  -0.974  -0.145  0.00  0.00    -0.456 OA
BRANCH  17  21
ATOM     18  C   UNL     1       1.030   0.091   3.433  0.00  0.00    +0.000 A 
ATOM     19  C   UNL     1       1.255  -1.243   3.144  0.00  0.00    +0.004 A 
ATOM     20  C   UNL     1       1.843  -1.602   1.947  0.00  0.00    +0.046 A 
ATOM     21  C   UNL     1       2.208  -0.624   1.033  0.00  0.00    +0.128 A 
ATOM     22  C   UNL     1       1.981   0.714   1.325  0.00  0.00    +0.046 A 
ATOM     23  C   UNL     1       1.393   1.068   2.524  0.00  0.00    +0.004 A 
ENDBRANCH  17  21
ENDBRANCH  11  17
ENDBRANCH   1  15
BRANCH   3  24
ATOM     24  C   UNL     1       7.131  -3.461  -2.956  0.00  0.00    +0.044 A 
ATOM     25  C   UNL     1       6.700  -2.389  -2.178  0.00  0.00    +0.014 A 
ATOM     26  C   UNL     1       6.753  -1.106  -2.685  0.00  0.00    +0.001 A 
ATOM     27  C   UNL     1       7.231  -0.881  -3.963  0.00  0.00    +0.004 A 
ATOM     28  C   UNL     1       7.660  -1.938  -4.744  0.00  0.00    +0.046 A 
ATOM     29  C   UNL     1       7.619  -3.230  -4.245  0.00  0.00    +0.126 A 
BRANCH  29  30
ATOM     30  O   UNL     1       8.046  -4.269  -5.009  0.00  0.00    -0.506 OA
ATOM     31  H   UNL     1       7.354  -4.666  -5.556  0.00  0.00    +0.292 HD
ENDBRANCH  29  30
ENDBRANCH   3  24
BRANCH  10  32
ATOM     32  C   UNL     1       4.912  -6.146   2.129  0.00  0.00    +0.140 C 
BRANCH  32  33
ATOM     33  C   UNL     1       3.415  -6.388   1.921  0.00  0.00    +0.136 C 
ATOM     34  C   UNL     1       2.687  -6.366   3.282  0.00  0.00    +0.035 C 
ATOM     35  C   UNL     1       1.647  -7.509   3.117  0.00  0.00    +0.031 C 
ATOM     36  C   UNL     1       2.441  -8.503   2.232  0.00  0.00    +0.160 C 
ATOM     37  O   UNL     1       3.208  -7.679   1.337  0.00  0.00    -0.375 OA
ENDBRANCH  32  33
ENDBRANCH  10  32
TORSDOF 7
