REMARK  Name = ZINC37348524
REMARK  3 active torsions:
REMARK  status: ('A' for Active; 'I' for Inactive)
REMARK    1  A    between atoms: C_4  and  C_7
REMARK    2  A    between atoms: C_8  and  C_14
REMARK    3  A    between atoms: C_12  and  N_13
REMARK                            x       y       z     vdW  Elec       q    Type
REMARK                         _______ _______ _______ _____ _____    ______ ____
ROOT
ATOM      1  C   UNL     1       3.697  -0.687  -0.038  0.00  0.00    +0.052 A 
ATOM      2  C   UNL     1       4.213  -1.535  -1.114  0.00  0.00    +0.137 A 
ATOM      3  N   UNL     1       5.392  -1.980  -0.730  0.00  0.00    -0.169 NA
ATOM      4  N   UNL     1       5.682  -1.472   0.540  0.00  0.00    -0.263 N 
ATOM      5  H   UNL     1       6.492  -1.651   1.044  0.00  0.00    +0.190 HD
ATOM      6  C   UNL     1       4.659  -0.685   0.956  0.00  0.00    +0.120 A 
ENDROOT
BRANCH   2   7
ATOM      7  C   UNL     1       3.538  -1.837  -2.392  0.00  0.00    +0.157 A 
ATOM      8  C   UNL     1       4.163  -2.013  -3.581  0.00  0.00    +0.060 A 
ATOM      9  C   UNL     1       3.107  -2.289  -4.558  0.00  0.00    +0.021 A 
ATOM     10  C   UNL     1       3.095  -2.552  -5.929  0.00  0.00    +0.011 A 
ATOM     11  C   UNL     1       1.905  -2.774  -6.565  0.00  0.00    +0.001 A 
ATOM     12  C   UNL     1       0.712  -2.739  -5.857  0.00  0.00    +0.004 A 
ATOM     13  C   UNL     1       0.705  -2.480  -4.502  0.00  0.00    +0.047 A 
ATOM     14  C   UNL     1       1.902  -2.252  -3.835  0.00  0.00    +0.136 A 
ATOM     15  O   UNL     1       2.207  -1.986  -2.549  0.00  0.00    -0.453 OA
ENDBRANCH   2   7
BRANCH   1  19
ATOM     16  C   UNL     1      -0.017   1.379   0.010  0.00  0.00    +0.000 A 
ATOM     17  C   UNL     1       1.169   2.093   0.002  0.00  0.00    +0.001 A 
ATOM     18  C   UNL     1       2.377   1.428  -0.013  0.00  0.00    +0.009 A 
ATOM     19  C   UNL     1       2.403   0.033  -0.021  0.00  0.00    -0.012 A 
ATOM     20  C   UNL     1       1.205  -0.680  -0.013  0.00  0.00    +0.009 A 
ATOM     21  C   UNL     1       0.002  -0.004   0.002  0.00  0.00    +0.001 A 
ENDBRANCH   1  19
BRANCH   6  22
ATOM     22  N   UNL     1       4.587  -0.003   2.163  0.00  0.00    -0.343 N 
ATOM     23  H   UNL     1       3.808   0.535   2.370  0.00  0.00    +0.144 HD
ATOM     24  H   UNL     1       5.317  -0.065   2.798  0.00  0.00    +0.144 HD
ENDBRANCH   6  22
TORSDOF 3
