REMARK  Name = ZINC32446732
REMARK  10 active torsions:
REMARK  status: ('A' for Active; 'I' for Inactive)
REMARK    1  A    between atoms: C_1  and  C_2
REMARK    2  A    between atoms: C_2  and  C_3
REMARK    3  A    between atoms: C_3  and  C_5
REMARK    4  A    between atoms: C_3  and  N_24
REMARK    5  A    between atoms: C_5  and  N_6
REMARK    6  A    between atoms: C_7  and  C_9
REMARK    7  A    between atoms: C_10  and  C_23
REMARK    8  A    between atoms: N_12  and  C_15
REMARK    9  A    between atoms: C_15  and  C_16
REMARK   10  A    between atoms: C_19  and  C_22
REMARK                            x       y       z     vdW  Elec       q    Type
REMARK                         _______ _______ _______ _____ _____    ______ ____
ROOT
ATOM      1  N   UNL     1      -0.825   1.346  -3.660  0.00  0.00    -0.313 N 
ATOM      2  C   UNL     1      -0.525   0.784  -4.848  0.00  0.00    +0.249 C 
ATOM      3  O   UNL     1       0.306  -0.102  -4.909  0.00  0.00    -0.270 OA
ATOM      4  H   UNL     1      -1.577   2.147  -3.605  0.00  0.00    +0.149 HD
ENDROOT
BRANCH   2   5
ATOM      5  C   UNL     1      -1.204   1.242  -6.072  0.00  0.00    +0.096 A 
ATOM      6  C   UNL     1      -2.406   0.727  -6.608  0.00  0.00    +0.074 A 
ATOM      7  N   UNL     1      -2.682   1.393  -7.695  0.00  0.00    -0.174 NA
ATOM      8  N   UNL     1      -1.685   2.353  -7.905  0.00  0.00    -0.248 N 
ATOM      9  C   UNL     1      -0.789   2.261  -6.909  0.00  0.00    +0.140 A 
ATOM     10 CL   UNL     1       0.632   3.239  -6.712  0.00  0.00    -0.062 Cl
ATOM     11  C   UNL     1      -3.226  -0.396  -6.026  0.00  0.00    +0.068 C 
BRANCH   8  12
ATOM     12  C   UNL     1      -1.633   3.301  -9.020  0.00  0.00    +0.180 C 
BRANCH  12  13
ATOM     13  C   UNL     1      -2.358   4.566  -8.639  0.00  0.00    -0.026 A 
ATOM     14  C   UNL     1      -3.709   4.694  -8.903  0.00  0.00    +0.006 A 
ATOM     15  C   UNL     1      -4.375   5.853  -8.550  0.00  0.00    +0.004 A 
ATOM     16  C   UNL     1      -3.689   6.886  -7.939  0.00  0.00    -0.050 A 
ATOM     17  C   UNL     1      -2.338   6.759  -7.679  0.00  0.00    +0.004 A 
ATOM     18  C   UNL     1      -1.672   5.599  -8.029  0.00  0.00    +0.006 A 
ATOM     19  C   UNL     1      -4.415   8.150  -7.557  0.00  0.00    +0.044 C 
ENDBRANCH  12  13
ENDBRANCH   8  12
ENDBRANCH   2   5
BRANCH   1  20
ATOM     20  C   UNL     1      -0.150   0.890  -2.442  0.00  0.00    +0.089 C 
BRANCH  20  21
ATOM     21  C   UNL     1      -0.761   1.591  -1.227  0.00  0.00    -0.051 C 
BRANCH  21  22
ATOM     22  N   UNL     1       0.012   1.250  -0.025  0.00  0.00    +0.385 N 
ATOM     23  C   UNL     1       1.347   1.867  -0.064  0.00  0.00    -0.073 C 
ATOM     24  C   UNL     1       1.956   1.793   1.337  0.00  0.00    +0.017 C 
ATOM     25  C   UNL     1       1.858   0.386   1.867  0.00  0.00    -0.048 A 
ATOM     26  C   UNL     1       2.652   0.029   2.946  0.00  0.00    +0.004 A 
ATOM     27  C   UNL     1       2.590  -1.249   3.465  0.00  0.00    +0.000 A 
ATOM     28  C   UNL     1       1.731  -2.177   2.906  0.00  0.00    +0.000 A 
ATOM     29  C   UNL     1       0.941  -1.823   1.832  0.00  0.00    +0.002 A 
ATOM     30  C   UNL     1       1.004  -0.540   1.308  0.00  0.00    -0.061 A 
ATOM     31  C   UNL     1       0.128  -0.204   0.129  0.00  0.00    -0.042 C 
ATOM     32  H   UNL     1      -0.533   1.647   0.844  0.00  0.00    -0.081 HD
ENDBRANCH  21  22
BRANCH  21  34
ATOM     33  C   UNL     1      -2.859   1.926   0.087  0.00  0.00    +0.002 C 
ATOM     34  C   UNL     1      -2.210   1.134  -1.049  0.00  0.00    -0.017 C 
ENDBRANCH  21  34
ENDBRANCH  20  21
ENDBRANCH   1  20
TORSDOF 7
