REMARK  Name = ZINC16533058
REMARK  5 active torsions:
REMARK  status: ('A' for Active; 'I' for Inactive)
REMARK    1  A    between atoms: C_1  and  C_2
REMARK    2  A    between atoms: C_6  and  N_8
REMARK    3  A    between atoms: C_10  and  C_17
REMARK    4  A    between atoms: C_13  and  C_16
REMARK    5  A    between atoms: N_24  and  C_25
REMARK                            x       y       z     vdW  Elec       q    Type
REMARK                         _______ _______ _______ _____ _____    ______ ____
ROOT
ATOM      1  C   UNL     1      -0.007   1.509   0.039  0.00  0.00    +0.086 C 
ATOM      2  C   UNL     1       0.009   0.003   0.018  0.00  0.00    +0.106 A 
ATOM      3  N   UNL     1       0.014  -0.621  -1.141  0.00  0.00    -0.347 N 
ATOM      4  C   UNL     1       0.032  -1.951  -1.211  0.00  0.00    +0.027 A 
ATOM      5  C   UNL     1       0.052  -2.674  -0.044  0.00  0.00    +0.029 A 
ATOM      6  C   UNL     1       0.040  -1.983   1.173  0.00  0.00    +0.130 A 
ATOM      7  N   UNL     1       0.024  -0.654   1.160  0.00  0.00    -0.219 NA
ATOM      8  C   UNL     1       0.101  -4.178  -0.021  0.00  0.00    +0.149 C 
ATOM      9  N   UNL     1      -0.159  -4.697  -1.369  0.00  0.00    -0.281 N 
ATOM     10  C   UNL     1       0.524  -4.035  -2.493  0.00  0.00    +0.116 C 
ATOM     11  C   UNL     1       0.019  -2.594  -2.571  0.00  0.00    +0.072 C 
ATOM     12  C   UNL     1      -0.989  -5.740  -1.571  0.00  0.00    +0.303 C 
ATOM     13  O   UNL     1      -1.116  -6.209  -2.685  0.00  0.00    -0.253 OA
ATOM     14  N   UNL     1      -1.678  -6.262  -0.537  0.00  0.00    -0.294 N 
ATOM     15  H   UNL     1      -1.633  -5.843   0.337  0.00  0.00    +0.151 HD
ATOM     16  H   UNL     1       0.004  -0.102  -1.960  0.00  0.00    +0.167 HD
ENDROOT
BRANCH  14  17
ATOM     17  C   UNL     1      -2.496  -7.462  -0.733  0.00  0.00    +0.037 C 
ATOM     18  C   UNL     1      -3.568  -7.181  -1.787  0.00  0.00    +0.029 C 
ATOM     19  C   UNL     1      -4.422  -8.434  -1.992  0.00  0.00    -0.008 C 
ATOM     20  C   UNL     1      -5.093  -8.815  -0.671  0.00  0.00    +0.007 C 
ATOM     21  C   UNL     1      -4.021  -9.095   0.384  0.00  0.00    -0.008 C 
ATOM     22  C   UNL     1      -3.167  -7.842   0.589  0.00  0.00    +0.029 C 
ATOM     23  C   UNL     1      -3.131 -10.248  -0.087  0.00  0.00    +0.007 C 
ATOM     24  C   UNL     1      -2.460  -9.867  -1.408  0.00  0.00    -0.008 C 
ATOM     25  C   UNL     1      -3.532  -9.587  -2.462  0.00  0.00    +0.007 C 
ATOM     26  C   UNL     1      -1.606  -8.614  -1.203  0.00  0.00    +0.029 C 
ENDBRANCH  14  17
BRANCH   6  27
ATOM     27  N   UNL     1       0.049  -2.674   2.374  0.00  0.00    -0.310 N 
ATOM     28  C   UNL     1       1.312  -3.121   2.981  0.00  0.00    +0.138 C 
ATOM     29  C   UNL     1       1.333  -2.665   4.444  0.00  0.00    +0.133 C 
ATOM     30  O   UNL     1       0.132  -3.095   5.089  0.00  0.00    -0.371 OA
ATOM     31  C   UNL     1      -1.061  -2.533   4.538  0.00  0.00    +0.133 C 
ATOM     32  C   UNL     1      -1.205  -2.977   3.083  0.00  0.00    +0.138 C 
ATOM     33  C   UNL     1      -2.271  -3.012   5.343  0.00  0.00    +0.039 C 
ATOM     34  C   UNL     1       2.543  -3.278   5.153  0.00  0.00    +0.039 C 
ENDBRANCH   6  27
TORSDOF 2
