REMARK  Name = ZINC09305271
REMARK  10 active torsions:
REMARK  status: ('A' for Active; 'I' for Inactive)
REMARK    1  A    between atoms: C_1  and  C_2
REMARK    2  A    between atoms: C_6  and  C_25
REMARK    3  A    between atoms: C_7  and  C_11
REMARK    4  A    between atoms: C_11  and  C_12
REMARK    5  A    between atoms: N_14  and  C_15
REMARK    6  A    between atoms: C_22  and  O_24
REMARK    7  A    between atoms: C_28  and  C_31
REMARK    8  A    between atoms: C_31  and  C_32
REMARK    9  A    between atoms: C_31  and  C_33
REMARK   10  A    between atoms: C_31  and  C_34
REMARK                            x       y       z     vdW  Elec       q    Type
REMARK                         _______ _______ _______ _____ _____    ______ ____
ROOT
ATOM      1  C   UNL     1      -3.067   3.488   2.361  0.00  0.00    +0.044 C 
ATOM      2  C   UNL     1      -2.668   2.959   3.714  0.00  0.00    -0.036 A 
ATOM      3  C   UNL     1      -3.479   3.173   4.791  0.00  0.00    +0.051 A 
ATOM      4  C   UNL     1      -3.127   2.691   6.049  0.00  0.00    +0.143 A 
ATOM      5  C   UNL     1      -1.931   1.972   6.214  0.00  0.00    +0.064 A 
ATOM      6  C   UNL     1      -1.576   1.475   7.543  0.00  0.00    -0.026 A 
ATOM      7  C   UNL     1      -2.433   1.720   8.570  0.00  0.00    +0.049 A 
ATOM      8  C   UNL     1      -3.623   2.435   8.332  0.00  0.00    +0.341 A 
ATOM      9  O   UNL     1      -4.384   2.648   9.259  0.00  0.00    -0.245 OA
ATOM     10  O   UNL     1      -3.931   2.905   7.113  0.00  0.00    -0.422 OA
ATOM     11  C   UNL     1      -0.295   0.714   7.769  0.00  0.00    +0.045 C 
ATOM     12  C   UNL     1      -1.089   1.753   5.110  0.00  0.00    +0.146 A 
ATOM     13  C   UNL     1      -1.470   2.253   3.858  0.00  0.00    +0.028 A 
ATOM     14  C   UNL     1      -0.398   1.858   2.936  0.00  0.00    +0.004 A 
ATOM     15  C   UNL     1       0.502   1.193   3.673  0.00  0.00    +0.200 A 
ATOM     16  O   UNL     1       0.094   1.131   4.953  0.00  0.00    -0.462 OA
ENDROOT
BRANCH  14  17
ATOM     17  C   UNL     1      -0.322   2.148   1.459  0.00  0.00    -0.009 C 
ATOM     18  C   UNL     1       0.930   1.490   0.874  0.00  0.00    +0.015 C 
ATOM     19  C   UNL     1      -0.253   3.660   1.239  0.00  0.00    +0.015 C 
ATOM     20  C   UNL     1      -1.564   1.587   0.764  0.00  0.00    +0.015 C 
ENDBRANCH  14  17
BRANCH   7  21
ATOM     21  C   UNL     1      -2.110   1.228   9.958  0.00  0.00    +0.138 C 
BRANCH  21  22
ATOM     22  C   UNL     1      -1.326   2.283  10.695  0.00  0.00    +0.218 C 
ATOM     23  O   UNL     1      -1.055   3.331  10.147  0.00  0.00    -0.275 OA
ATOM     24  N   UNL     1      -0.925   2.063  11.962  0.00  0.00    -0.308 N 
ATOM     25  H   UNL     1      -1.141   1.225  12.400  0.00  0.00    +0.149 HD
BRANCH  24  26
ATOM     26  C   UNL     1      -0.162   3.088  12.679  0.00  0.00    +0.124 C 
ATOM     27  C   UNL     1      -1.152   4.066  13.341  0.00  0.00    +0.190 C 
ATOM     28  S   UNL     1      -0.632   4.059  15.108  0.00  0.00    -0.027 S 
ATOM     29  O   UNL     1      -0.506   5.399  15.564  0.00  0.00    -0.174 OA
ATOM     30  O   UNL     1      -1.445   3.143  15.830  0.00  0.00    -0.174 OA
ATOM     31  C   UNL     1       1.050   3.332  14.885  0.00  0.00    +0.199 C 
ATOM     32  C   UNL     1       0.771   2.400  13.673  0.00  0.00    +0.157 C 
BRANCH  32  33
ATOM     33  O   UNL     1       2.005   2.086  13.024  0.00  0.00    -0.388 OA
ATOM     34  H   UNL     1       2.649   1.645  13.595  0.00  0.00    +0.210 HD
ENDBRANCH  32  33
ENDBRANCH  24  26
ENDBRANCH  21  22
ENDBRANCH   7  21
TORSDOF 5
