REMARK  Name = ZINC49127979
REMARK  5 active torsions:
REMARK  status: ('A' for Active; 'I' for Inactive)
REMARK    1  A    between atoms: C_1  and  C_2
REMARK    2  A    between atoms: C_2  and  C_4
REMARK    3  A    between atoms: C_2  and  N_10
REMARK    4  A    between atoms: N_10  and  C_11
REMARK    5  A    between atoms: C_16  and  N_17
REMARK                            x       y       z     vdW  Elec       q    Type
REMARK                         _______ _______ _______ _____ _____    ______ ____
ROOT
ATOM      1  C   UNL     1      -2.051  -0.660   1.221  0.00  0.00    +0.051 A 
ATOM      2  C   UNL     1      -1.423  -0.322   2.406  0.00  0.00    +0.053 A 
ATOM      3  C   UNL     1      -2.101  -0.470   3.615  0.00  0.00    +0.080 A 
ATOM      4  C   UNL     1      -3.426  -0.966   3.615  0.00  0.00    +0.067 A 
ATOM      5  C   UNL     1      -4.049  -1.303   2.413  0.00  0.00    +0.040 A 
ATOM      6  C   UNL     1      -3.366  -1.146   1.223  0.00  0.00    +0.047 A 
ATOM      7  C   UNL     1      -4.108  -1.109   4.907  0.00  0.00    +0.259 A 
ATOM      8  O   UNL     1      -5.249  -1.530   4.976  0.00  0.00    -0.267 OA
ATOM      9  N   UNL     1      -3.421  -0.755   6.018  0.00  0.00    -0.313 N 
ATOM     10  H   UNL     1      -3.841  -0.837   6.888  0.00  0.00    +0.170 HD
ATOM     11  C   UNL     1      -2.148  -0.288   5.926  0.00  0.00    +0.199 A 
ATOM     12  N   UNL     1      -1.519  -0.150   4.799  0.00  0.00    -0.237 NA
ENDROOT
BRANCH   6  13
ATOM     13  N   UNL     1      -3.989  -1.478   0.014  0.00  0.00    -0.357 N 
ATOM     14  H   UNL     1      -3.510  -1.371  -0.823  0.00  0.00    +0.142 HD
ATOM     15  H   UNL     1      -4.898  -1.814   0.013  0.00  0.00    +0.142 HD
ENDBRANCH   6  13
BRANCH   1  16
ATOM     16  N   UNL     1      -1.372  -0.511   0.012  0.00  0.00    -0.335 N 
ATOM     17  H   UNL     1      -1.810  -0.743  -0.822  0.00  0.00    +0.147 HD
BRANCH  16  19
ATOM     18  C   UNL     1      -0.019   1.526   0.010  0.00  0.00    +0.033 C 
ATOM     19  C   UNL     1       0.002  -0.004   0.002  0.00  0.00    +0.104 C 
BRANCH  19  20
ATOM     20  C   UNL     1       0.707  -0.490  -1.238  0.00  0.00    +0.011 A 
ATOM     21  C   UNL     1       1.980  -0.934  -1.377  0.00  0.00    +0.014 A 
ATOM     22  C   UNL     1       2.418  -1.335  -2.626  0.00  0.00    +0.028 A 
ATOM     23  C   UNL     1       1.560  -1.271  -3.674  0.00  0.00    +0.078 A 
ATOM     24  S   UNL     1       0.081  -0.638  -2.903  0.00  0.00    -0.080 S 
ATOM     25 CL   UNL     1       1.830  -1.701  -5.335  0.00  0.00    -0.076 Cl
ENDBRANCH  19  20
ENDBRANCH  16  19
ENDBRANCH   1  16
TORSDOF 4
