REMARK  Name = ZINC39324913
REMARK  10 active torsions:
REMARK  status: ('A' for Active; 'I' for Inactive)
REMARK    1  A    between atoms: C_1  and  C_2
REMARK    2  A    between atoms: C_7  and  C_14
REMARK    3  A    between atoms: C_14  and  N_15
REMARK    4  A    between atoms: N_15  and  C_16
REMARK    5  A    between atoms: N_15  and  S_24
REMARK    6  A    between atoms: C_16  and  C_17
REMARK    7  A    between atoms: S_24  and  C_27
REMARK    8  A    between atoms: C_28  and  C_35
REMARK    9  A    between atoms: C_30  and  C_34
REMARK   10  A    between atoms: C_32  and  C_33
REMARK                            x       y       z     vdW  Elec       q    Type
REMARK                         _______ _______ _______ _____ _____    ______ ____
ROOT
ATOM      1  N   UNL     1       0.359  -6.934   2.611  0.00  0.00    -0.171 NA
ENDROOT
BRANCH   1   2
ATOM      2  S   UNL     1       1.063  -5.818   3.612  0.00  0.00    +0.062 S 
ATOM      3  O   UNL     1       2.053  -5.150   2.843  0.00  0.00    -0.153 OA
ATOM      4  O   UNL     1       0.003  -5.125   4.256  0.00  0.00    -0.153 OA
BRANCH   2   5
ATOM      5  C   UNL     1       1.917  -6.711   4.868  0.00  0.00    +0.111 A 
ATOM      6  C   UNL     1       3.163  -7.250   4.607  0.00  0.00    -0.024 A 
ATOM      7  C   UNL     1       3.834  -7.950   5.592  0.00  0.00    +0.008 A 
ATOM      8  C   UNL     1       3.259  -8.111   6.839  0.00  0.00    -0.050 A 
ATOM      9  C   UNL     1       2.014  -7.571   7.100  0.00  0.00    +0.008 A 
ATOM     10  C   UNL     1       1.345  -6.867   6.117  0.00  0.00    -0.024 A 
ATOM     11  C   UNL     1      -0.010  -6.274   6.403  0.00  0.00    +0.046 C 
ATOM     12  C   UNL     1       3.990  -8.875   7.913  0.00  0.00    +0.044 C 
ATOM     13  C   UNL     1       3.790  -7.075   3.247  0.00  0.00    +0.046 C 
ENDBRANCH   2   5
ENDBRANCH   1   2
BRANCH   1  14
ATOM     14  C   UNL     1       0.936  -7.202   1.292  0.00  0.00    +0.126 C 
BRANCH  14  21
ATOM     15  C   UNL     1       2.290  -2.618  -4.484  0.00  0.00    +0.044 C 
ATOM     16  C   UNL     1       1.854  -3.744  -3.582  0.00  0.00    -0.049 A 
ATOM     17  C   UNL     1       2.011  -5.057  -4.028  0.00  0.00    +0.004 A 
ATOM     18  C   UNL     1       1.637  -6.113  -3.261  0.00  0.00    +0.010 A 
ATOM     19  C   UNL     1       1.060  -5.857  -1.941  0.00  0.00    -0.007 A 
ATOM     20  C   UNL     1       0.670  -6.887  -1.136  0.00  0.00    -0.003 C 
ATOM     21  C   UNL     1       0.083  -6.529   0.215  0.00  0.00    +0.114 C 
ATOM     22  C   UNL     1      -0.024  -5.060   0.560  0.00  0.00    +0.225 C 
ATOM     23  O   UNL     1      -0.488  -4.716   1.631  0.00  0.00    -0.275 OA
ATOM     24  N   UNL     1       0.389  -4.151  -0.307  0.00  0.00    -0.284 N 
ATOM     25  C   UNL     1       0.906  -4.461  -1.496  0.00  0.00    +0.041 A 
ATOM     26  C   UNL     1       1.330  -3.440  -2.366  0.00  0.00    +0.027 A 
ATOM     27  H   UNL     1       0.312  -3.215  -0.067  0.00  0.00    +0.155 HD
ENDBRANCH  14  21
ENDBRANCH   1  14
BRANCH   1  28
ATOM     28  C   UNL     1      -0.841  -7.653   3.045  0.00  0.00    +0.144 C 
BRANCH  28  29
ATOM     29  C   UNL     1      -0.518  -9.116   3.212  0.00  0.00    -0.031 A 
ATOM     30  C   UNL     1      -0.660  -9.981   2.144  0.00  0.00    +0.008 A 
ATOM     31  C   UNL     1      -0.363 -11.322   2.296  0.00  0.00    +0.038 A 
ATOM     32  C   UNL     1       0.077 -11.799   3.519  0.00  0.00    +0.123 A 
ATOM     33  C   UNL     1       0.219 -10.931   4.588  0.00  0.00    +0.038 A 
ATOM     34  C   UNL     1      -0.073  -9.589   4.433  0.00  0.00    +0.008 A 
ATOM     35  F   UNL     1       0.368 -13.110   3.669  0.00  0.00    -0.205 F 
ENDBRANCH  28  29
ENDBRANCH   1  28
TORSDOF 6
