REMARK  Name = ZINC00846755
REMARK  4 active torsions:
REMARK  status: ('A' for Active; 'I' for Inactive)
REMARK    1  A    between atoms: C_4  and  N_7
REMARK    2  A    between atoms: N_7  and  C_8
REMARK    3  A    between atoms: C_8  and  N_10
REMARK    4  A    between atoms: C_17  and  C_27
REMARK                            x       y       z     vdW  Elec       q    Type
REMARK                         _______ _______ _______ _____ _____    ______ ____
ROOT
ATOM      1  N   UNL     1      -4.519   5.117   5.916  0.00  0.00    -0.302 N 
ATOM      2  C   UNL     1      -3.125   4.994   6.353  0.00  0.00    +0.129 C 
ATOM      3  C   UNL     1      -2.553   3.621   5.955  0.00  0.00    +0.141 C 
ATOM      4  N   UNL     1      -2.709   3.507   4.496  0.00  0.00    -0.340 N 
ATOM      5  C   UNL     1      -1.917   2.925   3.558  0.00  0.00    +0.050 A 
ATOM      6  C   UNL     1      -0.768   2.142   3.657  0.00  0.00    +0.027 A 
ATOM      7  C   UNL     1      -0.179   1.733   2.474  0.00  0.00    +0.006 A 
ATOM      8  C   UNL     1      -0.687   2.086   1.235  0.00  0.00    -0.044 A 
ATOM      9  C   UNL     1      -1.821   2.848   1.103  0.00  0.00    +0.014 A 
ATOM     10  C   UNL     1      -2.448   3.265   2.280  0.00  0.00    +0.004 A 
ATOM     11  C   UNL     1      -3.649   4.033   2.529  0.00  0.00    -0.017 A 
ATOM     12  C   UNL     1      -3.766   4.106   3.868  0.00  0.00    +0.044 A 
ATOM     13  C   UNL     1      -4.910   4.833   4.539  0.00  0.00    +0.122 C 
ATOM     14  C   UNL     1      -5.130   6.096   3.704  0.00  0.00    +0.029 C 
ATOM     15  C   UNL     1      -5.497   5.728   2.273  0.00  0.00    +0.007 C 
ATOM     16  C   UNL     1      -4.629   4.681   1.600  0.00  0.00    +0.037 C 
ENDROOT
BRANCH   8  17
ATOM     17  C   UNL     1       0.023   1.613  -0.007  0.00  0.00    +0.019 C 
ATOM     18  C   UNL     1       1.453   2.157  -0.016  0.00  0.00    +0.008 C 
ATOM     19  C   UNL     1       2.174   1.677  -1.277  0.00  0.00    +0.001 C 
ATOM     20  C   UNL     1       2.211   0.147  -1.292  0.00  0.00    +0.000 C 
ATOM     21  C   UNL     1       0.781  -0.397  -1.284  0.00  0.00    +0.001 C 
ATOM     22  C   UNL     1       0.060   0.083  -0.023  0.00  0.00    +0.008 C 
ENDBRANCH   8  17
BRANCH   1  23
ATOM     23  C   UNL     1      -5.457   5.501   6.804  0.00  0.00    +0.138 C 
ATOM     24  S   UNL     1      -7.066   5.771   6.286  0.00  0.00    -0.018 S 
BRANCH  23  25
ATOM     25  N   UNL     1      -5.129   5.672   8.100  0.00  0.00    -0.297 N 
ATOM     26  H   UNL     1      -5.340   4.983   8.749  0.00  0.00    +0.154 HD
BRANCH  25  30
ATOM     27  C   UNL     1      -3.209   9.163   9.318  0.00  0.00    +0.000 A 
ATOM     28  C   UNL     1      -3.415   8.137  10.223  0.00  0.00    +0.002 A 
ATOM     29  C   UNL     1      -4.051   6.979   9.822  0.00  0.00    +0.023 A 
ATOM     30  C   UNL     1      -4.484   6.845   8.509  0.00  0.00    +0.033 A 
ATOM     31  C   UNL     1      -4.271   7.874   7.602  0.00  0.00    +0.023 A 
ATOM     32  C   UNL     1      -3.639   9.033   8.011  0.00  0.00    +0.002 A 
ENDBRANCH  25  30
ENDBRANCH  23  25
ENDBRANCH   1  23
TORSDOF 4
