REMARK  Name = ZINC20746166
REMARK  2 active torsions:
REMARK  status: ('A' for Active; 'I' for Inactive)
REMARK    1  A    between atoms: C_1  and  C_2
REMARK    2  A    between atoms: C_18  and  C_20
REMARK                            x       y       z     vdW  Elec       q    Type
REMARK                         _______ _______ _______ _____ _____    ______ ____
ROOT
ATOM      1  C   UNL     1       0.082   1.470   0.018  0.00  0.00    +0.068 C 
ATOM      2  C   UNL     1       0.080  -0.037  -0.008  0.00  0.00    +0.067 A 
ATOM      3  C   UNL     1      -0.073  -0.838  -1.161  0.00  0.00    +0.033 A 
ATOM      4  C   UNL     1      -0.020  -2.131  -0.774  0.00  0.00    +0.137 A 
ATOM      5  N   UNL     1       0.166  -2.136   0.592  0.00  0.00    -0.183 N 
ATOM      6  N   UNL     1       0.227  -0.812   1.027  0.00  0.00    -0.167 NA
ATOM      7  C   UNL     1       0.279  -3.267   1.398  0.00  0.00    +0.253 A 
ATOM      8  N   UNL     1       0.327  -3.121   2.713  0.00  0.00    -0.219 NA
ATOM      9  C   UNL     1       0.434  -4.174   3.507  0.00  0.00    +0.116 A 
ATOM     10  C   UNL     1       0.496  -5.440   2.946  0.00  0.00    +0.039 A 
ATOM     11  C   UNL     1       0.443  -5.556   1.565  0.00  0.00    +0.116 A 
ATOM     12  N   UNL     1       0.330  -4.462   0.830  0.00  0.00    -0.219 NA
ATOM     13  N   UNL     1      -0.120  -3.304  -1.481  0.00  0.00    -0.269 N 
ATOM     14  C   UNL     1      -0.245  -3.611  -2.737  0.00  0.00    +0.228 C 
ATOM     15  O   UNL     1      -0.194  -4.798  -2.980  0.00  0.00    -0.275 OA
ATOM     16  C   UNL     1      -0.441  -2.743  -3.918  0.00  0.00    +0.166 C 
ATOM     17  S   UNL     1       0.501  -1.214  -3.828  0.00  0.00    -0.138 S 
ATOM     18  C   UNL     1      -0.255  -0.243  -2.522  0.00  0.00    +0.113 C 
ATOM     19  H   UNL     1      -0.089  -4.087  -0.909  0.00  0.00    +0.156 HD
ENDROOT
BRANCH  18  20
ATOM     20  C   UNL     1       0.352   1.137  -2.531  0.00  0.00    -0.011 A 
ATOM     21  C   UNL     1       1.710   1.295  -2.328  0.00  0.00    +0.009 A 
ATOM     22  C   UNL     1       2.268   2.559  -2.336  0.00  0.00    +0.039 A 
ATOM     23  C   UNL     1       1.466   3.669  -2.549  0.00  0.00    +0.125 A 
ATOM     24  C   UNL     1       0.106   3.510  -2.753  0.00  0.00    +0.058 A 
ATOM     25  C   UNL     1      -0.450   2.243  -2.750  0.00  0.00    +0.048 A 
ATOM     26 CL   UNL     1      -2.154   2.042  -3.012  0.00  0.00    -0.083 Cl
ATOM     27  F   UNL     1       2.011   4.905  -2.556  0.00  0.00    -0.205 F 
ENDBRANCH  18  20
TORSDOF 1
