REMARK  Name = ZINC64985994
REMARK  10 active torsions:
REMARK  status: ('A' for Active; 'I' for Inactive)
REMARK    1  A    between atoms: C_1  and  C_2
REMARK    2  A    between atoms: C_2  and  O_3
REMARK    3  A    between atoms: O_3  and  C_4
REMARK    4  A    between atoms: C_4  and  C_6
REMARK    5  A    between atoms: C_11  and  N_12
REMARK    6  A    between atoms: C_13  and  C_15
REMARK    7  A    between atoms: N_18  and  S_27
REMARK    8  A    between atoms: C_22  and  C_26
REMARK    9  A    between atoms: S_27  and  C_30
REMARK   10  A    between atoms: C_33  and  C_36
REMARK                            x       y       z     vdW  Elec       q    Type
REMARK                         _______ _______ _______ _____ _____    ______ ____
ROOT
ATOM      1  C   UNL     1      -1.044  -7.005  -0.397  0.00  0.00    +0.278 C 
ATOM      2  C   UNL     1      -0.126  -6.706  -1.590  0.00  0.00    +0.186 C 
ATOM      3  N   UNL     1       0.959  -7.702  -1.578  0.00  0.00    -0.195 N 
ATOM      4  C   UNL     1       0.619  -9.034  -1.294  0.00  0.00    +0.093 A 
ATOM      5  C   UNL     1       1.526 -10.051  -1.546  0.00  0.00    +0.029 A 
ATOM      6  C   UNL     1       1.188 -11.362  -1.262  0.00  0.00    +0.005 A 
ATOM      7  C   UNL     1      -0.053 -11.656  -0.728  0.00  0.00    -0.047 A 
ATOM      8  C   UNL     1      -0.962 -10.646  -0.477  0.00  0.00    +0.051 A 
ATOM      9  C   UNL     1      -0.632  -9.329  -0.760  0.00  0.00    +0.144 A 
ATOM     10  O   UNL     1      -1.536  -8.342  -0.514  0.00  0.00    -0.476 OA
ATOM     11  C   UNL     1      -0.417 -13.086  -0.420  0.00  0.00    +0.044 C 
ENDROOT
BRANCH   1  13
ATOM     12  N   UNL     1      -1.982  -4.725  -0.198  0.00  0.00    -0.282 N 
ATOM     13  C   UNL     1      -2.201  -6.040  -0.395  0.00  0.00    +0.260 C 
ATOM     14  O   UNL     1      -3.330  -6.447  -0.572  0.00  0.00    -0.271 OA
ATOM     15  H   UNL     1      -1.074  -4.389  -0.134  0.00  0.00    +0.155 HD
BRANCH  12  21
ATOM     16  C   UNL     1      -2.959  -2.542  -0.590  0.00  0.00    +0.080 A 
ATOM     17  C   UNL     1      -4.049  -1.675  -0.477  0.00  0.00    +0.017 A 
ATOM     18  C   UNL     1      -5.208  -2.103   0.131  0.00  0.00    +0.001 A 
ATOM     19  C   UNL     1      -5.301  -3.392   0.632  0.00  0.00    +0.002 A 
ATOM     20  C   UNL     1      -4.233  -4.261   0.528  0.00  0.00    +0.024 A 
ATOM     21  C   UNL     1      -3.058  -3.848  -0.086  0.00  0.00    +0.048 A 
BRANCH  16  22
ATOM     22  C   UNL     1      -1.716  -2.091  -1.240  0.00  0.00    +0.341 C 
ATOM     23  O   UNL     1      -0.743  -2.818  -1.262  0.00  0.00    -0.245 OA
BRANCH  22  24
ATOM     24  O   UNL     1      -1.659  -0.871  -1.811  0.00  0.00    -0.461 OA
BRANCH  24  26
ATOM     25  C   UNL     1      -0.548   0.907  -3.012  0.00  0.00    +0.048 C 
ATOM     26  C   UNL     1      -0.422  -0.499  -2.423  0.00  0.00    +0.229 C 
ENDBRANCH  24  26
ENDBRANCH  22  24
ENDBRANCH  16  22
ENDBRANCH  12  21
ENDBRANCH   1  13
BRANCH   3  27
ATOM     27  S   UNL     1       2.526  -7.266  -1.888  0.00  0.00    +0.075 S 
ATOM     28  O   UNL     1       2.603  -5.860  -1.690  0.00  0.00    -0.150 OA
ATOM     29  O   UNL     1       3.351  -8.181  -1.179  0.00  0.00    -0.150 OA
BRANCH  27  30
ATOM     30  C   UNL     1       2.817  -7.550  -3.602  0.00  0.00    +0.109 A 
ATOM     31  C   UNL     1       3.285  -8.779  -4.029  0.00  0.00    +0.029 A 
ATOM     32  C   UNL     1       3.513  -9.002  -5.375  0.00  0.00    +0.005 A 
ATOM     33  C   UNL     1       3.272  -7.997  -6.292  0.00  0.00    -0.050 A 
ATOM     34  C   UNL     1       2.803  -6.768  -5.865  0.00  0.00    +0.005 A 
ATOM     35  C   UNL     1       2.571  -6.546  -4.521  0.00  0.00    +0.029 A 
ATOM     36  C   UNL     1       3.521  -8.239  -7.759  0.00  0.00    +0.044 C 
ENDBRANCH  27  30
ENDBRANCH   3  27
TORSDOF 7
