REMARK  Name = ZINC11841208
REMARK  10 active torsions:
REMARK  status: ('A' for Active; 'I' for Inactive)
REMARK    1  A    between atoms: C_1  and  C_2
REMARK    2  A    between atoms: C_2  and  C_3
REMARK    3  A    between atoms: C_2  and  C_4
REMARK    4  A    between atoms: C_4  and  C_6
REMARK    5  A    between atoms: C_4  and  N_29
REMARK    6  A    between atoms: C_15  and  C_16
REMARK    7  A    between atoms: C_15  and  N_71
REMARK    8  A    between atoms: C_20  and  O_22
REMARK    9  A    between atoms: O_22  and  C_23
REMARK   10  A    between atoms: C_30  and  C_32
REMARK                            x       y       z     vdW  Elec       q    Type
REMARK                         _______ _______ _______ _____ _____    ______ ____
ROOT
ATOM      1  C   UNL     1      -1.914   3.226  -2.522  0.00  0.00    +0.154 A 
ATOM      2  N   UNL     1      -1.867   2.045  -3.080  0.00  0.00    -0.132 NA
ATOM      3  N   UNL     1      -1.264   1.218  -2.298  0.00  0.00    -0.134 NA
ATOM      4  C   UNL     1      -0.894   1.835  -1.215  0.00  0.00    +0.132 A 
ATOM      5  N   UNL     1      -1.312   3.121  -1.319  0.00  0.00    -0.315 N 
ATOM      6  C   UNL     1      -1.148   4.163  -0.305  0.00  0.00    +0.106 C 
ATOM      7  C   UNL     1       0.094   3.857   0.536  0.00  0.00    -0.056 C 
ATOM      8  C   UNL     1      -0.818   1.718   1.254  0.00  0.00    -0.071 C 
ATOM      9  C   UNL     1      -0.137   1.268  -0.042  0.00  0.00    +0.058 C 
ATOM     10  N   UNL     1      -0.246   3.006   1.701  0.00  0.00    +0.384 N 
ATOM     11  H   UNL     1       0.611   2.820   2.235  0.00  0.00    -0.081 HD
ENDROOT
BRANCH   1  12
ATOM     12  C   UNL     1      -2.523   4.471  -3.113  0.00  0.00    +0.144 C 
BRANCH  12  13
ATOM     13  N   UNL     1      -3.828   4.148  -3.696  0.00  0.00    -0.305 N 
ATOM     14  C   UNL     1      -4.766   5.107  -3.823  0.00  0.00    +0.219 C 
ATOM     15  O   UNL     1      -4.530   6.238  -3.455  0.00  0.00    -0.275 OA
ATOM     16  H   UNL     1      -4.016   3.243  -3.990  0.00  0.00    +0.149 HD
BRANCH  14  17
ATOM     17  C   UNL     1      -6.108   4.774  -4.422  0.00  0.00    +0.103 C 
ATOM     18  C   UNL     1      -7.009   6.028  -4.463  0.00  0.00    +0.043 C 
ATOM     19  C   UNL     1      -8.216   5.652  -3.575  0.00  0.00    +0.160 C 
ATOM     20  O   UNL     1      -7.717   4.625  -2.690  0.00  0.00    -0.379 OA
ATOM     21  C   UNL     1      -6.877   3.788  -3.515  0.00  0.00    +0.172 C 
ENDBRANCH  14  17
ENDBRANCH  12  13
BRANCH  12  23
ATOM     22  C   UNL     1      -2.220   6.288  -4.801  0.00  0.00    +0.009 C 
ATOM     23  C   UNL     1      -1.601   5.024  -4.202  0.00  0.00    +0.011 C 
ATOM     24  C   UNL     1      -0.239   5.362  -3.593  0.00  0.00    +0.009 C 
ENDBRANCH  12  23
ENDBRANCH   1  12
BRANCH  10  25
ATOM     25  C   UNL     1      -1.207   3.707   2.571  0.00  0.00    -0.043 C 
BRANCH  25  26
ATOM     26  C   UNL     1      -1.371   2.915   3.842  0.00  0.00    -0.060 A 
ATOM     27  C   UNL     1      -0.530   3.147   4.915  0.00  0.00    +0.002 A 
ATOM     28  C   UNL     1      -0.678   2.422   6.083  0.00  0.00    +0.004 A 
ATOM     29  C   UNL     1      -1.667   1.463   6.181  0.00  0.00    +0.046 A 
ATOM     30  C   UNL     1      -2.512   1.228   5.106  0.00  0.00    +0.129 A 
ATOM     31  C   UNL     1      -2.365   1.961   3.937  0.00  0.00    +0.048 A 
BRANCH  30  32
ATOM     32  O   UNL     1      -3.486   0.284   5.200  0.00  0.00    -0.456 OA
BRANCH  32  33
ATOM     33  C   UNL     1      -4.514   0.512   6.060  0.00  0.00    +0.128 A 
ATOM     34  C   UNL     1      -4.612   1.729   6.719  0.00  0.00    +0.046 A 
ATOM     35  C   UNL     1      -5.660   1.960   7.588  0.00  0.00    +0.004 A 
ATOM     36  C   UNL     1      -6.605   0.975   7.810  0.00  0.00    +0.000 A 
ATOM     37  C   UNL     1      -6.506  -0.241   7.159  0.00  0.00    +0.004 A 
ATOM     38  C   UNL     1      -5.463  -0.475   6.285  0.00  0.00    +0.046 A 
ENDBRANCH  32  33
ENDBRANCH  30  32
ENDBRANCH  25  26
ENDBRANCH  10  25
TORSDOF 8
