REMARK  Name = ZINC33625134
REMARK  15 active torsions:
REMARK  status: ('A' for Active; 'I' for Inactive)
REMARK    1  A    between atoms: C_1  and  C_2
REMARK    2  A    between atoms: C_3  and  C_21
REMARK    3  A    between atoms: C_4  and  C_16
REMARK    4  A    between atoms: C_5  and  C_9
REMARK    5  A    between atoms: C_6  and  C_8
REMARK    6  A    between atoms: C_9  and  O_11
REMARK    7  A    between atoms: O_11  and  C_12
REMARK    8  A    between atoms: C_12  and  C_13
REMARK    9  A    between atoms: C_12  and  C_14
REMARK   10  A    between atoms: C_12  and  C_15
REMARK   11  A    between atoms: C_21  and  O_23
REMARK   12  A    between atoms: O_23  and  C_24
REMARK   13  A    between atoms: C_24  and  C_25
REMARK   14  A    between atoms: C_24  and  C_26
REMARK   15  A    between atoms: C_24  and  C_27
REMARK                            x       y       z     vdW  Elec       q    Type
REMARK                         _______ _______ _______ _____ _____    ______ ____
ROOT
ATOM      1  C   UNL     1       3.128   3.278  -0.900  0.00  0.00    +0.061 C 
ATOM      2  C   UNL     1       1.736   2.704  -0.857  0.00  0.00    +0.016 C 
ATOM      3  C   UNL     1       1.474   1.657  -0.054  0.00  0.00    +0.068 C 
ATOM      4  C   UNL     1       0.099   1.058   0.028  0.00  0.00    +0.132 C 
ATOM      5  C   UNL     1      -0.745   1.502  -1.133  0.00  0.00    +0.068 C 
ATOM      6  C   UNL     1      -0.395   2.555  -1.892  0.00  0.00    +0.016 C 
ATOM      7  N   UNL     1       0.753   3.253  -1.635  0.00  0.00    -0.321 N 
ATOM      8  C   UNL     1      -1.277   2.970  -3.041  0.00  0.00    +0.061 C 
ATOM      9  H   UNL     1       0.885   4.261  -2.056  0.00  0.00    +0.152 HD
ENDROOT
BRANCH   4  10
ATOM     10  C   UNL     1      -0.557   1.494   1.312  0.00  0.00    +0.117 A 
ATOM     11  C   UNL     1      -0.979   0.679   2.296  0.00  0.00    +0.045 A 
ATOM     12  C   UNL     1      -1.528   1.504   3.304  0.00  0.00    +0.041 A 
ATOM     13  C   UNL     1      -1.408   2.774   2.877  0.00  0.00    +0.195 A 
ATOM     14  O   UNL     1      -0.815   2.762   1.672  0.00  0.00    -0.467 OA
ENDBRANCH   4  10
BRANCH   5  15
ATOM     15  C   UNL     1      -1.934   0.798  -1.433  0.00  0.00    +0.338 C 
ATOM     16  O   UNL     1      -2.628   1.147  -2.371  0.00  0.00    -0.245 OA
BRANCH  15  17
ATOM     17  O   UNL     1      -2.300  -0.261  -0.681  0.00  0.00    -0.456 OA
BRANCH  17  18
ATOM     18  C   UNL     1      -3.513  -0.925  -1.041  0.00  0.00    +0.106 C 
ATOM     19  C   UNL     1      -3.397  -1.457  -2.470  0.00  0.00    +0.055 C 
ATOM     20  C   UNL     1      -3.761  -2.090  -0.081  0.00  0.00    +0.055 C 
ATOM     21  C   UNL     1      -4.679   0.062  -0.957  0.00  0.00    +0.055 C 
ENDBRANCH  17  18
ENDBRANCH  15  17
ENDBRANCH   5  15
BRANCH   3  22
ATOM     22  C   UNL     1       2.515   1.110   0.731  0.00  0.00    +0.338 C 
ATOM     23  O   UNL     1       3.655   1.516   0.598  0.00  0.00    -0.245 OA
BRANCH  22  24
ATOM     24  O   UNL     1       2.245   0.138   1.627  0.00  0.00    -0.456 OA
BRANCH  24  25
ATOM     25  C   UNL     1       3.345  -0.369   2.386  0.00  0.00    +0.106 C 
ATOM     26  C   UNL     1       3.976   0.768   3.191  0.00  0.00    +0.055 C 
ATOM     27  C   UNL     1       2.847  -1.455   3.341  0.00  0.00    +0.055 C 
ATOM     28  C   UNL     1       4.388  -0.963   1.437  0.00  0.00    +0.055 C 
ENDBRANCH  24  25
ENDBRANCH  22  24
ENDBRANCH   3  22
TORSDOF 7
