REMARK  Name = ZINC40008850
REMARK  15 active torsions:
REMARK  status: ('A' for Active; 'I' for Inactive)
REMARK    1  A    between atoms: C_1  and  C_2
REMARK    2  A    between atoms: C_2  and  C_3
REMARK    3  A    between atoms: C_3  and  C_4
REMARK    4  A    between atoms: C_4  and  N_5
REMARK    5  A    between atoms: N_5  and  C_6
REMARK    6  A    between atoms: N_5  and  C_10
REMARK    7  A    between atoms: C_6  and  C_7
REMARK    8  A    between atoms: C_7  and  C_8
REMARK    9  A    between atoms: C_8  and  C_9
REMARK   10  A    between atoms: C_10  and  C_11
REMARK   11  A    between atoms: C_11  and  C_12
REMARK   12  A    between atoms: C_12  and  N_13
REMARK   13  A    between atoms: C_14  and  C_31
REMARK   14  A    between atoms: C_21  and  C_30
REMARK   15  A    between atoms: C_22  and  C_29
REMARK                            x       y       z     vdW  Elec       q    Type
REMARK                         _______ _______ _______ _____ _____    ______ ____
ROOT
ATOM      1  N   UNL     1       3.869  -5.930  -0.299  0.00  0.00    -0.284 N 
ATOM      2  C   UNL     1       3.351  -6.241  -1.641  0.00  0.00    +0.144 C 
ATOM      3  C   UNL     1       4.552  -6.400  -2.515  0.00  0.00    +0.072 A 
ATOM      4  C   UNL     1       4.674  -6.720  -3.941  0.00  0.00    +0.199 A 
ATOM      5  O   UNL     1       3.724  -6.744  -4.703  0.00  0.00    -0.287 OA
ATOM      6  C   UNL     1       6.066  -7.012  -4.367  0.00  0.00    +0.065 A 
ATOM      7  C   UNL     1       6.323  -7.525  -5.638  0.00  0.00    +0.019 A 
ATOM      8  C   UNL     1       7.610  -7.793  -6.014  0.00  0.00    -0.047 A 
ATOM      9  C   UNL     1       8.658  -7.557  -5.135  0.00  0.00    -0.044 A 
ATOM     10  C   UNL     1       8.423  -7.049  -3.877  0.00  0.00    +0.050 A 
ATOM     11  C   UNL     1       7.119  -6.765  -3.471  0.00  0.00    +0.140 A 
ATOM     12  O   UNL     1       6.912  -6.258  -2.235  0.00  0.00    -0.450 OA
ATOM     13  C   UNL     1       5.659  -6.193  -1.742  0.00  0.00    +0.199 A 
ATOM     14  C   UNL     1       5.215  -5.900  -0.368  0.00  0.00    +0.283 C 
ATOM     15  O   UNL     1       5.955  -5.666   0.567  0.00  0.00    -0.267 OA
ATOM     16  C   UNL     1      10.070  -7.861  -5.563  0.00  0.00    +0.044 C 
ATOM     17  C   UNL     1       7.891  -8.348  -7.387  0.00  0.00    +0.044 C 
ENDROOT
BRANCH   2  18
ATOM     18  C   UNL     1       2.489  -5.110  -2.141  0.00  0.00    -0.022 A 
ATOM     19  C   UNL     1       2.867  -3.800  -1.910  0.00  0.00    +0.008 A 
ATOM     20  C   UNL     1       2.078  -2.762  -2.368  0.00  0.00    +0.038 A 
ATOM     21  C   UNL     1       0.908  -3.034  -3.057  0.00  0.00    +0.123 A 
ATOM     22  C   UNL     1       0.531  -4.346  -3.288  0.00  0.00    +0.038 A 
ATOM     23  C   UNL     1       1.324  -5.383  -2.833  0.00  0.00    +0.008 A 
ATOM     24  F   UNL     1       0.136  -2.020  -3.505  0.00  0.00    -0.205 F 
ENDBRANCH   2  18
BRANCH   1  25
ATOM     25  C   UNL     1       3.063  -5.690   0.900  0.00  0.00    +0.107 C 
BRANCH  25  26
ATOM     26  C   UNL     1       2.734  -4.200   1.004  0.00  0.00    +0.000 C 
BRANCH  26  27
ATOM     27  C   UNL     1       1.892  -3.949   2.257  0.00  0.00    -0.077 C 
BRANCH  27  28
ATOM     28  N   UNL     1       1.577  -2.518   2.357  0.00  0.00    +0.380 N 
ATOM     29  H   UNL     1       2.432  -1.983   2.333  0.00  0.00    -0.082 HD
BRANCH  28  30
ATOM     30  C   UNL     1       0.722  -2.125   1.229  0.00  0.00    -0.079 C 
BRANCH  30  31
ATOM     31  C   UNL     1       0.511  -0.610   1.253  0.00  0.00    -0.019 C 
BRANCH  31  33
ATOM     32  C   UNL     1      -0.479   1.332   0.031  0.00  0.00    +0.004 C 
ATOM     33  C   UNL     1      -0.268  -0.184   0.007  0.00  0.00    -0.005 C 
ENDBRANCH  31  33
ENDBRANCH  30  31
ENDBRANCH  28  30
BRANCH  28  34
ATOM     34  C   UNL     1       0.872  -2.259   3.620  0.00  0.00    -0.079 C 
BRANCH  34  35
ATOM     35  C   UNL     1       1.813  -2.531   4.795  0.00  0.00    -0.019 C 
BRANCH  35  36
ATOM     36  C   UNL     1       1.125  -2.135   6.102  0.00  0.00    -0.005 C 
ATOM     37  C   UNL     1       2.066  -2.408   7.277  0.00  0.00    +0.004 C 
ENDBRANCH  35  36
ENDBRANCH  34  35
ENDBRANCH  28  34
ENDBRANCH  27  28
ENDBRANCH  26  27
ENDBRANCH  25  26
ENDBRANCH   1  25
TORSDOF 11
