REMARK  Name = ZINC13421905
REMARK  7 active torsions:
REMARK  status: ('A' for Active; 'I' for Inactive)
REMARK    1  A    between atoms: C_3  and  C_6
REMARK    2  A    between atoms: C_9  and  C_26
REMARK    3  A    between atoms: C_12  and  C_14
REMARK    4  A    between atoms: C_14  and  O_15
REMARK    5  A    between atoms: O_15  and  C_16
REMARK    6  A    between atoms: C_19  and  C_24
REMARK    7  A    between atoms: C_21  and  C_22
REMARK                            x       y       z     vdW  Elec       q    Type
REMARK                         _______ _______ _______ _____ _____    ______ ____
ROOT
ATOM      1  C   UNL     1       5.025   7.982   0.004  0.00  0.00    +0.173 C 
ATOM      2  C   UNL     1       4.610   9.467   0.012  0.00  0.00    +0.090 C 
ATOM      3  C   UNL     1       3.099   9.422   0.025  0.00  0.00    +0.069 C 
ATOM      4  N   UNL     1       2.704   8.196   0.022  0.00  0.00    -0.181 NA
ATOM      5  N   UNL     1       3.741   7.265   0.006  0.00  0.00    -0.179 N 
ATOM      6  C   UNL     1       3.591   5.925   0.001  0.00  0.00    +0.273 C 
ATOM      7  O   UNL     1       4.568   5.206  -0.012  0.00  0.00    -0.270 OA
ENDROOT
BRANCH   3   8
ATOM      8  C   UNL     1       2.213  10.601   0.040  0.00  0.00    -0.002 A 
ATOM      9  C   UNL     1       2.757  11.888   0.048  0.00  0.00    +0.011 A 
ATOM     10  C   UNL     1       1.923  12.986   0.056  0.00  0.00    +0.020 A 
ATOM     11  C   UNL     1       0.548  12.815   0.067  0.00  0.00    +0.041 A 
ATOM     12  C   UNL     1       0.002  11.542   0.065  0.00  0.00    +0.020 A 
ATOM     13  C   UNL     1       0.826  10.436   0.052  0.00  0.00    +0.011 A 
ATOM     14 CL   UNL     1      -0.495  14.203   0.084  0.00  0.00    -0.084 Cl
ENDBRANCH   3   8
BRANCH   1  17
ATOM     15  C   UNL     1       7.452   7.200  -2.656  0.00  0.00    +0.041 A 
ATOM     16  C   UNL     1       7.143   7.482  -1.306  0.00  0.00    +0.046 A 
ATOM     17  C   UNL     1       5.811   7.660  -1.240  0.00  0.00    +0.128 A 
ATOM     18  O   UNL     1       5.300   7.496  -2.471  0.00  0.00    -0.466 OA
ATOM     19  C   UNL     1       6.291   7.223  -3.335  0.00  0.00    +0.195 A 
ENDBRANCH   1  17
BRANCH   6  20
ATOM     20  C   UNL     1       2.211   5.321   0.010  0.00  0.00    +0.326 C 
BRANCH  20  21
ATOM     21  O   UNL     1       2.314   3.896   0.001  0.00  0.00    -0.482 OA
BRANCH  21  22
ATOM     22  C   UNL     1       1.155   3.195   0.008  0.00  0.00    +0.135 A 
ATOM     23  C   UNL     1      -0.062   3.866   0.024  0.00  0.00    +0.047 A 
ATOM     24  C   UNL     1      -1.243   3.159   0.031  0.00  0.00    +0.019 A 
ATOM     25  C   UNL     1      -1.227   1.759   0.017  0.00  0.00    +0.064 A 
ATOM     26  C   UNL     1      -0.013   1.076   0.008  0.00  0.00    +0.034 A 
ATOM     27  C   UNL     1       1.183   1.791   0.000  0.00  0.00    +0.105 A 
BRANCH  27  28
ATOM     28  C   UNL     1       2.473   1.077  -0.015  0.00  0.00    +0.390 C 
ATOM     29  O   UNL     1       3.514   1.704  -0.022  0.00  0.00    -0.240 OA
ATOM     30  O   UNL     1       2.497  -0.270  -0.022  0.00  0.00    -0.240 OA
ENDBRANCH  27  28
BRANCH  25  31
ATOM     31  C   UNL     1      -2.496   1.006   0.019  0.00  0.00    +0.387 C 
ATOM     32  O   UNL     1      -2.482  -0.208   0.012  0.00  0.00    -0.241 OA
ATOM     33  O   UNL     1      -3.671   1.667   0.028  0.00  0.00    -0.241 OA
ENDBRANCH  25  31
ENDBRANCH  21  22
ENDBRANCH  20  21
ENDBRANCH   6  20
TORSDOF 7
