REMARK  Name = ZINC34979614
REMARK  10 active torsions:
REMARK  status: ('A' for Active; 'I' for Inactive)
REMARK    1  A    between atoms: C_1  and  C_2
REMARK    2  A    between atoms: C_2  and  C_3
REMARK    3  A    between atoms: C_3  and  C_5
REMARK    4  A    between atoms: C_3  and  C_6
REMARK    5  A    between atoms: C_6  and  C_8
REMARK    6  A    between atoms: C_6  and  N_30
REMARK    7  A    between atoms: C_14  and  C_17
REMARK    8  A    between atoms: C_18  and  C_20
REMARK    9  A    between atoms: N_30  and  S_31
REMARK   10  A    between atoms: S_31  and  C_34
REMARK                            x       y       z     vdW  Elec       q    Type
REMARK                         _______ _______ _______ _____ _____    ______ ____
ROOT
ATOM      1  C   UNL     1      -0.650  -2.509  -1.383  0.00  0.00    +0.235 C 
ATOM      2  O   UNL     1      -1.161  -3.057  -0.429  0.00  0.00    -0.274 OA
ATOM      3  N   UNL     1      -1.396  -2.196  -2.461  0.00  0.00    -0.297 N 
ATOM      4  C   UNL     1      -0.828  -1.404  -3.560  0.00  0.00    +0.127 C 
ATOM      5  C   UNL     1      -1.720  -0.178  -3.792  0.00  0.00    +0.127 C 
ATOM      6  N   UNL     1      -3.116  -0.625  -3.889  0.00  0.00    -0.292 N 
ATOM      7  C   UNL     1      -3.684  -1.417  -2.790  0.00  0.00    +0.091 C 
ATOM      8  C   UNL     1      -2.791  -2.648  -2.560  0.00  0.00    +0.130 C 
ATOM      9  C   UNL     1      -3.737  -0.568  -1.518  0.00  0.00    +0.029 C 
ATOM     10  C   UNL     1      -3.863  -0.313  -4.967  0.00  0.00    +0.248 C 
ATOM     11  O   UNL     1      -5.025  -0.666  -5.025  0.00  0.00    -0.270 OA
ENDROOT
BRANCH  10  12
ATOM     12  C   UNL     1      -3.271   0.458  -6.076  0.00  0.00    +0.045 A 
ATOM     13  C   UNL     1      -2.683   1.691  -5.838  0.00  0.00    +0.014 A 
ATOM     14  C   UNL     1      -2.123   2.421  -6.879  0.00  0.00    +0.001 A 
ATOM     15  C   UNL     1      -2.135   1.950  -8.158  0.00  0.00    +0.008 A 
ATOM     16  C   UNL     1      -2.720   0.705  -8.445  0.00  0.00    -0.017 A 
ATOM     17  C   UNL     1      -3.290  -0.057  -7.397  0.00  0.00    -0.006 A 
ATOM     18  C   UNL     1      -3.869  -1.301  -7.684  0.00  0.00    +0.009 A 
ATOM     19  C   UNL     1      -3.870  -1.764  -8.965  0.00  0.00    +0.001 A 
ATOM     20  C   UNL     1      -3.304  -1.019  -9.997  0.00  0.00    +0.001 A 
ATOM     21  C   UNL     1      -2.745   0.198  -9.757  0.00  0.00    +0.008 A 
ENDBRANCH  10  12
BRANCH   1  22
ATOM     22  C   UNL     1       0.820  -2.176  -1.362  0.00  0.00    +0.165 C 
BRANCH  22  23
ATOM     23  C   UNL     1       1.037  -0.870  -0.595  0.00  0.00    +0.013 C 
ATOM     24  C   UNL     1       0.392   0.286  -1.363  0.00  0.00    +0.009 C 
BRANCH  23  26
ATOM     25  C   UNL     1       0.722   0.275   1.603  0.00  0.00    +0.004 C 
ATOM     26  C   UNL     1       0.399  -0.981   0.791  0.00  0.00    +0.002 C 
ENDBRANCH  23  26
ENDBRANCH  22  23
BRANCH  22  27
ATOM     27  N   UNL     1       1.556  -3.257  -0.703  0.00  0.00    -0.178 NA
ATOM     28  H   UNL     1       1.155  -3.735   0.040  0.00  0.00    +0.149 HD
BRANCH  27  29
ATOM     29  S   UNL     1       3.074  -3.664  -1.225  0.00  0.00    +0.059 S 
ATOM     30  O   UNL     1       3.527  -4.713  -0.381  0.00  0.00    -0.153 OA
ATOM     31  O   UNL     1       2.994  -3.803  -2.637  0.00  0.00    -0.153 OA
BRANCH  29  32
ATOM     32  C   UNL     1       4.120  -2.280  -0.914  0.00  0.00    +0.105 A 
ATOM     33  C   UNL     1       4.270  -1.298  -1.875  0.00  0.00    +0.028 A 
ATOM     34  C   UNL     1       5.091  -0.212  -1.630  0.00  0.00    +0.002 A 
ATOM     35  C   UNL     1       5.761  -0.110  -0.426  0.00  0.00    +0.000 A 
ATOM     36  C   UNL     1       5.611  -1.092   0.535  0.00  0.00    +0.002 A 
ATOM     37  C   UNL     1       4.787  -2.175   0.292  0.00  0.00    +0.028 A 
ENDBRANCH  29  32
ENDBRANCH  27  29
ENDBRANCH  22  27
ENDBRANCH   1  22
TORSDOF 7
