REMARK  Name = ZINC40287111
REMARK  9 active torsions:
REMARK  status: ('A' for Active; 'I' for Inactive)
REMARK    1  A    between atoms: C_1  and  O_2
REMARK    2  A    between atoms: O_2  and  C_3
REMARK    3  A    between atoms: C_3  and  C_5
REMARK    4  A    between atoms: C_5  and  C_6
REMARK    5  A    between atoms: C_6  and  C_7
REMARK    6  A    between atoms: C_7  and  C_8
REMARK    7  A    between atoms: C_8  and  C_9
REMARK    8  A    between atoms: C_9  and  N_10
REMARK    9  A    between atoms: C_22  and  C_24
REMARK                            x       y       z     vdW  Elec       q    Type
REMARK                         _______ _______ _______ _____ _____    ______ ____
ROOT
ATOM      1  N   UNL     1       2.731  -8.821   4.304  0.00  0.00    -0.299 N 
ATOM      2  C   UNL     1       3.161  -7.841   5.123  0.00  0.00    +0.303 C 
ATOM      3  O   UNL     1       3.039  -6.677   4.796  0.00  0.00    -0.253 OA
ATOM      4  N   UNL     1       3.727  -8.153   6.306  0.00  0.00    -0.273 N 
ATOM      5  C   UNL     1       4.102  -7.101   7.263  0.00  0.00    +0.116 C 
ATOM      6  C   UNL     1       5.625  -7.103   7.444  0.00  0.00    +0.076 C 
ATOM      7  C   UNL     1       6.093  -8.526   7.616  0.00  0.00    +0.066 A 
ATOM      8  C   UNL     1       5.370  -9.614   7.272  0.00  0.00    +0.064 A 
ATOM      9  N   UNL     1       6.120 -10.708   7.572  0.00  0.00    -0.346 N 
ATOM     10  H   UNL     1       5.869 -11.635   7.435  0.00  0.00    +0.167 HD
ATOM     11  C   UNL     1       7.284 -10.258   8.096  0.00  0.00    +0.197 A 
ATOM     12  N   UNL     1       7.257  -8.951   8.118  0.00  0.00    -0.240 NA
ATOM     13  C   UNL     1       3.981  -9.557   6.677  0.00  0.00    +0.159 C 
ATOM     14  H   UNL     1       2.894  -9.750   4.530  0.00  0.00    +0.150 HD
ENDROOT
BRANCH  13  15
ATOM     15  C   UNL     1       2.964 -10.012   7.692  0.00  0.00    +0.014 A 
ATOM     16  C   UNL     1       3.316 -10.114   9.025  0.00  0.00    +0.010 A 
ATOM     17  C   UNL     1       2.384 -10.531   9.956  0.00  0.00    +0.020 A 
ATOM     18  C   UNL     1       1.098 -10.846   9.556  0.00  0.00    +0.044 A 
ATOM     19  C   UNL     1       0.744 -10.744   8.223  0.00  0.00    +0.058 A 
ATOM     20  C   UNL     1       1.676 -10.322   7.290  0.00  0.00    +0.130 A 
ATOM     21  F   UNL     1       1.330 -10.217   5.989  0.00  0.00    -0.205 F 
ATOM     22 CL   UNL     1      -0.072 -11.370  10.727  0.00  0.00    -0.083 Cl
ENDBRANCH  13  15
BRANCH   1  23
ATOM     23  C   UNL     1       2.017  -8.482   3.070  0.00  0.00    +0.106 C 
BRANCH  23  24
ATOM     24  C   UNL     1       1.643  -9.768   2.328  0.00  0.00    +0.019 C 
BRANCH  24  25
ATOM     25  C   UNL     1       0.897  -9.414   1.040  0.00  0.00    +0.002 C 
BRANCH  25  26
ATOM     26  C   UNL     1       0.523 -10.699   0.298  0.00  0.00    +0.011 C 
BRANCH  26  27
ATOM     27  C   UNL     1      -0.222 -10.346  -0.990  0.00  0.00    +0.120 C 
BRANCH  27  28
ATOM     28  C   UNL     1      -0.591 -11.611  -1.720  0.00  0.00    +0.307 C 
ATOM     29  O   UNL     1      -0.289 -12.686  -1.258  0.00  0.00    -0.251 OA
BRANCH  28  31
ATOM     30  C   UNL     1      -1.573 -12.784  -3.522  0.00  0.00    +0.280 C 
ATOM     31  O   UNL     1      -1.256 -11.545  -2.885  0.00  0.00    -0.468 OA
ENDBRANCH  28  31
ENDBRANCH  27  28
ENDBRANCH  26  27
ENDBRANCH  25  26
ENDBRANCH  24  25
ENDBRANCH  23  24
ENDBRANCH   1  23
TORSDOF 8
