REMARK  Name = ZINC09358637
REMARK  6 active torsions:
REMARK  status: ('A' for Active; 'I' for Inactive)
REMARK    1  A    between atoms: C_1  and  C_2
REMARK    2  A    between atoms: C_2  and  C_4
REMARK    3  A    between atoms: C_7  and  N_10
REMARK    4  A    between atoms: C_25  and  C_31
REMARK    5  A    between atoms: C_31  and  C_33
REMARK    6  A    between atoms: C_36  and  N_39
REMARK                            x       y       z     vdW  Elec       q    Type
REMARK                         _______ _______ _______ _____ _____    ______ ____
ROOT
ATOM      1  N   UNL     1      -1.066   2.127   3.618  0.00  0.00    -0.210 N 
ATOM      2  C   UNL     1      -2.073   1.207   3.427  0.00  0.00    +0.232 C 
ATOM      3  O   UNL     1      -2.807   0.721   4.260  0.00  0.00    -0.274 OA
ATOM      4  C   UNL     1      -2.052   0.955   2.003  0.00  0.00    +0.113 C 
ATOM      5  C   UNL     1      -2.800   0.272   0.943  0.00  0.00    +0.100 C 
ATOM      6  C   UNL     1      -4.304   0.373   1.073  0.00  0.00    -0.021 A 
ATOM      7  C   UNL     1      -4.907   0.291   2.308  0.00  0.00    +0.006 A 
ATOM      8  C   UNL     1      -6.284   0.379   2.416  0.00  0.00    +0.000 A 
ATOM      9  C   UNL     1      -7.062   0.548   1.285  0.00  0.00    +0.001 A 
ATOM     10  C   UNL     1      -6.471   0.628   0.041  0.00  0.00    +0.008 A 
ATOM     11  C   UNL     1      -5.082   0.541  -0.076  0.00  0.00    -0.019 A 
ATOM     12  C   UNL     1      -4.453   0.632  -1.410  0.00  0.00    +0.022 C 
ATOM     13  C   UNL     1      -3.138   0.891  -1.490  0.00  0.00    +0.054 C 
ATOM     14  C   UNL     1      -1.330   1.944   0.019  0.00  0.00    +0.141 C 
ATOM     15  C   UNL     1      -1.704   2.381   1.434  0.00  0.00    +0.116 C 
ATOM     16  C   UNL     1      -0.663   2.717   2.451  0.00  0.00    +0.232 C 
ATOM     17  O   UNL     1       0.338   3.380   2.278  0.00  0.00    -0.274 OA
ATOM     18  N   UNL     1      -2.206   0.757  -0.283  0.00  0.00    -0.384 NA
ATOM     19  H   UNL     1      -1.554   0.013  -0.560  0.00  0.00    +0.127 HD
ENDROOT
BRANCH   1  23
ATOM     20  C   UNL     1       0.575   3.016   7.346  0.00  0.00    +0.017 A 
ATOM     21  C   UNL     1       1.045   3.667   6.198  0.00  0.00    +0.013 A 
ATOM     22  C   UNL     1       0.500   3.370   4.970  0.00  0.00    +0.024 A 
ATOM     23  C   UNL     1      -0.516   2.425   4.867  0.00  0.00    +0.044 A 
ATOM     24  C   UNL     1      -0.990   1.780   6.005  0.00  0.00    +0.024 A 
ATOM     25  C   UNL     1      -0.449   2.067   7.237  0.00  0.00    +0.013 A 
BRANCH  20  27
ATOM     26  C   UNL     1       0.644   2.629   9.893  0.00  0.00    +0.091 C 
ATOM     27  C   UNL     1       1.152   3.330   8.659  0.00  0.00    +0.160 C 
ATOM     28  O   UNL     1       2.038   4.154   8.751  0.00  0.00    -0.292 OA
ENDBRANCH  20  27
ENDBRANCH   1  23
BRANCH  14  29
ATOM     29  C   UNL     1      -0.014   1.208   0.009  0.00  0.00    +0.183 C 
ATOM     30  O   UNL     1       0.002  -0.004   0.002  0.00  0.00    -0.290 OA
BRANCH  29  31
ATOM     31  C   UNL     1       1.250   1.961   0.001  0.00  0.00    +0.019 A 
ATOM     32  C   UNL     1       1.235   3.360   0.003  0.00  0.00    +0.013 A 
ATOM     33  C   UNL     1       2.424   4.058   0.000  0.00  0.00    +0.033 A 
ATOM     34  C   UNL     1       3.630   3.379  -0.015  0.00  0.00    +0.126 A 
ATOM     35  C   UNL     1       3.653   1.995  -0.022  0.00  0.00    +0.033 A 
ATOM     36  C   UNL     1       2.473   1.282  -0.015  0.00  0.00    +0.013 A 
BRANCH  34  37
ATOM     37  N   UNL     1       4.901   4.136  -0.023  0.00  0.00    +0.056 N 
ATOM     38  O   UNL     1       5.964   3.542  -0.036  0.00  0.00    -0.126 OA
ATOM     39  O   UNL     1       4.885   5.354  -0.017  0.00  0.00    -0.126 OA
ENDBRANCH  34  37
ENDBRANCH  29  31
ENDBRANCH  14  29
TORSDOF 5
