REMARK  Name = ZINC23908523
REMARK  9 active torsions:
REMARK  status: ('A' for Active; 'I' for Inactive)
REMARK    1  A    between atoms: C_1  and  C_2
REMARK    2  A    between atoms: C_2  and  C_3
REMARK    3  A    between atoms: C_4  and  C_12
REMARK    4  A    between atoms: C_12  and  N_13
REMARK    5  A    between atoms: N_13  and  C_14
REMARK    6  A    between atoms: N_13  and  C_15
REMARK    7  A    between atoms: C_15  and  N_16
REMARK    8  A    between atoms: C_19  and  C_23
REMARK    9  A    between atoms: C_19  and  C_24
REMARK                            x       y       z     vdW  Elec       q    Type
REMARK                         _______ _______ _______ _____ _____    ______ ____
ROOT
ATOM      1  N   UNL     1       1.274   1.894   0.000  0.00  0.00    -0.210 N 
ATOM      2  C   UNL     1      -0.018   1.512   0.010  0.00  0.00    +0.252 C 
ATOM      3  O   UNL     1      -0.995   2.231   0.019  0.00  0.00    -0.272 OA
ATOM      4  C   UNL     1       0.002  -0.004   0.002  0.00  0.00    +0.135 C 
ATOM      5  N   UNL     1       1.438  -0.331  -0.013  0.00  0.00    -0.281 N 
ATOM      6  C   UNL     1       2.099   0.841  -0.013  0.00  0.00    +0.311 C 
ATOM      7  O   UNL     1       3.311   0.933  -0.025  0.00  0.00    -0.252 OA
ATOM      8  C   UNL     1      -0.662  -0.558   1.264  0.00  0.00    +0.047 C 
ATOM      9  H   UNL     1       1.763  -1.382  -0.022  0.00  0.00    +0.152 HD
ENDROOT
BRANCH   4  10
ATOM     10  C   UNL     1      -0.679  -0.537  -1.232  0.00  0.00    -0.012 A 
ATOM     11  C   UNL     1      -1.706   0.181  -1.818  0.00  0.00    +0.010 A 
ATOM     12  C   UNL     1      -2.333  -0.303  -2.950  0.00  0.00    +0.050 A 
ATOM     13  C   UNL     1      -1.935  -1.510  -3.501  0.00  0.00    +0.166 A 
ATOM     14  C   UNL     1      -0.901  -2.233  -2.911  0.00  0.00    +0.167 A 
ATOM     15  C   UNL     1      -0.274  -1.740  -1.779  0.00  0.00    +0.055 A 
ATOM     16  O   UNL     1      -0.699  -3.374  -3.634  0.00  0.00    -0.453 OA
ATOM     17  C   UNL     1      -1.887  -3.540  -4.430  0.00  0.00    +0.466 C 
ATOM     18  O   UNL     1      -2.381  -2.197  -4.593  0.00  0.00    -0.453 OA
ENDBRANCH   4  10
BRANCH   1  19
ATOM     19  C   UNL     1       1.720   3.289   0.002  0.00  0.00    +0.205 C 
BRANCH  19  20
ATOM     20  N   UNL     1       1.881   3.749   1.388  0.00  0.00    -0.285 NA
ATOM     21  C   UNL     1       3.169   3.310   1.942  0.00  0.00    +0.106 C 
BRANCH  20  22
ATOM     22  C   UNL     1       1.740   5.209   1.478  0.00  0.00    +0.124 C 
BRANCH  22  24
ATOM     23  C   UNL     1       2.693   5.938   3.726  0.00  0.00    +0.110 A 
ATOM     24  C   UNL     1       1.666   5.618   2.927  0.00  0.00    +0.015 A 
ATOM     25  C   UNL     1       0.454   5.752   3.744  0.00  0.00    +0.025 A 
ATOM     26  C   UNL     1      -0.907   5.570   3.506  0.00  0.00    +0.012 A 
ATOM     27  C   UNL     1      -1.806   5.785   4.513  0.00  0.00    +0.001 A 
ATOM     28  C   UNL     1      -1.372   6.182   5.770  0.00  0.00    +0.004 A 
ATOM     29  C   UNL     1      -0.029   6.359   6.026  0.00  0.00    +0.047 A 
ATOM     30  C   UNL     1       0.901   6.151   5.015  0.00  0.00    +0.135 A 
ATOM     31  O   UNL     1       2.244   6.251   4.954  0.00  0.00    -0.459 OA
BRANCH  23  33
ATOM     32  C   UNL     1       4.510   7.329   2.770  0.00  0.00    +0.012 C 
ATOM     33  C   UNL     1       4.141   5.945   3.309  0.00  0.00    +0.071 C 
ENDBRANCH  23  33
ENDBRANCH  22  24
ENDBRANCH  20  22
ENDBRANCH  19  20
ENDBRANCH   1  19
TORSDOF 6
