REMARK  Name = ZINC33812351
REMARK  11 active torsions:
REMARK  status: ('A' for Active; 'I' for Inactive)
REMARK    1  A    between atoms: C_1  and  C_2
REMARK    2  A    between atoms: C_2  and  O_3
REMARK    3  A    between atoms: O_3  and  C_4
REMARK    4  A    between atoms: C_4  and  C_6
REMARK    5  A    between atoms: N_11  and  C_13
REMARK    6  A    between atoms: C_14  and  C_24
REMARK    7  A    between atoms: C_15  and  C_23
REMARK    8  A    between atoms: C_16  and  C_21
REMARK    9  A    between atoms: N_19  and  C_20
REMARK   10  A    between atoms: N_28  and  C_32
REMARK   11  A    between atoms: C_32  and  C_33
REMARK                            x       y       z     vdW  Elec       q    Type
REMARK                         _______ _______ _______ _____ _____    ______ ____
ROOT
ATOM      1  C   UNL     1       0.030   1.351   0.052  0.00  0.00    +0.111 A 
ATOM      2  C   UNL     1       1.175   2.157   0.154  0.00  0.00    +0.019 A 
ATOM      3  C   UNL     1       2.445   1.555   0.175  0.00  0.00    -0.017 A 
ATOM      4  C   UNL     1       2.532   0.168   0.094  0.00  0.00    +0.120 A 
ATOM      5  C   UNL     1       1.345  -0.601  -0.007  0.00  0.00    +0.270 A 
ATOM      6  O   UNL     1       1.415  -1.815  -0.078  0.00  0.00    -0.266 OA
ATOM      7  N   UNL     1       0.142   0.000  -0.025  0.00  0.00    -0.298 N 
ATOM      8  C   UNL     1      -1.070  -0.818  -0.129  0.00  0.00    +0.154 C 
ATOM      9  C   UNL     1       3.690   2.396   0.283  0.00  0.00    +0.046 C 
ENDROOT
BRANCH   2  10
ATOM     10  C   UNL     1       1.048   3.613   0.237  0.00  0.00    +0.032 C 
ATOM     11  C   UNL     1       1.402   4.263   1.379  0.00  0.00    +0.077 C 
ATOM     12  C   UNL     1       1.300   5.650   1.704  0.00  0.00    +0.259 C 
ATOM     13  O   UNL     1       0.843   6.449   0.907  0.00  0.00    -0.269 OA
ATOM     14  N   UNL     1       1.713   6.040   2.898  0.00  0.00    -0.244 N 
ATOM     15  C   UNL     1       2.227   5.154   3.779  0.00  0.00    +0.121 C 
ATOM     16  S   UNL     1       2.824   5.436   5.359  0.00  0.00    -0.027 S 
ATOM     17  S   UNL     1       2.127   3.614   2.879  0.00  0.00    -0.061 S 
BRANCH  14  18
ATOM     18  C   UNL     1       1.619   7.454   3.268  0.00  0.00    +0.240 C 
BRANCH  18  19
ATOM     19  C   UNL     1       2.885   8.164   2.865  0.00  0.00    +0.373 C 
ATOM     20  O   UNL     1       3.776   7.552   2.324  0.00  0.00    -0.245 OA
ATOM     21  O   UNL     1       3.025   9.477   3.107  0.00  0.00    -0.245 OA
ENDBRANCH  18  19
ENDBRANCH  14  18
ENDBRANCH   2  10
BRANCH   1  26
ATOM     22  C   UNL     1      -2.817   3.261  -1.251  0.00  0.00    +0.115 C 
ATOM     23  C   UNL     1      -3.117   4.095  -0.002  0.00  0.00    +0.018 C 
ATOM     24  C   UNL     1      -2.883   3.236   1.243  0.00  0.00    +0.020 C 
ATOM     25  C   UNL     1      -1.441   2.722   1.240  0.00  0.00    +0.106 C 
ATOM     26  N   UNL     1      -1.205   1.930   0.026  0.00  0.00    -0.315 N 
ATOM     27  C   UNL     1      -1.377   2.747  -1.182  0.00  0.00    +0.121 C 
BRANCH  22  28
ATOM     28  C   UNL     1      -2.988   4.117  -2.480  0.00  0.00    +0.312 C 
ATOM     29  O   UNL     1      -2.055   4.294  -3.227  0.00  0.00    -0.250 OA
BRANCH  28  30
ATOM     30  O   UNL     1      -4.176   4.681  -2.745  0.00  0.00    -0.465 OA
BRANCH  30  32
ATOM     31  C   UNL     1      -5.687   6.048  -4.079  0.00  0.00    +0.048 C 
ATOM     32  C   UNL     1      -4.268   5.492  -3.946  0.00  0.00    +0.229 C 
ENDBRANCH  30  32
ENDBRANCH  28  30
ENDBRANCH  22  28
ENDBRANCH   1  26
BRANCH   4  33
ATOM     33  C   UNL     1       3.811  -0.477   0.113  0.00  0.00    +0.105 C 
ATOM     34  N   UNL     1       4.825  -0.989   0.127  0.00  0.00    -0.191 NA
ENDBRANCH   4  33
TORSDOF 8
