REMARK  Name = ZINC11672836
REMARK  6 active torsions:
REMARK  status: ('A' for Active; 'I' for Inactive)
REMARK    1  A    between atoms: C_3  and  C_6
REMARK    2  A    between atoms: C_9  and  C_24
REMARK    3  A    between atoms: C_12  and  C_14
REMARK    4  A    between atoms: C_14  and  S_15
REMARK    5  A    between atoms: S_15  and  C_16
REMARK    6  A    between atoms: C_20  and  N_22
REMARK                            x       y       z     vdW  Elec       q    Type
REMARK                         _______ _______ _______ _____ _____    ______ ____
ROOT
ATOM      1  C   UNL     1       1.401  -0.462  -0.014  0.00  0.00    +0.173 C 
ATOM      2  C   UNL     1       2.211   0.850  -0.015  0.00  0.00    +0.090 C 
ATOM      3  C   UNL     1       1.155   1.931   0.001  0.00  0.00    +0.075 C 
ATOM      4  N   UNL     1      -0.017   1.389   0.010  0.00  0.00    -0.180 NA
ATOM      5  N   UNL     1       0.002  -0.004   0.002  0.00  0.00    -0.181 N 
ATOM      6  C   UNL     1      -1.084  -0.803   0.009  0.00  0.00    +0.246 C 
ATOM      7  O   UNL     1      -0.950  -2.009   0.001  0.00  0.00    -0.273 OA
ENDROOT
BRANCH   1  10
ATOM      8  C   UNL     1       2.442  -2.781  -2.682  0.00  0.00    +0.041 A 
ATOM      9  C   UNL     1       2.454  -2.360  -1.332  0.00  0.00    +0.046 A 
ATOM     10  C   UNL     1       1.683  -1.260  -1.260  0.00  0.00    +0.128 A 
ATOM     11  O   UNL     1       1.203  -0.998  -2.487  0.00  0.00    -0.466 OA
ATOM     12  C   UNL     1       1.665  -1.913  -3.354  0.00  0.00    +0.195 A 
ENDBRANCH   1  10
BRANCH   3  13
ATOM     13  C   UNL     1       1.420   3.374   0.006  0.00  0.00    +0.035 A 
ATOM     14  C   UNL     1       0.522   4.426   0.015  0.00  0.00    +0.017 A 
ATOM     15  C   UNL     1       1.018   5.709   0.022  0.00  0.00    +0.008 A 
ATOM     16  C   UNL     1       2.363   5.902   0.010  0.00  0.00    +0.046 A 
ATOM     17  S   UNL     1       2.987   4.230  -0.005  0.00  0.00    -0.095 S 
ENDBRANCH   3  13
BRANCH   6  18
ATOM     18  C   UNL     1      -2.464  -0.198   0.025  0.00  0.00    +0.175 C 
BRANCH  18  19
ATOM     19  S   UNL     1      -3.701  -1.518   0.030  0.00  0.00    -0.077 S 
BRANCH  19  20
ATOM     20  C   UNL     1      -5.177  -0.555   0.049  0.00  0.00    +0.192 A 
ATOM     21  N   UNL     1      -5.084   0.766   0.060  0.00  0.00    -0.207 NA
ATOM     22  C   UNL     1      -6.177   1.526   0.069  0.00  0.00    +0.122 A 
ATOM     23  C   UNL     1      -7.427   0.914   0.078  0.00  0.00    +0.086 A 
ATOM     24  C   UNL     1      -7.485  -0.477   0.072  0.00  0.00    +0.122 A 
ATOM     25  N   UNL     1      -6.350  -1.172   0.058  0.00  0.00    -0.207 NA
ATOM     26  N   UNL     1      -6.072   2.908   0.075  0.00  0.00    -0.343 N 
ATOM     27  H   UNL     1      -6.873   3.455   0.085  0.00  0.00    +0.144 HD
ATOM     28  H   UNL     1      -5.198   3.328   0.069  0.00  0.00    +0.144 HD
BRANCH  24  29
ATOM     29  N   UNL     1      -8.708  -1.129   0.080  0.00  0.00    -0.343 N 
ATOM     30  H   UNL     1      -8.740  -2.099   0.075  0.00  0.00    +0.144 HD
ATOM     31  H   UNL     1      -9.531  -0.616   0.091  0.00  0.00    +0.144 HD
ENDBRANCH  24  29
ENDBRANCH  19  20
ENDBRANCH  18  19
ENDBRANCH   6  18
TORSDOF 6
