REMARK  Name = ZINC66741198
REMARK  5 active torsions:
REMARK  status: ('A' for Active; 'I' for Inactive)
REMARK    1  A    between atoms: C_1  and  C_2
REMARK    2  A    between atoms: C_11  and  C_14
REMARK    3  A    between atoms: N_16  and  C_25
REMARK    4  A    between atoms: C_18  and  C_19
REMARK    5  A    between atoms: C_25  and  C_26
REMARK                            x       y       z     vdW  Elec       q    Type
REMARK                         _______ _______ _______ _____ _____    ______ ____
ROOT
ATOM      1  C   UNL     1      -2.085  -1.675  -3.042  0.00  0.00    +0.036 A 
ATOM      2  C   UNL     1      -2.810  -0.571  -2.760  0.00  0.00    +0.116 A 
ATOM      3  N   UNL     1      -4.075  -0.784  -3.183  0.00  0.00    -0.266 N 
ATOM      4  N   UNL     1      -4.136  -2.064  -3.748  0.00  0.00    -0.171 NA
ATOM      5  C   UNL     1      -2.938  -2.603  -3.671  0.00  0.00    +0.099 A 
ENDROOT
BRANCH   1  16
ATOM      6  C   UNL     1       0.252   2.620  -2.274  0.00  0.00    +0.067 C 
ATOM      7  C   UNL     1      -0.001   1.505  -1.292  0.00  0.00    +0.055 A 
ATOM      8  C   UNL     1      -0.067   0.199  -1.570  0.00  0.00    +0.082 A 
ATOM      9  C   UNL     1      -0.317  -0.454  -0.319  0.00  0.00    +0.168 A 
ATOM     10  N   UNL     1      -0.388   0.473   0.590  0.00  0.00    -0.167 NA
ATOM     11  N   UNL     1      -0.200   1.633   0.053  0.00  0.00    -0.279 N 
ATOM     12  H   UNL     1      -0.202   2.474   0.535  0.00  0.00    +0.189 HD
ATOM     13  C   UNL     1      -0.429  -1.925  -0.277  0.00  0.00    +0.268 C 
ATOM     14  O   UNL     1      -0.467  -2.531   0.777  0.00  0.00    -0.268 OA
ATOM     15  N   UNL     1      -0.490  -2.567  -1.467  0.00  0.00    -0.288 N 
ATOM     16  C   UNL     1      -0.621  -1.875  -2.744  0.00  0.00    +0.193 C 
ATOM     17  N   UNL     1       0.046  -0.564  -2.740  0.00  0.00    -0.319 N 
ATOM     18  H   UNL     1      -0.442  -3.536  -1.471  0.00  0.00    +0.151 HD
ATOM     19  H   UNL     1       0.541  -0.243  -3.510  0.00  0.00    +0.148 HD
ENDBRANCH   1  16
BRANCH   5  20
ATOM     20  C   UNL     1      -2.554  -3.952  -4.157  0.00  0.00    +0.002 A 
ATOM     21  C   UNL     1      -1.356  -4.132  -4.845  0.00  0.00    +0.010 A 
ATOM     22  C   UNL     1      -1.004  -5.388  -5.295  0.00  0.00    +0.001 A 
ATOM     23  C   UNL     1      -1.837  -6.467  -5.064  0.00  0.00    +0.000 A 
ATOM     24  C   UNL     1      -3.028  -6.294  -4.382  0.00  0.00    +0.001 A 
ATOM     25  C   UNL     1      -3.387  -5.043  -3.922  0.00  0.00    +0.010 A 
ENDBRANCH   5  20
BRANCH   3  26
ATOM     26  C   UNL     1      -5.189   0.160  -3.071  0.00  0.00    +0.178 C 
BRANCH  26  27
ATOM     27  C   UNL     1      -5.792   0.391  -4.433  0.00  0.00    -0.026 A 
ATOM     28  C   UNL     1      -5.310   1.405  -5.239  0.00  0.00    +0.005 A 
ATOM     29  C   UNL     1      -5.863   1.617  -6.488  0.00  0.00    +0.000 A 
ATOM     30  C   UNL     1      -6.897   0.814  -6.931  0.00  0.00    +0.000 A 
ATOM     31  C   UNL     1      -7.378  -0.201  -6.125  0.00  0.00    +0.000 A 
ATOM     32  C   UNL     1      -6.823  -0.415  -4.878  0.00  0.00    +0.005 A 
ENDBRANCH  26  27
ENDBRANCH   3  26
TORSDOF 4
