REMARK  Name = ZINC65218999
REMARK  6 active torsions:
REMARK  status: ('A' for Active; 'I' for Inactive)
REMARK    1  A    between atoms: C_1  and  C_2
REMARK    2  A    between atoms: C_5  and  C_8
REMARK    3  A    between atoms: C_10  and  C_13
REMARK    4  A    between atoms: C_14  and  N_18
REMARK    5  A    between atoms: C_19  and  C_21
REMARK    6  A    between atoms: C_24  and  C_28
REMARK                            x       y       z     vdW  Elec       q    Type
REMARK                         _______ _______ _______ _____ _____    ______ ____
ROOT
ATOM      1  C   UNL     1       0.164  -7.461   1.605  0.00  0.00    +0.098 A 
ATOM      2  C   UNL     1       0.129  -8.818   1.295  0.00  0.00    +0.053 A 
ATOM      3  C   UNL     1       0.086  -9.674   2.380  0.00  0.00    +0.031 A 
ATOM      4  C   UNL     1       0.080  -9.153   3.628  0.00  0.00    +0.048 A 
ATOM      5  S   UNL     1       0.141  -7.492   3.387  0.00  0.00    -0.090 S 
ENDROOT
BRANCH   1   8
ATOM      6  C   UNL     1       0.290  -4.258  -0.021  0.00  0.00    +0.202 A 
ATOM      7  N   UNL     1       0.251  -5.043   1.066  0.00  0.00    -0.187 NA
ATOM      8  C   UNL     1       0.213  -6.310   0.703  0.00  0.00    +0.267 A 
ATOM      9  O   UNL     1       0.229  -6.360  -0.643  0.00  0.00    -0.332 OA
ATOM     10  N   UNL     1       0.274  -5.014  -1.092  0.00  0.00    -0.056 NA
BRANCH   6  15
ATOM     11  C   UNL     1       0.476   1.499   0.012  0.00  0.00    +0.044 C 
ATOM     12  C   UNL     1       0.427  -0.008   0.003  0.00  0.00    -0.050 A 
ATOM     13  C   UNL     1       0.415  -0.690  -1.200  0.00  0.00    +0.004 A 
ATOM     14  C   UNL     1       0.371  -2.069  -1.213  0.00  0.00    +0.012 A 
ATOM     15  C   UNL     1       0.339  -2.775  -0.012  0.00  0.00    +0.022 A 
ATOM     16  C   UNL     1       0.351  -2.082   1.197  0.00  0.00    +0.012 A 
ATOM     17  C   UNL     1       0.401  -0.703   1.199  0.00  0.00    +0.004 A 
ENDBRANCH   6  15
ENDBRANCH   1   8
BRANCH   2  18
ATOM     18  N   UNL     1       0.137  -9.283  -0.022  0.00  0.00    -0.280 N 
ATOM     19  C   UNL     1       0.260 -10.602  -0.271  0.00  0.00    +0.251 C 
ATOM     20  O   UNL     1       0.270 -11.396   0.650  0.00  0.00    -0.270 OA
ATOM     21  H   UNL     1       0.053  -8.656  -0.758  0.00  0.00    +0.155 HD
BRANCH  19  22
ATOM     22  C   UNL     1       0.384 -11.083  -1.662  0.00  0.00    +0.072 A 
ATOM     23  C   UNL     1       0.379 -10.171  -2.720  0.00  0.00    +0.017 A 
ATOM     24  C   UNL     1       0.493 -10.618  -4.016  0.00  0.00    +0.020 A 
ATOM     25  C   UNL     1       0.616 -11.986  -4.276  0.00  0.00    +0.055 A 
ATOM     26  C   UNL     1       0.622 -12.900  -3.221  0.00  0.00    +0.058 A 
ATOM     27  C   UNL     1       0.512 -12.452  -1.920  0.00  0.00    +0.137 A 
ATOM     28  F   UNL     1       0.523 -13.335  -0.897  0.00  0.00    -0.205 F 
BRANCH  25  29
ATOM     29  C   UNL     1       0.735 -12.450  -5.626  0.00  0.00    +0.099 C 
ATOM     30  N   UNL     1       0.829 -12.818  -6.696  0.00  0.00    -0.191 NA
ENDBRANCH  25  29
ENDBRANCH  19  22
ENDBRANCH   2  18
TORSDOF 5
