REMARK  Name = ZINC20617584
REMARK  8 active torsions:
REMARK  status: ('A' for Active; 'I' for Inactive)
REMARK    1  A    between atoms: C_1  and  C_2
REMARK    2  A    between atoms: C_6  and  C_17
REMARK    3  A    between atoms: N_8  and  C_9
REMARK    4  A    between atoms: N_19  and  C_20
REMARK    5  A    between atoms: C_30  and  C_33
REMARK    6  A    between atoms: C_33  and  O_34
REMARK    7  A    between atoms: O_34  and  C_35
REMARK    8  A    between atoms: C_35  and  C_37
REMARK                            x       y       z     vdW  Elec       q    Type
REMARK                         _______ _______ _______ _____ _____    ______ ____
ROOT
ATOM      1  C   UNL     1       8.671  -1.906   0.972  0.00  0.00    +0.069 C 
ATOM      2  C   UNL     1       7.450  -2.747   0.703  0.00  0.00    +0.081 A 
ATOM      3  C   UNL     1       6.201  -2.147   0.623  0.00  0.00    +0.159 A 
ATOM      4  C   UNL     1       5.076  -2.953   0.368  0.00  0.00    +0.028 A 
ATOM      5  C   UNL     1       3.750  -2.338   0.281  0.00  0.00    +0.030 A 
ATOM      6  C   UNL     1       3.696  -0.966   0.177  0.00  0.00    +0.098 A 
ATOM      7  C   UNL     1       4.981  -0.237   0.172  0.00  0.00    +0.212 A 
ATOM      8  N   UNL     1       5.090   0.936  -0.412  0.00  0.00    -0.325 N 
ATOM      9  O   UNL     1       6.047  -0.811   0.786  0.00  0.00    -0.437 OA
ATOM     10  C   UNL     1       5.262  -4.332   0.208  0.00  0.00    +0.018 A 
ATOM     11  C   UNL     1       6.542  -4.838   0.305  0.00  0.00    +0.118 A 
ATOM     12  N   UNL     1       7.574  -4.049   0.543  0.00  0.00    -0.256 NA
ATOM     13  H   UNL     1       4.199   1.425  -0.833  0.00  0.00    +0.169 HD
ENDROOT
BRANCH   8  14
ATOM     14  C   UNL     1       6.310   1.548  -0.497  0.00  0.00    +0.042 A 
ATOM     15  C   UNL     1       6.690   2.490   0.462  0.00  0.00    +0.027 A 
ATOM     16  C   UNL     1       7.925   3.099   0.374  0.00  0.00    +0.022 A 
ATOM     17  C   UNL     1       8.782   2.787  -0.667  0.00  0.00    +0.041 A 
ATOM     18  C   UNL     1       8.409   1.858  -1.624  0.00  0.00    +0.022 A 
ATOM     19  C   UNL     1       7.180   1.237  -1.545  0.00  0.00    +0.027 A 
ATOM     20 CL   UNL     1      10.331   3.563  -0.774  0.00  0.00    -0.084 Cl
ENDBRANCH   8  14
BRANCH   6  21
ATOM     21  C   UNL     1       2.410  -0.253   0.081  0.00  0.00    +0.253 C 
ATOM     22  O   UNL     1       1.367  -0.878   0.088  0.00  0.00    -0.270 OA
ATOM     23  N   UNL     1       2.389   1.091  -0.014  0.00  0.00    -0.281 N 
ATOM     24  H   UNL     1       3.333   1.651  -0.094  0.00  0.00    +0.155 HD
BRANCH  23  25
ATOM     25  C   UNL     1       1.172   1.772  -0.011  0.00  0.00    +0.041 A 
ATOM     26  C   UNL     1       0.060   1.213  -0.605  0.00  0.00    +0.024 A 
ATOM     27  C   UNL     1      -1.157   1.887  -0.612  0.00  0.00    +0.002 A 
ATOM     28  C   UNL     1      -1.289   3.107  -0.023  0.00  0.00    +0.008 A 
ATOM     29  C   UNL     1      -0.180   3.712   0.593  0.00  0.00    -0.016 A 
ATOM     30  C   UNL     1       1.066   3.039   0.601  0.00  0.00    +0.003 A 
ATOM     31  C   UNL     1       2.172   3.645   1.218  0.00  0.00    +0.010 A 
ATOM     32  C   UNL     1       2.034   4.868   1.799  0.00  0.00    +0.001 A 
ATOM     33  C   UNL     1       0.809   5.532   1.791  0.00  0.00    +0.001 A 
ATOM     34  C   UNL     1      -0.285   4.975   1.202  0.00  0.00    +0.008 A 
ENDBRANCH  23  25
ENDBRANCH   6  21
BRANCH  10  35
ATOM     35  C   UNL     1       4.092  -5.241  -0.065  0.00  0.00    +0.269 C 
BRANCH  35  36
ATOM     36  O   UNL     1       4.561  -6.610  -0.187  0.00  0.00    -0.460 OA
BRANCH  36  37
ATOM     37  C   UNL     1       3.636  -7.551  -0.432  0.00  0.00    +0.304 C 
ATOM     38  O   UNL     1       2.473  -7.242  -0.541  0.00  0.00    -0.251 OA
ATOM     39  C   UNL     1       4.048  -8.994  -0.572  0.00  0.00    +0.136 C 
ENDBRANCH  36  37
ENDBRANCH  35  36
ENDBRANCH  10  35
TORSDOF 6
