REMARK  Name = ZINC09824401
REMARK  8 active torsions:
REMARK  status: ('A' for Active; 'I' for Inactive)
REMARK    1  A    between atoms: C_1  and  C_2
REMARK    2  A    between atoms: C_5  and  C_33
REMARK    3  A    between atoms: C_5  and  C_34
REMARK    4  A    between atoms: N_11  and  C_15
REMARK    5  A    between atoms: C_15  and  C_16
REMARK    6  A    between atoms: N_18  and  C_19
REMARK    7  A    between atoms: C_23  and  S_25
REMARK    8  A    between atoms: S_25  and  N_28
REMARK                            x       y       z     vdW  Elec       q    Type
REMARK                         _______ _______ _______ _____ _____    ______ ____
ROOT
ATOM      1  C   UNL     1       4.019   1.356  -1.569  0.00  0.00    +0.235 C 
ATOM      2  O   UNL     1       3.211   1.542  -2.454  0.00  0.00    -0.274 OA
ATOM      3  N   UNL     1       5.337   1.339  -1.853  0.00  0.00    -0.284 N 
ATOM      4  H   UNL     1       5.986   1.268  -1.136  0.00  0.00    +0.155 HD
ENDROOT
BRANCH   3   5
ATOM      5  C   UNL     1       5.768   1.425  -3.181  0.00  0.00    +0.035 A 
ATOM      6  C   UNL     1       6.957   2.074  -3.486  0.00  0.00    +0.023 A 
ATOM      7  C   UNL     1       7.380   2.157  -4.798  0.00  0.00    +0.004 A 
ATOM      8  C   UNL     1       6.619   1.595  -5.808  0.00  0.00    +0.029 A 
ATOM      9  C   UNL     1       5.435   0.949  -5.508  0.00  0.00    +0.110 A 
ATOM     10  C   UNL     1       5.010   0.858  -4.197  0.00  0.00    +0.052 A 
BRANCH   9  11
ATOM     11  S   UNL     1       4.469   0.236  -6.798  0.00  0.00    +0.073 S 
ATOM     12  O   UNL     1       3.135   0.165  -6.315  0.00  0.00    -0.150 OA
ATOM     13  O   UNL     1       4.812   0.927  -7.991  0.00  0.00    -0.150 OA
BRANCH  11  14
ATOM     14  N   UNL     1       4.987  -1.325  -6.990  0.00  0.00    -0.205 N 
ATOM     15  C   UNL     1       4.813  -2.234  -5.980  0.00  0.00    +0.088 C 
ATOM     16  C   UNL     1       4.209  -3.140  -3.965  0.00  0.00    +0.114 C 
ATOM     17  C   UNL     1       5.215  -4.146  -4.570  0.00  0.00    +0.028 C 
ATOM     18  C   UNL     1       5.240  -3.684  -6.049  0.00  0.00    +0.072 C 
ATOM     19  H   UNL     1       5.413  -1.596  -7.818  0.00  0.00    +0.175 HD
ATOM     20  N   UNL     1       4.253  -1.952  -4.844  0.00  0.00    -0.375 N 
ATOM     21  H   UNL     1       3.888  -1.027  -4.590  0.00  0.00    +0.161 HD
ENDBRANCH  11  14
ENDBRANCH   9  11
ENDBRANCH   3   5
BRANCH   1  22
ATOM     22  C   UNL     1       3.551   1.144  -0.152  0.00  0.00    +0.214 C 
BRANCH  22  32
ATOM     23  C   UNL     1      -2.279  -1.464  -2.388  0.00  0.00    +0.007 C 
ATOM     24  C   UNL     1      -1.377  -1.162  -1.186  0.00  0.00    -0.011 C 
ATOM     25  C   UNL     1      -2.117  -1.512   0.103  0.00  0.00    +0.009 C 
ATOM     26  C   UNL     1      -1.243  -1.248   1.323  0.00  0.00    -0.032 C 
ATOM     27  C   UNL     1      -0.660   0.155   1.330  0.00  0.00    +0.041 C 
ATOM     28  C   UNL     1      -0.121   0.644   0.001  0.00  0.00    +0.113 C 
ATOM     29  C   UNL     1      -1.042   0.330  -1.169  0.00  0.00    +0.038 C 
ATOM     30  C   UNL     1       1.277   0.140  -0.266  0.00  0.00    +0.247 C 
ATOM     31  O   UNL     1       1.622  -0.979  -0.582  0.00  0.00    -0.273 OA
ATOM     32  N   UNL     1       2.088   1.208  -0.107  0.00  0.00    -0.215 N 
ATOM     33  C   UNL     1       1.387   2.332   0.073  0.00  0.00    +0.310 C 
ATOM     34  O   UNL     1       1.893   3.429   0.215  0.00  0.00    -0.252 OA
ATOM     35  N   UNL     1       0.061   2.112   0.080  0.00  0.00    -0.285 N 
ATOM     36  C   UNL     1      -2.129  -1.403   2.579  0.00  0.00    +0.011 C 
ATOM     37  C   UNL     1      -0.133  -2.298   1.413  0.00  0.00    +0.011 C 
ATOM     38  H   UNL     1      -0.646   2.770   0.124  0.00  0.00    +0.151 HD
ENDBRANCH  22  32
ENDBRANCH   1  22
TORSDOF 5
