REMARK  Name = ZINC10139536
REMARK  8 active torsions:
REMARK  status: ('A' for Active; 'I' for Inactive)
REMARK    1  A    between atoms: C_1  and  C_2
REMARK    2  A    between atoms: C_2  and  C_3
REMARK    3  A    between atoms: C_2  and  C_4
REMARK    4  A    between atoms: C_4  and  C_6
REMARK    5  A    between atoms: C_4  and  N_48
REMARK    6  A    between atoms: C_13  and  C_14
REMARK    7  A    between atoms: C_13  and  N_48
REMARK    8  A    between atoms: N_16  and  C_17
REMARK                            x       y       z     vdW  Elec       q    Type
REMARK                         _______ _______ _______ _____ _____    ______ ____
ROOT
ATOM      1  C   UNL     1       0.504   3.211   3.566  0.00  0.00    +0.016 C 
ENDROOT
BRANCH   1   2
ATOM      2  C   UNL     1      -0.132   3.985   4.692  0.00  0.00    +0.200 C 
ATOM      3  O   UNL     1      -0.736   3.399   5.565  0.00  0.00    -0.278 OA
ATOM      4  N   UNL     1      -0.029   5.328   4.729  0.00  0.00    -0.286 N 
ATOM      5  H   UNL     1       0.390   5.803   3.994  0.00  0.00    +0.155 HD
BRANCH   4   6
ATOM      6  C   UNL     1      -0.525   6.039   5.830  0.00  0.00    +0.051 A 
ATOM      7  C   UNL     1      -0.729   5.391   7.040  0.00  0.00    +0.073 A 
ATOM      8  C   UNL     1      -1.220   6.094   8.130  0.00  0.00    +0.164 A 
ATOM      9  C   UNL     1      -1.506   7.449   8.008  0.00  0.00    +0.163 A 
ATOM     10  C   UNL     1      -1.302   8.094   6.797  0.00  0.00    +0.066 A 
ATOM     11  C   UNL     1      -0.808   7.394   5.713  0.00  0.00    +0.043 A 
ATOM     12 BR   UNL     1      -0.525   8.279   4.066  0.00  0.00    -0.048 Br
ATOM     13  O   UNL     1      -1.985   8.158   9.068  0.00  0.00    -0.485 OA
ATOM     14  C   UNL     1      -2.530   7.401  10.154  0.00  0.00    +0.270 C 
ATOM     15  C   UNL     1      -1.559   6.258  10.478  0.00  0.00    +0.270 C 
ATOM     16  O   UNL     1      -1.419   5.443   9.309  0.00  0.00    -0.485 OA
ENDBRANCH   4   6
ENDBRANCH   1   2
BRANCH   1  17
ATOM     17  N   UNL     1       0.245   1.772   3.762  0.00  0.00    +0.389 N 
ATOM     18  H   UNL     1       0.634   1.478   4.665  0.00  0.00    -0.084 HD
ATOM     19  H   UNL     1      -0.768   1.607   3.756  0.00  0.00    -0.084 HD
BRANCH  17  20
ATOM     20  C   UNL     1       0.873   0.987   2.683  0.00  0.00    -0.038 C 
BRANCH  20  21
ATOM     21  C   UNL     1       2.307   0.696   3.042  0.00  0.00    -0.061 A 
ATOM     22  C   UNL     1       2.642   0.378   4.345  0.00  0.00    +0.003 A 
ATOM     23  C   UNL     1       3.957   0.105   4.675  0.00  0.00    +0.020 A 
ATOM     24  C   UNL     1       4.939   0.160   3.702  0.00  0.00    +0.041 A 
ATOM     25  C   UNL     1       4.604   0.484   2.399  0.00  0.00    +0.020 A 
ATOM     26  C   UNL     1       3.288   0.751   2.070  0.00  0.00    +0.003 A 
ATOM     27 CL   UNL     1       6.591  -0.175   4.116  0.00  0.00    -0.084 Cl
ENDBRANCH  20  21
BRANCH  20  29
ATOM     28  C   UNL     1       0.819  -1.193   1.464  0.00  0.00    +0.006 C 
ATOM     29  C   UNL     1       0.113  -0.329   2.511  0.00  0.00    -0.027 C 
ATOM     30  C   UNL     1      -1.317  -0.036   2.050  0.00  0.00    +0.006 C 
ENDBRANCH  20  29
ENDBRANCH  17  20
ENDBRANCH   1  17
TORSDOF 6
