REMARK  Name = ZINC40110789
REMARK  12 active torsions:
REMARK  status: ('A' for Active; 'I' for Inactive)
REMARK    1  A    between atoms: C_1  and  C_2
REMARK    2  A    between atoms: C_2  and  C_3
REMARK    3  A    between atoms: C_3  and  C_4
REMARK    4  A    between atoms: C_4  and  N_5
REMARK    5  A    between atoms: C_6  and  C_27
REMARK    6  A    between atoms: C_8  and  C_13
REMARK    7  A    between atoms: C_13  and  C_15
REMARK    8  A    between atoms: C_18  and  S_21
REMARK    9  A    between atoms: S_21  and  N_24
REMARK   10  A    between atoms: N_24  and  C_25
REMARK   11  A    between atoms: N_24  and  C_26
REMARK   12  A    between atoms: C_30  and  N_33
REMARK                            x       y       z     vdW  Elec       q    Type
REMARK                         _______ _______ _______ _____ _____    ______ ____
ROOT
ATOM      1  N   UNL     1       0.953  -2.332  -2.642  0.00  0.00    -0.284 N 
ATOM      2  C   UNL     1       0.778  -2.356  -4.098  0.00  0.00    +0.145 C 
ATOM      3  C   UNL     1       2.036  -2.974  -4.663  0.00  0.00    +0.076 C 
ATOM      4  C   UNL     1       2.835  -3.265  -3.611  0.00  0.00    +0.249 C 
ATOM      5  C   UNL     1       2.159  -2.858  -2.361  0.00  0.00    +0.288 C 
ATOM      6  O   UNL     1       2.622  -2.983  -1.244  0.00  0.00    -0.266 OA
ATOM      7  O   UNL     1       4.060  -3.833  -3.690  0.00  0.00    -0.282 OA
ENDROOT
BRANCH   2   8
ATOM      8  C   UNL     1       0.607  -0.954  -4.624  0.00  0.00    -0.022 A 
ATOM      9  C   UNL     1       1.487   0.040  -4.238  0.00  0.00    +0.008 A 
ATOM     10  C   UNL     1       1.330   1.327  -4.720  0.00  0.00    +0.033 A 
ATOM     11  C   UNL     1       0.294   1.618  -5.587  0.00  0.00    +0.126 A 
ATOM     12  C   UNL     1      -0.585   0.624  -5.973  0.00  0.00    +0.033 A 
ATOM     13  C   UNL     1      -0.426  -0.664  -5.495  0.00  0.00    +0.008 A 
BRANCH  11  14
ATOM     14  N   UNL     1       0.125   2.996  -6.103  0.00  0.00    +0.056 N 
ATOM     15  O   UNL     1       0.894   3.865  -5.764  0.00  0.00    -0.126 OA
ATOM     16  O   UNL     1      -0.781   3.251  -6.861  0.00  0.00    -0.126 OA
ENDBRANCH  11  14
ENDBRANCH   2   8
BRANCH   3  17
ATOM     17  C   UNL     1       2.333  -3.213  -6.079  0.00  0.00    +0.195 C 
ATOM     18  O   UNL     1       3.242  -2.610  -6.620  0.00  0.00    -0.287 OA
BRANCH  17  19
ATOM     19  C   UNL     1       1.529  -4.185  -6.850  0.00  0.00    +0.022 A 
ATOM     20  C   UNL     1       0.518  -4.914  -6.220  0.00  0.00    +0.013 A 
ATOM     21  C   UNL     1      -0.229  -5.819  -6.945  0.00  0.00    +0.029 A 
ATOM     22  C   UNL     1       0.022  -6.006  -8.293  0.00  0.00    +0.105 A 
ATOM     23  C   UNL     1       1.023  -5.287  -8.923  0.00  0.00    +0.029 A 
ATOM     24  C   UNL     1       1.774  -4.374  -8.211  0.00  0.00    +0.013 A 
BRANCH  22  25
ATOM     25  S   UNL     1      -0.936  -7.165  -9.212  0.00  0.00    +0.060 S 
ATOM     26  O   UNL     1      -0.145  -7.552 -10.327  0.00  0.00    -0.153 OA
ATOM     27  O   UNL     1      -1.444  -8.104  -8.275  0.00  0.00    -0.153 OA
BRANCH  25  28
ATOM     28  N   UNL     1      -2.242  -6.348  -9.819  0.00  0.00    -0.183 NA
ATOM     29  C   UNL     1      -2.158  -5.705 -11.133  0.00  0.00    +0.131 C 
ATOM     30  C   UNL     1      -3.482  -6.267  -9.042  0.00  0.00    +0.131 C 
ENDBRANCH  25  28
ENDBRANCH  22  25
ENDBRANCH  17  19
ENDBRANCH   3  17
BRANCH   1  31
ATOM     31  C   UNL     1      -0.012  -1.818  -1.666  0.00  0.00    +0.109 C 
BRANCH  31  32
ATOM     32  C   UNL     1       0.248  -0.330  -1.426  0.00  0.00    +0.019 C 
BRANCH  32  34
ATOM     33  C   UNL     1      -0.500   1.695  -0.167  0.00  0.00    +0.004 C 
ATOM     34  C   UNL     1      -0.760   0.206  -0.407  0.00  0.00    -0.002 C 
ENDBRANCH  32  34
ENDBRANCH  31  32
ENDBRANCH   1  31
TORSDOF 9
