REMARK  Name = ZINC21847373
REMARK  6 active torsions:
REMARK  status: ('A' for Active; 'I' for Inactive)
REMARK    1  A    between atoms: C_6  and  C_7
REMARK    2  A    between atoms: C_7  and  N_8
REMARK    3  A    between atoms: N_11  and  C_14
REMARK    4  A    between atoms: C_14  and  C_15
REMARK    5  A    between atoms: N_17  and  C_18
REMARK    6  A    between atoms: C_21  and  N_25
REMARK                            x       y       z     vdW  Elec       q    Type
REMARK                         _______ _______ _______ _____ _____    ______ ____
ROOT
ATOM      1  N   UNL     1      -1.739  -0.982  -1.369  0.00  0.00    +0.384 N 
ATOM      2  C   UNL     1      -2.060   0.297  -2.017  0.00  0.00    -0.063 C 
ATOM      3  C   UNL     1      -2.491   0.043  -3.463  0.00  0.00    +0.066 C 
ATOM      4  N   UNL     1      -3.667  -0.839  -3.472  0.00  0.00    -0.298 NA
ATOM      5  C   UNL     1      -3.368  -2.114  -2.805  0.00  0.00    +0.066 C 
ATOM      6  C   UNL     1      -2.929  -1.842  -1.365  0.00  0.00    -0.063 C 
ATOM      7  H   UNL     1      -0.996  -1.438  -1.877  0.00  0.00    -0.081 HD
ENDROOT
BRANCH   1   8
ATOM      8  C   UNL     1      -1.308  -0.736   0.013  0.00  0.00    -0.043 C 
BRANCH   8  14
ATOM      9  C   UNL     1      -0.047   1.426   0.013  0.00  0.00    +0.005 A 
ATOM     10  C   UNL     1       1.133   2.145   0.006  0.00  0.00    +0.050 A 
ATOM     11  C   UNL     1       2.349   1.482  -0.009  0.00  0.00    +0.166 A 
ATOM     12  C   UNL     1       2.379   0.089  -0.016  0.00  0.00    +0.166 A 
ATOM     13  C   UNL     1       1.192  -0.625  -0.009  0.00  0.00    +0.051 A 
ATOM     14  C   UNL     1      -0.018   0.044   0.006  0.00  0.00    -0.060 A 
ATOM     15  O   UNL     1       3.681  -0.319  -0.030  0.00  0.00    -0.453 OA
ATOM     16  C   UNL     1       4.441   0.832  -0.444  0.00  0.00    +0.466 C 
ATOM     17  O   UNL     1       3.633   1.946  -0.018  0.00  0.00    -0.453 OA
ENDBRANCH   8  14
ENDBRANCH   1   8
BRANCH   4  18
ATOM     18  C   UNL     1      -4.147  -1.062  -4.843  0.00  0.00    +0.180 C 
BRANCH  18  19
ATOM     19  C   UNL     1      -5.482  -1.760  -4.800  0.00  0.00    +0.231 C 
ATOM     20  O   UNL     1      -5.984  -2.043  -3.733  0.00  0.00    -0.274 OA
ATOM     21  N   UNL     1      -6.118  -2.068  -5.948  0.00  0.00    -0.283 N 
ATOM     22  H   UNL     1      -5.748  -1.784  -6.799  0.00  0.00    +0.155 HD
BRANCH  21  23
ATOM     23  C   UNL     1      -7.311  -2.799  -5.912  0.00  0.00    +0.048 A 
ATOM     24  C   UNL     1      -8.208  -2.615  -4.868  0.00  0.00    +0.026 A 
ATOM     25  C   UNL     1      -9.385  -3.338  -4.835  0.00  0.00    +0.034 A 
ATOM     26  C   UNL     1      -9.670  -4.244  -5.841  0.00  0.00    +0.127 A 
ATOM     27  C   UNL     1      -8.780  -4.429  -6.882  0.00  0.00    +0.049 A 
ATOM     28  C   UNL     1      -7.603  -3.705  -6.924  0.00  0.00    +0.041 A 
ATOM     29 BR   UNL     1      -6.389  -3.953  -8.352  0.00  0.00    -0.048 Br
BRANCH  26  30
ATOM     30  N   UNL     1     -10.932  -5.016  -5.802  0.00  0.00    +0.056 N 
ATOM     31  O   UNL     1     -11.712  -4.856  -4.892  0.00  0.00    -0.126 OA
ATOM     32  O   UNL     1     -11.183  -5.809  -6.680  0.00  0.00    -0.126 OA
ENDBRANCH  26  30
ENDBRANCH  21  23
ENDBRANCH  18  19
ENDBRANCH   4  18
TORSDOF 6
