REMARK  Name = ZINC47835286
REMARK  7 active torsions:
REMARK  status: ('A' for Active; 'I' for Inactive)
REMARK    1  A    between atoms: C_1  and  N_2
REMARK    2  A    between atoms: N_2  and  C_3
REMARK    3  A    between atoms: N_2  and  C_4
REMARK    4  A    between atoms: C_4  and  C_9
REMARK    5  A    between atoms: C_9  and  N_10
REMARK    6  A    between atoms: N_13  and  C_14
REMARK    7  A    between atoms: C_14  and  C_15
REMARK                            x       y       z     vdW  Elec       q    Type
REMARK                         _______ _______ _______ _____ _____    ______ ____
ROOT
ATOM      1  N   UNL     1      -2.364   1.347   1.005  0.00  0.00    -0.301 N 
ATOM      2  C   UNL     1      -3.194   1.987   1.854  0.00  0.00    +0.300 C 
ATOM      3  O   UNL     1      -3.749   1.369   2.741  0.00  0.00    -0.253 OA
ATOM      4  N   UNL     1      -3.407   3.311   1.718  0.00  0.00    -0.295 N 
ATOM      5  H   UNL     1      -1.921   1.840   0.297  0.00  0.00    +0.150 HD
ATOM      6  H   UNL     1      -2.963   3.804   1.010  0.00  0.00    +0.151 HD
ENDROOT
BRANCH   1   7
ATOM      7  C   UNL     1      -2.133  -0.091   1.153  0.00  0.00    +0.094 C 
BRANCH   7   8
ATOM      8  C   UNL     1      -1.257  -0.588   0.001  0.00  0.00    -0.050 C 
ATOM      9  C   UNL     1      -1.984  -0.381  -1.344  0.00  0.00    -0.010 C 
ATOM     10  C   UNL     1      -1.596  -1.625  -2.181  0.00  0.00    -0.001 C 
ATOM     11  C   UNL     1      -1.597  -2.760  -1.127  0.00  0.00    -0.001 C 
ATOM     12  C   UNL     1      -1.011  -2.100   0.139  0.00  0.00    -0.010 C 
BRANCH   8  14
ATOM     13  C   UNL     1       0.739  -0.133   1.252  0.00  0.00    -0.096 C 
ATOM     14  N   UNL     1       0.024   0.132  -0.004  0.00  0.00    +0.381 N 
ATOM     15  C   UNL     1       0.839  -0.325  -1.137  0.00  0.00    -0.096 C 
ATOM     16  H   UNL     1      -0.147   1.123  -0.091  0.00  0.00    -0.082 HD
ENDBRANCH   8  14
ENDBRANCH   7   8
ENDBRANCH   1   7
BRANCH   4  17
ATOM     17  C   UNL     1      -4.308   4.006   2.640  0.00  0.00    +0.142 C 
BRANCH  17  18
ATOM     18  C   UNL     1      -4.372   5.467   2.275  0.00  0.00    -0.014 A 
ATOM     19  C   UNL     1      -3.476   6.369   2.834  0.00  0.00    +0.010 A 
ATOM     20  C   UNL     1      -3.568   7.701   2.472  0.00  0.00    +0.042 A 
ATOM     21  C   UNL     1      -4.551   8.089   1.566  0.00  0.00    +0.099 A 
ATOM     22  N   UNL     1      -5.386   7.198   1.056  0.00  0.00    -0.349 N 
ATOM     23  C   UNL     1      -5.318   5.920   1.378  0.00  0.00    +0.089 A 
ATOM     24  N   UNL     1      -4.655   9.424   1.194  0.00  0.00    -0.317 N 
ATOM     25  C   UNL     1      -5.768   9.881   0.350  0.00  0.00    +0.106 C 
ATOM     26  C   UNL     1      -6.466  11.053   1.047  0.00  0.00    +0.019 C 
ATOM     27  C   UNL     1      -5.436  12.137   1.369  0.00  0.00    +0.003 C 
ATOM     28  C   UNL     1      -4.377  11.571   2.319  0.00  0.00    +0.019 C 
ATOM     29  C   UNL     1      -3.659  10.406   1.642  0.00  0.00    +0.106 C 
ATOM     30  H   UNL     1      -6.064   7.491   0.426  0.00  0.00    +0.167 HD
ENDBRANCH  17  18
ENDBRANCH   4  17
TORSDOF 5
