REMARK  Name = ZINC36587087
REMARK  18 active torsions:
REMARK  status: ('A' for Active; 'I' for Inactive)
REMARK    1  A    between atoms: C_1  and  C_2
REMARK    2  A    between atoms: C_2  and  C_3
REMARK    3  A    between atoms: C_2  and  C_4
REMARK    4  A    between atoms: C_2  and  C_5
REMARK    5  A    between atoms: C_5  and  C_6
REMARK    6  A    between atoms: C_6  and  C_7
REMARK    7  A    between atoms: C_6  and  C_8
REMARK    8  A    between atoms: C_6  and  N_9
REMARK    9  A    between atoms: C_10  and  C_12
REMARK   10  A    between atoms: C_12  and  C_14
REMARK   11  A    between atoms: C_12  and  N_21
REMARK   12  A    between atoms: N_21  and  C_32
REMARK   13  A    between atoms: C_22  and  C_24
REMARK   14  A    between atoms: C_28  and  O_31
REMARK   15  A    between atoms: C_29  and  O_30
REMARK   16  A    between atoms: C_32  and  C_33
REMARK   17  A    between atoms: C_32  and  C_34
REMARK   18  A    between atoms: C_32  and  C_35
REMARK                            x       y       z     vdW  Elec       q    Type
REMARK                         _______ _______ _______ _____ _____    ______ ____
ROOT
ATOM      1  C   UNL     1       5.934   0.566  -3.114  0.00  0.00    +0.193 C 
ENDROOT
BRANCH   1   2
ATOM      2  C   UNL     1       5.407   1.922  -2.719  0.00  0.00    -0.018 A 
ATOM      3  C   UNL     1       6.126   3.060  -3.034  0.00  0.00    +0.007 A 
ATOM      4  C   UNL     1       5.644   4.304  -2.672  0.00  0.00    +0.020 A 
ATOM      5  C   UNL     1       4.442   4.409  -1.994  0.00  0.00    +0.041 A 
ATOM      6  C   UNL     1       3.724   3.270  -1.680  0.00  0.00    +0.020 A 
ATOM      7  C   UNL     1       4.204   2.027  -2.047  0.00  0.00    +0.007 A 
ATOM      8 CL   UNL     1       3.836   5.971  -1.539  0.00  0.00    -0.084 Cl
ENDBRANCH   1   2
BRANCH   1  10
ATOM      9  N   UNL     1       6.245  -0.264  -0.805  0.00  0.00    -0.308 N 
ATOM     10  C   UNL     1       6.793   0.018  -2.004  0.00  0.00    +0.239 C 
ATOM     11  O   UNL     1       7.976  -0.170  -2.190  0.00  0.00    -0.273 OA
ATOM     12  H   UNL     1       5.299  -0.114  -0.657  0.00  0.00    +0.149 HD
BRANCH   9  13
ATOM     13  C   UNL     1       7.081  -0.797   0.274  0.00  0.00    +0.030 C 
ATOM     14  C   UNL     1       8.339   0.060   0.416  0.00  0.00    +0.031 C 
ATOM     15  C   UNL     1       7.479  -2.238  -0.054  0.00  0.00    +0.031 C 
BRANCH  13  16
ATOM     16  C   UNL     1       6.295  -0.772   1.587  0.00  0.00    +0.031 C 
BRANCH  16  18
ATOM     17  C   UNL     1       4.364   0.594   0.782  0.00  0.00    +0.010 C 
ATOM     18  C   UNL     1       5.571   0.569   1.722  0.00  0.00    -0.036 C 
ATOM     19  C   UNL     1       6.528   1.705   1.352  0.00  0.00    +0.010 C 
ATOM     20  C   UNL     1       5.098   0.750   3.165  0.00  0.00    +0.010 C 
ENDBRANCH  16  18
ENDBRANCH  13  16
ENDBRANCH   9  13
ENDBRANCH   1  10
BRANCH   1  21
ATOM     21  N   UNL     1       6.734   0.689  -4.335  0.00  0.00    -0.277 N 
ATOM     22  C   UNL     1       7.977   1.207  -4.277  0.00  0.00    +0.252 C 
ATOM     23  O   UNL     1       8.525   1.352  -3.201  0.00  0.00    -0.270 OA
BRANCH  22  24
ATOM     24  C   UNL     1       8.673   1.596  -5.518  0.00  0.00    +0.082 A 
ATOM     25  C   UNL     1       8.338   0.988  -6.732  0.00  0.00    +0.017 A 
ATOM     26  C   UNL     1       8.990   1.355  -7.889  0.00  0.00    +0.005 A 
ATOM     27  C   UNL     1       9.978   2.325  -7.858  0.00  0.00    +0.049 A 
ATOM     28  C   UNL     1      10.322   2.936  -6.664  0.00  0.00    +0.159 A 
ATOM     29  C   UNL     1       9.668   2.580  -5.488  0.00  0.00    +0.171 A 
BRANCH  29  30
ATOM     30  O   UNL     1       9.997   3.181  -4.316  0.00  0.00    -0.503 OA
ATOM     31  H   UNL     1      10.703   2.734  -3.829  0.00  0.00    +0.292 HD
ENDBRANCH  29  30
BRANCH  28  32
ATOM     32  O   UNL     1      11.293   3.887  -6.641  0.00  0.00    -0.503 OA
ATOM     33  H   UNL     1      10.966   4.786  -6.780  0.00  0.00    +0.292 HD
ENDBRANCH  28  32
ENDBRANCH  22  24
BRANCH  21  34
ATOM     34  C   UNL     1       6.183   0.251  -5.620  0.00  0.00    +0.030 C 
ATOM     35  C   UNL     1       4.704  -0.103  -5.446  0.00  0.00    +0.031 C 
ATOM     36  C   UNL     1       6.320   1.378  -6.645  0.00  0.00    +0.031 C 
ATOM     37  C   UNL     1       6.948  -0.980  -6.109  0.00  0.00    +0.031 C 
ENDBRANCH  21  34
ENDBRANCH   1  21
TORSDOF 10
