REMARK  Name = ZINC04766329
REMARK  9 active torsions:
REMARK  status: ('A' for Active; 'I' for Inactive)
REMARK    1  A    between atoms: C_1  and  C_2
REMARK    2  A    between atoms: C_7  and  C_23
REMARK    3  A    between atoms: C_9  and  C_13
REMARK    4  A    between atoms: C_10  and  C_12
REMARK    5  A    between atoms: C_13  and  O_15
REMARK    6  A    between atoms: O_15  and  C_16
REMARK    7  A    between atoms: C_34  and  C_36
REMARK    8  A    between atoms: C_36  and  O_38
REMARK    9  A    between atoms: O_38  and  C_39
REMARK                            x       y       z     vdW  Elec       q    Type
REMARK                         _______ _______ _______ _____ _____    ______ ____
ROOT
ATOM      1  C   UNL     1       0.686   1.691  -0.429  0.00  0.00    +0.009 C 
ATOM      2  C   UNL     1       0.453   0.181  -0.334  0.00  0.00    +0.013 C 
ATOM      3  C   UNL     1       1.212  -0.527  -1.458  0.00  0.00    +0.055 C 
ATOM      4  C   UNL     1       1.024  -2.019  -1.335  0.00  0.00    +0.016 C 
ATOM      5  C   UNL     1       0.851  -2.600  -0.129  0.00  0.00    +0.025 C 
ATOM      6  C   UNL     1       0.676  -4.093  -0.011  0.00  0.00    +0.092 C 
ATOM      7  C   UNL     1       0.298  -4.697  -1.332  0.00  0.00    +0.065 C 
ATOM      8  C   UNL     1       0.489  -4.030  -2.483  0.00  0.00    +0.016 C 
ATOM      9  N   UNL     1       1.030  -2.775  -2.476  0.00  0.00    -0.321 N 
ATOM     10  C   UNL     1       0.103  -4.671  -3.792  0.00  0.00    +0.061 C 
ATOM     11  C   UNL     1       0.826  -1.833   1.049  0.00  0.00    +0.176 C 
ATOM     12  O   UNL     1       0.678  -2.389   2.120  0.00  0.00    -0.291 OA
ATOM     13  C   UNL     1       0.973  -0.336   1.011  0.00  0.00    +0.171 C 
ATOM     14  H   UNL     1       1.422  -2.417  -3.287  0.00  0.00    +0.152 HD
ENDROOT
BRANCH   6  15
ATOM     15  C   UNL     1       1.970  -4.707   0.459  0.00  0.00    -0.032 A 
ATOM     16  C   UNL     1       3.120  -4.553  -0.292  0.00  0.00    +0.008 A 
ATOM     17  C   UNL     1       4.309  -5.114   0.135  0.00  0.00    +0.050 A 
ATOM     18  C   UNL     1       4.351  -5.833   1.319  0.00  0.00    +0.166 A 
ATOM     19  C   UNL     1       3.192  -5.988   2.076  0.00  0.00    +0.167 A 
ATOM     20  C   UNL     1       2.005  -5.418   1.644  0.00  0.00    +0.054 A 
ATOM     21  O   UNL     1       3.491  -6.728   3.184  0.00  0.00    -0.453 OA
ATOM     22  C   UNL     1       4.747  -7.367   2.892  0.00  0.00    +0.466 C 
ATOM     23  O   UNL     1       5.375  -6.475   1.952  0.00  0.00    -0.453 OA
ENDBRANCH   6  15
BRANCH   7  24
ATOM     24  C   UNL     1      -0.271  -5.991  -1.365  0.00  0.00    +0.338 C 
ATOM     25  O   UNL     1      -0.694  -6.443  -2.413  0.00  0.00    -0.245 OA
BRANCH  24  26
ATOM     26  O   UNL     1      -0.344  -6.726  -0.236  0.00  0.00    -0.458 OA
BRANCH  26  27
ATOM     27  C   UNL     1      -0.931  -8.024  -0.343  0.00  0.00    +0.177 C 
ATOM     28  C   UNL     1      -2.458  -7.899  -0.168  0.00  0.00    +0.044 C 
ATOM     29  C   UNL     1      -3.110  -9.114  -0.770  0.00  0.00    +0.004 C 
ATOM     30  C   UNL     1      -3.369 -10.220   0.270  0.00  0.00    +0.000 C 
ATOM     31  C   UNL     1      -2.195 -10.406   1.250  0.00  0.00    +0.000 C 
ATOM     32  C   UNL     1      -0.857 -10.344   0.565  0.00  0.00    +0.004 C 
ATOM     33  C   UNL     1      -0.328  -8.898   0.653  0.00  0.00    +0.044 C 
ENDBRANCH  26  27
ENDBRANCH  24  26
ENDBRANCH   7  24
BRANCH  13  34
ATOM     34  C   UNL     1       0.177   0.282   2.131  0.00  0.00    +0.318 C 
ATOM     35  O   UNL     1      -0.715   1.058   1.881  0.00  0.00    -0.250 OA
BRANCH  34  36
ATOM     36  O   UNL     1       0.460  -0.028   3.406  0.00  0.00    -0.467 OA
ATOM     37  C   UNL     1      -0.335   0.595   4.417  0.00  0.00    +0.280 C 
ENDBRANCH  34  36
ENDBRANCH  13  34
TORSDOF 6
