REMARK  Name = ZINC03431793
REMARK  9 active torsions:
REMARK  status: ('A' for Active; 'I' for Inactive)
REMARK    1  A    between atoms: C_1  and  C_2
REMARK    2  A    between atoms: C_2  and  C_4
REMARK    3  A    between atoms: C_9  and  N_10
REMARK    4  A    between atoms: C_11  and  C_13
REMARK    5  A    between atoms: C_13  and  O_14
REMARK    6  A    between atoms: O_14  and  C_15
REMARK    7  A    between atoms: C_15  and  C_17
REMARK    8  A    between atoms: C_21  and  S_23
REMARK    9  A    between atoms: S_23  and  N_26
REMARK                            x       y       z     vdW  Elec       q    Type
REMARK                         _______ _______ _______ _____ _____    ______ ____
ROOT
ATOM      1  C   UNL     1      -1.271  -0.758   0.013  0.00  0.00    +0.061 A 
ATOM      2  C   UNL     1      -2.490  -0.079   0.051  0.00  0.00    +0.015 A 
ATOM      3  C   UNL     1      -3.672  -0.790   0.060  0.00  0.00    +0.003 A 
ATOM      4  C   UNL     1      -3.651  -2.174   0.044  0.00  0.00    +0.029 A 
ATOM      5  C   UNL     1      -2.446  -2.853   0.012  0.00  0.00    +0.109 A 
ATOM      6  C   UNL     1      -1.256  -2.154  -0.003  0.00  0.00    +0.043 A 
ENDROOT
BRANCH   5   7
ATOM      7  S   UNL     1      -2.430  -4.615  -0.009  0.00  0.00    +0.075 S 
ATOM      8  O   UNL     1      -3.682  -5.026  -0.540  0.00  0.00    -0.150 OA
ATOM      9  O   UNL     1      -1.192  -5.003  -0.589  0.00  0.00    -0.150 OA
BRANCH   7  10
ATOM     10  N   UNL     1      -2.395  -5.123   1.567  0.00  0.00    -0.202 N 
ATOM     11  C   UNL     1      -3.578  -5.391   2.389  0.00  0.00    +0.136 C 
ATOM     12  C   UNL     1      -3.027  -5.831   3.755  0.00  0.00    +0.058 C 
ATOM     13  C   UNL     1      -1.524  -5.775   3.595  0.00  0.00    -0.023 A 
ATOM     14  C   UNL     1      -1.234  -5.364   2.304  0.00  0.00    +0.054 A 
ATOM     15  C   UNL     1       0.102  -5.242   1.915  0.00  0.00    +0.025 A 
ATOM     16  C   UNL     1       1.114  -5.532   2.806  0.00  0.00    +0.002 A 
ATOM     17  C   UNL     1       0.813  -5.945   4.090  0.00  0.00    +0.000 A 
ATOM     18  C   UNL     1      -0.507  -6.059   4.485  0.00  0.00    +0.005 A 
ENDBRANCH   7  10
ENDBRANCH   5   7
BRANCH   1  19
ATOM     19  C   UNL     1      -0.001  -0.003  -0.003  0.00  0.00    +0.340 C 
ATOM     20  O   UNL     1       1.058  -0.596  -0.030  0.00  0.00    -0.245 OA
BRANCH  19  21
ATOM     21  O   UNL     1      -0.019   1.344   0.013  0.00  0.00    -0.452 OA
BRANCH  21  22
ATOM     22  C   UNL     1       1.266   2.020  -0.004  0.00  0.00    +0.328 C 
BRANCH  22  24
ATOM     23  N   UNL     1       2.108   4.346   0.007  0.00  0.00    -0.282 N 
ATOM     24  C   UNL     1       1.050   3.511   0.018  0.00  0.00    +0.255 C 
ATOM     25  O   UNL     1      -0.077   3.960   0.045  0.00  0.00    -0.272 OA
ATOM     26  H   UNL     1       3.008   3.989   0.066  0.00  0.00    +0.155 HD
BRANCH  23  32
ATOM     27  C   UNL     1       2.877   6.611   0.406  0.00  0.00    +0.038 A 
ATOM     28  C   UNL     1       2.663   7.990   0.302  0.00  0.00    +0.013 A 
ATOM     29  C   UNL     1       1.510   8.464  -0.283  0.00  0.00    +0.001 A 
ATOM     30  C   UNL     1       0.558   7.582  -0.771  0.00  0.00    +0.002 A 
ATOM     31  C   UNL     1       0.756   6.219  -0.681  0.00  0.00    +0.024 A 
ATOM     32  C   UNL     1       1.909   5.720  -0.090  0.00  0.00    +0.044 A 
BRANCH  27  34
ATOM     33  C   UNL     1       5.083   7.053   1.659  0.00  0.00    +0.091 C 
ATOM     34  C   UNL     1       4.103   6.098   1.028  0.00  0.00    +0.162 C 
ATOM     35  O   UNL     1       4.327   4.906   1.034  0.00  0.00    -0.292 OA
ENDBRANCH  27  34
ENDBRANCH  23  32
ENDBRANCH  22  24
ENDBRANCH  21  22
ENDBRANCH  19  21
ENDBRANCH   1  19
TORSDOF 8
