REMARK  Name = ZINC35040448
REMARK  16 active torsions:
REMARK  status: ('A' for Active; 'I' for Inactive)
REMARK    1  A    between atoms: C_1  and  C_2
REMARK    2  A    between atoms: C_2  and  C_3
REMARK    3  A    between atoms: C_3  and  C_4
REMARK    4  A    between atoms: C_4  and  C_5
REMARK    5  A    between atoms: C_5  and  C_7
REMARK    6  A    between atoms: C_5  and  C_9
REMARK    7  A    between atoms: C_7  and  C_8
REMARK    8  A    between atoms: N_11  and  C_12
REMARK    9  A    between atoms: N_11  and  C_17
REMARK   10  A    between atoms: C_12  and  C_13
REMARK   11  A    between atoms: C_13  and  N_14
REMARK   12  A    between atoms: N_14  and  C_15
REMARK   13  A    between atoms: N_14  and  C_16
REMARK   14  A    between atoms: C_17  and  C_19
REMARK   15  A    between atoms: C_17  and  C_20
REMARK   16  A    between atoms: N_30  and  C_31
REMARK                            x       y       z     vdW  Elec       q    Type
REMARK                         _______ _______ _______ _____ _____    ______ ____
ROOT
ATOM      1  C   UNL     1       2.304  -5.087  -3.247  0.00  0.00    +0.139 C 
ATOM      2  C   UNL     1       3.738  -5.477  -2.885  0.00  0.00    +0.036 C 
ENDROOT
BRANCH   1   3
ATOM      3  C   UNL     1       1.917  -5.743  -4.547  0.00  0.00    +0.138 A 
ATOM      4  N   UNL     1       2.685  -5.566  -5.579  0.00  0.00    -0.231 NA
ATOM      5  C   UNL     1       2.401  -6.126  -6.781  0.00  0.00    +0.078 A 
ATOM      6  C   UNL     1       3.227  -5.937  -7.891  0.00  0.00    +0.028 A 
ATOM      7  C   UNL     1       2.901  -6.525  -9.092  0.00  0.00    +0.002 A 
ATOM      8  C   UNL     1       1.757  -7.304  -9.216  0.00  0.00    +0.001 A 
ATOM      9  C   UNL     1       0.926  -7.504  -8.136  0.00  0.00    +0.015 A 
ATOM     10  C   UNL     1       1.239  -6.920  -6.910  0.00  0.00    +0.065 A 
ATOM     11  C   UNL     1       0.390  -7.099  -5.724  0.00  0.00    +0.266 A 
ATOM     12  O   UNL     1      -0.624  -7.771  -5.768  0.00  0.00    -0.267 OA
ATOM     13  N   UNL     1       0.783  -6.494  -4.579  0.00  0.00    -0.263 N 
BRANCH  13  14
ATOM     14  C   UNL     1       0.012  -6.637  -3.417  0.00  0.00    +0.051 A 
ATOM     15  C   UNL     1      -1.255  -6.072  -3.350  0.00  0.00    +0.029 A 
ATOM     16  C   UNL     1      -2.013  -6.215  -2.204  0.00  0.00    +0.040 A 
ATOM     17  C   UNL     1      -1.511  -6.922  -1.124  0.00  0.00    +0.124 A 
ATOM     18  C   UNL     1      -0.248  -7.485  -1.190  0.00  0.00    +0.040 A 
ATOM     19  C   UNL     1       0.511  -7.349  -2.335  0.00  0.00    +0.029 A 
ATOM     20  F   UNL     1      -2.254  -7.060  -0.005  0.00  0.00    -0.205 F 
ENDBRANCH  13  14
ENDBRANCH   1   3
BRANCH   1  23
ATOM     21  C   UNL     1       1.344  -2.932  -2.634  0.00  0.00    +0.219 C 
ATOM     22  O   UNL     1       1.212  -1.739  -2.809  0.00  0.00    -0.275 OA
ATOM     23  N   UNL     1       2.215  -3.631  -3.389  0.00  0.00    -0.293 N 
BRANCH  21  24
ATOM     24  C   UNL     1       0.534  -3.632  -1.574  0.00  0.00    +0.075 C 
BRANCH  24  25
ATOM     25  C   UNL     1       1.460  -4.092  -0.446  0.00  0.00    +0.009 C 
ATOM     26  C   UNL     1       2.129  -2.873   0.194  0.00  0.00    +0.004 C 
ENDBRANCH  24  25
BRANCH  24  27
ATOM     27  C   UNL     1      -0.513  -2.669  -1.013  0.00  0.00    +0.013 C 
BRANCH  27  28
ATOM     28  C   UNL     1      -1.402  -3.409  -0.011  0.00  0.00    +0.000 C 
BRANCH  28  30
ATOM     29  C   UNL     1      -3.282  -3.166   1.617  0.00  0.00    +0.004 C 
ATOM     30  C   UNL     1      -2.393  -2.426   0.615  0.00  0.00    -0.003 C 
ENDBRANCH  28  30
ENDBRANCH  27  28
ENDBRANCH  24  27
ENDBRANCH  21  24
BRANCH  23  31
ATOM     31  C   UNL     1       3.074  -2.936  -4.351  0.00  0.00    +0.090 C 
BRANCH  31  32
ATOM     32  C   UNL     1       4.321  -2.412  -3.636  0.00  0.00    -0.060 C 
BRANCH  32  33
ATOM     33  N   UNL     1       5.182  -1.715  -4.601  0.00  0.00    +0.377 N 
ATOM     34  C   UNL     1       4.489  -0.519  -5.100  0.00  0.00    -0.097 C 
ATOM     35  C   UNL     1       6.433  -1.317  -3.942  0.00  0.00    -0.097 C 
ATOM     36  H   UNL     1       5.389  -2.330  -5.373  0.00  0.00    -0.083 HD
ENDBRANCH  32  33
ENDBRANCH  31  32
ENDBRANCH  23  31
ENDBRANCH   1  23
TORSDOF 11
