REMARK  Name = ZINC02185248
REMARK  11 active torsions:
REMARK  status: ('A' for Active; 'I' for Inactive)
REMARK    1  A    between atoms: C_1  and  C_2
REMARK    2  A    between atoms: C_3  and  C_30
REMARK    3  A    between atoms: C_4  and  C_22
REMARK    4  A    between atoms: C_10  and  C_11
REMARK    5  A    between atoms: C_16  and  O_17
REMARK    6  A    between atoms: C_25  and  O_28
REMARK    7  A    between atoms: O_28  and  C_29
REMARK    8  A    between atoms: C_30  and  O_32
REMARK    9  A    between atoms: O_32  and  C_33
REMARK   10  A    between atoms: C_33  and  C_34
REMARK   11  A    between atoms: C_33  and  C_35
REMARK                            x       y       z     vdW  Elec       q    Type
REMARK                         _______ _______ _______ _____ _____    ______ ____
ROOT
ATOM      1  C   UNL     1       3.660   3.702  -1.897  0.00  0.00    +0.066 C 
ATOM      2  C   UNL     1       2.372   4.418  -1.583  0.00  0.00    +0.053 C 
ATOM      3  C   UNL     1       1.215   3.703  -1.443  0.00  0.00    +0.085 C 
ATOM      4  C   UNL     1      -0.054   4.458  -1.122  0.00  0.00    +0.162 C 
ATOM      5  N   UNL     1       0.051   5.939  -0.987  0.00  0.00    -0.275 N 
ATOM      6  C   UNL     1      -0.955   6.776  -0.707  0.00  0.00    +0.268 A 
ATOM      7  O   UNL     1      -2.087   6.361  -0.535  0.00  0.00    -0.266 OA
ATOM      8  C   UNL     1      -0.653   8.211  -0.616  0.00  0.00    +0.081 A 
ATOM      9  C   UNL     1      -1.484   9.253  -0.349  0.00  0.00    +0.032 C 
ATOM     10  S   UNL     1       1.101   8.215  -0.951  0.00  0.00    -0.046 S 
ATOM     11  C   UNL     1       1.311   6.459  -1.174  0.00  0.00    +0.178 A 
ATOM     12  N   UNL     1       2.368   5.739  -1.451  0.00  0.00    -0.228 NA
ENDROOT
BRANCH   9  13
ATOM     13  C   UNL     1      -1.008  10.631  -0.513  0.00  0.00    +0.019 A 
ATOM     14  C   UNL     1       0.137  10.895  -1.274  0.00  0.00    +0.031 A 
ATOM     15  C   UNL     1       0.574  12.194  -1.429  0.00  0.00    +0.042 A 
ATOM     16  C   UNL     1      -0.108  13.238  -0.823  0.00  0.00    +0.023 A 
ATOM     17  C   UNL     1      -1.236  12.991  -0.064  0.00  0.00    +0.047 A 
ATOM     18  C   UNL     1      -1.694  11.694   0.098  0.00  0.00    +0.124 A 
ATOM     19 CL   UNL     1       1.990  12.522  -2.379  0.00  0.00    -0.084 Cl
BRANCH  18  20
ATOM     20  O   UNL     1      -2.803  11.450   0.843  0.00  0.00    -0.506 OA
ATOM     21  H   UNL     1      -2.620  11.292   1.779  0.00  0.00    +0.292 HD
ENDBRANCH  18  20
ENDBRANCH   9  13
BRANCH   4  22
ATOM     22  C   UNL     1      -0.602   3.913   0.172  0.00  0.00    -0.020 A 
ATOM     23  C   UNL     1      -0.064   4.324   1.377  0.00  0.00    +0.009 A 
ATOM     24  C   UNL     1      -0.569   3.830   2.565  0.00  0.00    +0.046 A 
ATOM     25  C   UNL     1      -1.610   2.913   2.546  0.00  0.00    +0.120 A 
ATOM     26  C   UNL     1      -2.145   2.499   1.335  0.00  0.00    +0.046 A 
ATOM     27  C   UNL     1      -1.640   3.000   0.151  0.00  0.00    +0.009 A 
BRANCH  25  28
ATOM     28  O   UNL     1      -2.105   2.422   3.713  0.00  0.00    -0.495 OA
ATOM     29  C   UNL     1      -1.505   2.893   4.921  0.00  0.00    +0.277 C 
ENDBRANCH  25  28
ENDBRANCH   4  22
BRANCH   3  30
ATOM     30  C   UNL     1       1.208   2.306  -1.587  0.00  0.00    +0.339 C 
ATOM     31  O   UNL     1       2.236   1.718  -1.874  0.00  0.00    -0.245 OA
BRANCH  30  32
ATOM     32  O   UNL     1       0.061   1.615  -1.408  0.00  0.00    -0.459 OA
BRANCH  32  33
ATOM     33  C   UNL     1       0.127   0.196  -1.570  0.00  0.00    +0.171 C 
ATOM     34  C   UNL     1       0.458  -0.456  -0.227  0.00  0.00    +0.052 C 
ATOM     35  C   UNL     1      -1.222  -0.323  -2.071  0.00  0.00    +0.052 C 
ENDBRANCH  32  33
ENDBRANCH  30  32
ENDBRANCH   3  30
TORSDOF 7
