REMARK  Name = ZINC64986790
REMARK  10 active torsions:
REMARK  status: ('A' for Active; 'I' for Inactive)
REMARK    1  A    between atoms: C_1  and  C_2
REMARK    2  A    between atoms: C_2  and  N_3
REMARK    3  A    between atoms: N_3  and  C_4
REMARK    4  A    between atoms: N_3  and  S_5
REMARK    5  A    between atoms: S_5  and  C_8
REMARK    6  A    between atoms: C_13  and  O_14
REMARK    7  A    between atoms: O_14  and  C_15
REMARK    8  A    between atoms: C_18  and  C_22
REMARK    9  A    between atoms: C_19  and  C_21
REMARK   10  A    between atoms: C_27  and  C_33
REMARK                            x       y       z     vdW  Elec       q    Type
REMARK                         _______ _______ _______ _____ _____    ______ ____
ROOT
ATOM      1  C   UNL     1       2.931   0.373   1.932  0.00  0.00    +0.148 A 
ATOM      2  C   UNL     1       3.441   0.206   3.198  0.00  0.00    +0.049 A 
ATOM      3  C   UNL     1       4.465   1.043   3.658  0.00  0.00    +0.081 A 
ATOM      4  C   UNL     1       4.980   2.034   2.812  0.00  0.00    +0.144 A 
ATOM      5  C   UNL     1       4.446   2.205   1.546  0.00  0.00    +0.095 A 
ATOM      6  C   UNL     1       3.428   1.373   1.102  0.00  0.00    +0.158 A 
ATOM      7  O   UNL     1       6.019   2.803   3.212  0.00  0.00    -0.453 OA
ATOM      8  C   UNL     1       7.201   2.199   3.489  0.00  0.00    +0.150 A 
ATOM      9  C   UNL     1       8.309   2.504   2.710  0.00  0.00    +0.048 A 
ATOM     10  C   UNL     1       9.520   1.884   2.950  0.00  0.00    +0.007 A 
ATOM     11  C   UNL     1       9.631   0.954   3.966  0.00  0.00    -0.048 A 
ATOM     12  C   UNL     1       8.536   0.653   4.752  0.00  0.00    +0.030 A 
ATOM     13  C   UNL     1       7.317   1.284   4.527  0.00  0.00    +0.077 A 
ATOM     14  N   UNL     1       6.248   1.006   5.378  0.00  0.00    -0.278 N 
ATOM     15  C   UNL     1       4.977   0.883   5.023  0.00  0.00    +0.252 C 
ATOM     16  O   UNL     1       4.173   0.617   5.897  0.00  0.00    -0.270 OA
ATOM     17  C   UNL     1      10.949   0.267   4.217  0.00  0.00    +0.044 C 
ATOM     18  H   UNL     1       6.454   0.893   6.319  0.00  0.00    +0.155 HD
ENDROOT
BRANCH   1  19
ATOM     19  S   UNL     1       1.647  -0.688   1.355  0.00  0.00    +0.064 S 
ATOM     20  O   UNL     1       1.338  -1.569   2.427  0.00  0.00    -0.153 OA
ATOM     21  O   UNL     1       2.052  -1.157   0.076  0.00  0.00    -0.153 OA
BRANCH  19  22
ATOM     22  N   UNL     1       0.306   0.252   1.113  0.00  0.00    -0.180 NA
ATOM     23  C   UNL     1       0.011   0.777  -0.223  0.00  0.00    +0.131 C 
BRANCH  22  25
ATOM     24  C   UNL     1      -1.745  -0.439   2.252  0.00  0.00    +0.022 C 
ATOM     25  C   UNL     1      -0.585   0.560   2.234  0.00  0.00    +0.106 C 
ENDBRANCH  22  25
ENDBRANCH  19  22
ENDBRANCH   1  19
BRANCH   6  26
ATOM     26  O   UNL     1       2.913   1.538  -0.142  0.00  0.00    -0.454 OA
BRANCH  26  27
ATOM     27  C   UNL     1       3.462   0.824  -1.160  0.00  0.00    +0.129 A 
ATOM     28  C   UNL     1       4.527  -0.032  -0.914  0.00  0.00    +0.046 A 
ATOM     29  C   UNL     1       5.083  -0.756  -1.950  0.00  0.00    +0.007 A 
ATOM     30  C   UNL     1       4.580  -0.630  -3.232  0.00  0.00    -0.047 A 
ATOM     31  C   UNL     1       3.519   0.222  -3.480  0.00  0.00    -0.044 A 
ATOM     32  C   UNL     1       2.956   0.945  -2.446  0.00  0.00    +0.050 A 
ATOM     33  C   UNL     1       2.974   0.358  -4.878  0.00  0.00    +0.044 C 
ATOM     34  C   UNL     1       5.188  -1.422  -4.360  0.00  0.00    +0.044 C 
ENDBRANCH  26  27
ENDBRANCH   6  26
TORSDOF 5
