REMARK  Name = ZINC20805431
REMARK  13 active torsions:
REMARK  status: ('A' for Active; 'I' for Inactive)
REMARK    1  A    between atoms: C_1  and  C_2
REMARK    2  A    between atoms: C_3  and  C_11
REMARK    3  A    between atoms: C_4  and  C_10
REMARK    4  A    between atoms: N_5  and  C_7
REMARK    5  A    between atoms: C_7  and  C_8
REMARK    6  A    between atoms: C_7  and  C_9
REMARK    7  A    between atoms: N_12  and  N_13
REMARK    8  A    between atoms: C_17  and  S_20
REMARK    9  A    between atoms: N_18  and  N_19
REMARK   10  A    between atoms: S_20  and  C_21
REMARK   11  A    between atoms: C_21  and  C_22
REMARK   12  A    between atoms: N_24  and  C_25
REMARK   13  A    between atoms: C_29  and  N_31
REMARK                            x       y       z     vdW  Elec       q    Type
REMARK                         _______ _______ _______ _____ _____    ______ ____
ROOT
ATOM      1  N   UNL     1     -13.643   0.483   0.835  0.00  0.00    -0.204 N 
ATOM      2  C   UNL     1     -12.262   0.492   0.708  0.00  0.00    +0.254 A 
ATOM      3  N   UNL     1     -11.488  -0.564   0.632  0.00  0.00    -0.109 NA
ATOM      4  N   UNL     1     -10.164  -0.123   0.507  0.00  0.00    -0.119 NA
ATOM      5  C   UNL     1     -10.172   1.189   0.518  0.00  0.00    +0.210 A 
ATOM      6  N   UNL     1     -11.468   1.603   0.640  0.00  0.00    -0.211 N 
ATOM      7  H   UNL     1     -14.196   1.432   0.890  0.00  0.00    +0.177 HD
ENDROOT
BRANCH   6   8
ATOM      8  N   UNL     1     -11.896   2.899   0.685  0.00  0.00    -0.294 N 
ATOM      9  H   UNL     1     -11.167   3.721   0.621  0.00  0.00    +0.163 HD
ATOM     10  H   UNL     1     -12.968   3.122   0.785  0.00  0.00    +0.163 HD
ENDBRANCH   6   8
BRANCH   1  12
ATOM     11  C   UNL     1     -15.626  -0.743   1.013  0.00  0.00    +0.141 C 
ATOM     12  N   UNL     1     -14.334  -0.734   0.894  0.00  0.00    -0.187 NA
BRANCH  11  15
ATOM     13  C   UNL     1     -14.314  -3.627   0.880  0.00  0.00    +0.068 C 
ATOM     14  C   UNL     1     -15.782  -3.315   1.017  0.00  0.00    +0.069 A 
ATOM     15  C   UNL     1     -16.353  -2.025   1.074  0.00  0.00    +0.038 A 
ATOM     16  C   UNL     1     -17.715  -2.187   1.204  0.00  0.00    +0.045 A 
ATOM     17  N   UNL     1     -17.965  -3.512   1.217  0.00  0.00    -0.265 N 
ATOM     18  N   UNL     1     -16.747  -4.191   1.103  0.00  0.00    -0.175 NA
ATOM     19  C   UNL     1     -18.738  -1.085   1.309  0.00  0.00    +0.066 C 
BRANCH  17  20
ATOM     20  C   UNL     1     -19.286  -4.134   1.336  0.00  0.00    +0.101 C 
ATOM     21  C   UNL     1     -19.555  -4.999   0.103  0.00  0.00    +0.032 C 
ATOM     22  C   UNL     1     -19.327  -5.009   2.591  0.00  0.00    +0.032 C 
ENDBRANCH  17  20
ENDBRANCH  11  15
ENDBRANCH   1  12
BRANCH   5  23
ATOM     23  S   UNL     1      -8.758   2.233   0.392  0.00  0.00    -0.075 S 
BRANCH  23  24
ATOM     24  C   UNL     1      -7.368   1.076   0.259  0.00  0.00    +0.173 C 
BRANCH  24  25
ATOM     25  C   UNL     1      -6.080   1.849   0.143  0.00  0.00    +0.227 C 
ATOM     26  O   UNL     1      -6.098   3.062   0.150  0.00  0.00    -0.275 OA
ATOM     27  N   UNL     1      -4.907   1.194   0.032  0.00  0.00    -0.285 N 
ATOM     28  H   UNL     1      -4.897   0.098  -0.061  0.00  0.00    +0.155 HD
BRANCH  27  29
ATOM     29  C   UNL     1      -3.704   1.907   0.036  0.00  0.00    +0.036 A 
ATOM     30  C   UNL     1      -2.626   1.457  -0.716  0.00  0.00    +0.023 A 
ATOM     31  C   UNL     1      -1.440   2.164  -0.711  0.00  0.00    +0.004 A 
ATOM     32  C   UNL     1      -1.325   3.321   0.037  0.00  0.00    +0.033 A 
ATOM     33  C   UNL     1      -2.394   3.768   0.792  0.00  0.00    +0.128 A 
ATOM     34  C   UNL     1      -3.584   3.066   0.791  0.00  0.00    +0.056 A 
BRANCH  33  35
ATOM     35  N   UNL     1      -2.266   5.004   1.596  0.00  0.00    +0.056 N 
ATOM     36  O   UNL     1      -3.209   5.401   2.257  0.00  0.00    -0.126 OA
ATOM     37  O   UNL     1      -1.216   5.621   1.601  0.00  0.00    -0.126 OA
ENDBRANCH  33  35
ENDBRANCH  27  29
ENDBRANCH  24  25
ENDBRANCH  23  24
ENDBRANCH   5  23
TORSDOF 9
