REMARK  Name = ZINC28290776
REMARK  7 active torsions:
REMARK  status: ('A' for Active; 'I' for Inactive)
REMARK    1  A    between atoms: C_1  and  C_2
REMARK    2  A    between atoms: C_9  and  C_14
REMARK    3  A    between atoms: C_12  and  C_13
REMARK    4  A    between atoms: N_16  and  C_17
REMARK    5  A    between atoms: C_17  and  C_18
REMARK    6  A    between atoms: C_18  and  C_20
REMARK    7  A    between atoms: C_18  and  N_25
REMARK                            x       y       z     vdW  Elec       q    Type
REMARK                         _______ _______ _______ _____ _____    ______ ____
ROOT
ATOM      1  C   UNL     1       5.026  -2.193   0.561  0.00  0.00    +0.279 C 
ATOM      2  O   UNL     1       5.050  -3.399   0.707  0.00  0.00    -0.267 OA
ATOM      3  N   UNL     1       6.152  -1.533   0.225  0.00  0.00    -0.310 N 
ATOM      4  H   UNL     1       6.131  -0.441   0.093  0.00  0.00    +0.149 HD
ENDROOT
BRANCH   1  13
ATOM      5  C   UNL     1       1.670   4.284   0.504  0.00  0.00    +0.044 C 
ATOM      6  C   UNL     1       1.595   2.792   0.707  0.00  0.00    -0.044 A 
ATOM      7  C   UNL     1       0.385   2.207   1.053  0.00  0.00    +0.004 A 
ATOM      8  C   UNL     1       0.299   0.855   1.241  0.00  0.00    +0.015 A 
ATOM      9  C   UNL     1       1.436   0.063   1.084  0.00  0.00    +0.064 A 
ATOM     10  C   UNL     1       1.385  -1.399   1.278  0.00  0.00    +0.193 A 
ATOM     11  O   UNL     1       0.351  -1.967   1.582  0.00  0.00    -0.287 OA
ATOM     12  C   UNL     1       2.643  -2.137   1.089  0.00  0.00    +0.103 A 
ATOM     13  C   UNL     1       3.759  -1.448   0.751  0.00  0.00    +0.193 A 
ATOM     14  O   UNL     1       3.763  -0.117   0.583  0.00  0.00    -0.450 OA
ATOM     15  C   UNL     1       2.665   0.648   0.734  0.00  0.00    +0.143 A 
ATOM     16  C   UNL     1       2.729   2.026   0.547  0.00  0.00    -0.005 A 
ATOM     17  C   UNL     1       4.035   2.677   0.173  0.00  0.00    +0.048 C 
ENDBRANCH   1  13
BRANCH   3  18
ATOM     18  C   UNL     1       7.405  -2.269   0.037  0.00  0.00    +0.094 C 
BRANCH  18  19
ATOM     19  C   UNL     1       8.546  -1.280  -0.207  0.00  0.00    -0.013 C 
BRANCH  19  20
ATOM     20  N   UNL     1       8.195  -0.392  -1.323  0.00  0.00    +0.386 N 
ATOM     21  C   UNL     1       7.917  -1.163  -2.541  0.00  0.00    -0.078 C 
ATOM     22  C   UNL     1       7.415  -0.221  -3.638  0.00  0.00    -0.019 C 
ATOM     23  C   UNL     1       8.480   0.844  -3.917  0.00  0.00    -0.004 C 
ATOM     24  C   UNL     1       8.786   1.599  -2.621  0.00  0.00    -0.019 C 
ATOM     25  C   UNL     1       9.248   0.605  -1.553  0.00  0.00    -0.078 C 
ATOM     26  H   UNL     1       7.276   0.148  -1.050  0.00  0.00    -0.081 HD
ENDBRANCH  19  20
BRANCH  19  27
ATOM     27  C   UNL     1       8.774  -0.460   1.037  0.00  0.00    -0.022 A 
ATOM     28  C   UNL     1       9.719  -0.608   1.996  0.00  0.00    +0.009 A 
ATOM     29  C   UNL     1       9.739   0.274   3.061  0.00  0.00    +0.008 A 
ATOM     30  C   UNL     1       8.811   1.261   3.113  0.00  0.00    +0.045 A 
ATOM     31  S   UNL     1       7.872   0.966   1.623  0.00  0.00    -0.103 S 
ENDBRANCH  19  27
ENDBRANCH  18  19
ENDBRANCH   3  18
TORSDOF 5
