REMARK  Name = ZINC39488112
REMARK  8 active torsions:
REMARK  status: ('A' for Active; 'I' for Inactive)
REMARK    1  A    between atoms: C_1  and  C_2
REMARK    2  A    between atoms: C_2  and  C_29
REMARK    3  A    between atoms: N_7  and  C_8
REMARK    4  A    between atoms: C_8  and  C_9
REMARK    5  A    between atoms: C_9  and  C_22
REMARK    6  A    between atoms: N_12  and  C_15
REMARK    7  A    between atoms: C_15  and  C_16
REMARK    8  A    between atoms: C_34  and  O_35
REMARK                            x       y       z     vdW  Elec       q    Type
REMARK                         _______ _______ _______ _____ _____    ______ ____
ROOT
ATOM      1  C   UNL     1      -0.888  -1.431   2.642  0.00  0.00    -0.014 C 
ATOM      2  C   UNL     1      -0.228  -2.766   2.283  0.00  0.00    -0.010 C 
ATOM      3  C   UNL     1       0.080  -2.790   0.784  0.00  0.00    -0.078 C 
ATOM      4  N   UNL     1      -1.166  -2.637   0.023  0.00  0.00    +0.382 N 
ATOM      5  C   UNL     1      -1.767  -1.329   0.308  0.00  0.00    -0.078 C 
ATOM      6  C   UNL     1      -2.146  -1.249   1.788  0.00  0.00    -0.010 C 
ATOM      7  H   UNL     1      -1.811  -3.367   0.286  0.00  0.00    -0.081 HD
ENDROOT
BRANCH   1   8
ATOM      8  C   UNL     1      -1.271  -1.430   4.123  0.00  0.00    -0.003 C 
ATOM      9  C   UNL     1      -0.051  -1.812   4.965  0.00  0.00    +0.004 C 
ATOM     10  C   UNL     1      -0.434  -1.810   6.447  0.00  0.00    +0.000 C 
ATOM     11  C   UNL     1      -1.555  -2.824   6.685  0.00  0.00    +0.000 C 
ATOM     12  C   UNL     1      -2.774  -2.442   5.843  0.00  0.00    +0.000 C 
ATOM     13  C   UNL     1      -2.392  -2.443   4.362  0.00  0.00    +0.004 C 
ENDBRANCH   1   8
BRANCH   1  14
ATOM     14  C   UNL     1       0.089  -0.287   2.365  0.00  0.00    +0.117 C 
BRANCH  14  21
ATOM     15  C   UNL     1      -2.278   1.518   1.296  0.00  0.00    +0.039 C 
ATOM     16  C   UNL     1      -1.058   2.036   2.060  0.00  0.00    +0.082 C 
ATOM     17  C   UNL     1      -1.479   3.101   3.091  0.00  0.00    +0.159 C 
ATOM     18  N   UNL     1      -1.082   2.518   4.382  0.00  0.00    -0.196 N 
ATOM     19  C   UNL     1      -0.523   1.319   4.170  0.00  0.00    +0.320 C 
ATOM     20  O   UNL     1      -0.103   0.616   5.068  0.00  0.00    -0.251 OA
ATOM     21  N   UNL     1      -0.469   0.966   2.879  0.00  0.00    -0.273 N 
ATOM     22 CL   UNL     1      -1.299   3.254   5.910  0.00  0.00    +0.005 Cl
BRANCH  16  23
ATOM     23  C   UNL     1      -0.035   2.595   1.105  0.00  0.00    +0.019 A 
ATOM     24  C   UNL     1       1.261   2.117   1.123  0.00  0.00    +0.009 A 
ATOM     25  C   UNL     1       2.200   2.630   0.247  0.00  0.00    +0.001 A 
ATOM     26  C   UNL     1       1.845   3.622  -0.649  0.00  0.00    +0.004 A 
ATOM     27  C   UNL     1       0.550   4.103  -0.670  0.00  0.00    +0.046 A 
ATOM     28  C   UNL     1      -0.396   3.586   0.204  0.00  0.00    +0.122 A 
BRANCH  28  29
ATOM     29  O   UNL     1      -1.671   4.054   0.180  0.00  0.00    -0.506 OA
ATOM     30  H   UNL     1      -1.825   4.807   0.767  0.00  0.00    +0.292 HD
ENDBRANCH  28  29
ENDBRANCH  16  23
ENDBRANCH  14  21
ENDBRANCH   1  14
BRANCH   4  31
ATOM     31  C   UNL     1      -0.876  -2.739  -1.414  0.00  0.00    -0.043 C 
BRANCH  31  32
ATOM     32  C   UNL     1      -2.168  -2.734  -2.189  0.00  0.00    -0.064 A 
ATOM     33  C   UNL     1      -2.869  -3.911  -2.372  0.00  0.00    +0.002 A 
ATOM     34  C   UNL     1      -4.054  -3.906  -3.083  0.00  0.00    +0.000 A 
ATOM     35  C   UNL     1      -4.539  -2.724  -3.611  0.00  0.00    +0.000 A 
ATOM     36  C   UNL     1      -3.838  -1.547  -3.427  0.00  0.00    +0.000 A 
ATOM     37  C   UNL     1      -2.655  -1.551  -2.712  0.00  0.00    +0.002 A 
ENDBRANCH  31  32
ENDBRANCH   4  31
TORSDOF 7
