REMARK  Name = ZINC64031749
REMARK  12 active torsions:
REMARK  status: ('A' for Active; 'I' for Inactive)
REMARK    1  A    between atoms: C_1  and  C_2
REMARK    2  A    between atoms: C_10  and  C_12
REMARK    3  A    between atoms: N_14  and  C_15
REMARK    4  A    between atoms: C_18  and  C_33
REMARK    5  A    between atoms: N_20  and  C_22
REMARK    6  A    between atoms: C_22  and  C_23
REMARK    7  A    between atoms: C_25  and  O_31
REMARK    8  A    between atoms: C_27  and  O_29
REMARK    9  A    between atoms: O_29  and  C_30
REMARK   10  A    between atoms: O_31  and  C_32
REMARK   11  A    between atoms: C_33  and  O_35
REMARK   12  A    between atoms: O_35  and  C_36
REMARK                            x       y       z     vdW  Elec       q    Type
REMARK                         _______ _______ _______ _____ _____    ______ ____
ROOT
ATOM      1  C   UNL     1       2.521   0.620   3.667  0.00  0.00    +0.089 C 
ATOM      2  C   UNL     1       2.595   2.105   4.111  0.00  0.00    +0.054 C 
ATOM      3  C   UNL     1       3.450   2.004   5.399  0.00  0.00    +0.168 C 
ATOM      4  N   UNL     1       3.016   0.746   6.043  0.00  0.00    -0.284 NA
ATOM      5  C   UNL     1       2.454  -0.144   5.006  0.00  0.00    +0.107 C 
ENDROOT
BRANCH   1   8
ATOM      6  C   UNL     1       1.266  -0.670   2.024  0.00  0.00    +0.240 C 
ATOM      7  O   UNL     1       2.221  -1.410   1.919  0.00  0.00    -0.273 OA
ATOM      8  N   UNL     1       1.315   0.377   2.872  0.00  0.00    -0.309 N 
ATOM      9  H   UNL     1       0.551   0.969   2.955  0.00  0.00    +0.149 HD
BRANCH   6  19
ATOM     10  C   UNL     1      -0.018   1.503   0.010  0.00  0.00    +0.042 C 
ATOM     11  C   UNL     1       0.002  -0.004   0.002  0.00  0.00    -0.033 C 
ATOM     12  C   UNL     1       0.009  -0.811  -1.083  0.00  0.00    +0.001 A 
ATOM     13  C   UNL     1      -0.002  -0.538  -2.525  0.00  0.00    +0.030 A 
ATOM     14  C   UNL     1       0.009  -1.579  -3.390  0.00  0.00    +0.042 A 
ATOM     15  C   UNL     1       0.028  -2.909  -2.944  0.00  0.00    +0.022 A 
ATOM     16  C   UNL     1       0.038  -3.238  -1.635  0.00  0.00    +0.027 A 
ATOM     17  C   UNL     1       0.030  -2.223  -0.638  0.00  0.00    +0.043 A 
ATOM     18  N   UNL     1       0.036  -2.286   0.671  0.00  0.00    -0.370 N 
ATOM     19  C   UNL     1       0.026  -0.920   1.206  0.00  0.00    +0.193 C 
ATOM     20 CL   UNL     1      -0.004  -1.260  -5.097  0.00  0.00    -0.084 Cl
ATOM     21  H   UNL     1       0.049  -3.100   1.199  0.00  0.00    +0.161 HD
ENDBRANCH   6  19
ENDBRANCH   1   8
BRANCH   3  22
ATOM     22  C   UNL     1       3.179   3.179   6.302  0.00  0.00    +0.324 C 
ATOM     23  O   UNL     1       2.724   3.000   7.407  0.00  0.00    -0.249 OA
BRANCH  22  24
ATOM     24  O   UNL     1       3.442   4.426   5.879  0.00  0.00    -0.467 OA
ATOM     25  C   UNL     1       3.160   5.492   6.788  0.00  0.00    +0.280 C 
ENDBRANCH  22  24
ENDBRANCH   3  22
BRANCH   4  26
ATOM     26  C   UNL     1       4.136   0.097   6.738  0.00  0.00    +0.120 C 
BRANCH  26  27
ATOM     27  C   UNL     1       3.614  -1.038   7.580  0.00  0.00    -0.026 A 
ATOM     28  C   UNL     1       3.230  -0.808   8.887  0.00  0.00    +0.050 A 
ATOM     29  C   UNL     1       2.749  -1.852   9.665  0.00  0.00    +0.124 A 
ATOM     30  C   UNL     1       2.654  -3.127   9.129  0.00  0.00    +0.091 A 
ATOM     31  C   UNL     1       3.040  -3.356   7.817  0.00  0.00    +0.124 A 
ATOM     32  C   UNL     1       3.515  -2.307   7.042  0.00  0.00    +0.050 A 
BRANCH  31  33
ATOM     33  O   UNL     1       2.948  -4.605   7.289  0.00  0.00    -0.495 OA
ATOM     34  C   UNL     1       2.445  -5.635   8.143  0.00  0.00    +0.277 C 
ENDBRANCH  31  33
BRANCH  29  35
ATOM     35  O   UNL     1       2.372  -1.625  10.951  0.00  0.00    -0.495 OA
ATOM     36  C   UNL     1       1.886  -2.746  11.692  0.00  0.00    +0.277 C 
ENDBRANCH  29  35
ENDBRANCH  26  27
ENDBRANCH   4  26
TORSDOF 8
