REMARK  Name = ZINC39469612
REMARK  5 active torsions:
REMARK  status: ('A' for Active; 'I' for Inactive)
REMARK    1  A    between atoms: C_4  and  C_7
REMARK    2  A    between atoms: C_7  and  C_8
REMARK    3  A    between atoms: P_17  and  S_27
REMARK    4  A    between atoms: S_27  and  O_30
REMARK    5  A    between atoms: O_30  and  C_31
REMARK                            x       y       z     vdW  Elec       q    Type
REMARK                         _______ _______ _______ _____ _____    ______ ____
ROOT
ATOM      1  C   UNL     1       4.164  -0.959   1.377  0.00  0.00    -0.012 C 
ATOM      2  C   UNL     1       3.893  -2.119   1.968  0.00  0.00    -0.016 C 
ATOM      3  C   UNL     1       4.362  -2.364   3.382  0.00  0.00    +0.016 C 
ATOM      4  C   UNL     1       3.378  -1.702   4.348  0.00  0.00    -0.003 C 
ATOM      5  C   UNL     1       3.884  -1.812   5.791  0.00  0.00    -0.020 C 
ATOM      6  C   UNL     1       2.846  -1.125   6.687  0.00  0.00    +0.158 C 
ATOM      7  O   UNL     1       3.244  -1.244   8.064  0.00  0.00    -0.301 OA
ATOM      8  P   UNL     1       4.766  -0.815   8.450  0.00  0.00    +0.431 P 
ATOM      9  O   UNL     1       5.182  -1.475   9.707  0.00  0.00    -0.246 OA
ATOM     10  N   UNL     1       5.695  -1.343   7.192  0.00  0.00    -0.271 NA
ATOM     11  N   UNL     1       5.198  -1.177   5.916  0.00  0.00    +0.398 N 
ATOM     12  C   UNL     1       6.168  -1.827   5.020  0.00  0.00    -0.046 C 
ATOM     13  C   UNL     1       5.745  -1.732   3.559  0.00  0.00    +0.007 C 
ATOM     14  C   UNL     1       5.693  -0.287   3.140  0.00  0.00    +0.014 C 
ATOM     15  C   UNL     1       4.916   0.077   2.109  0.00  0.00    +0.123 C 
ATOM     16  F   UNL     1       4.839   1.371   1.729  0.00  0.00    -0.206 F 
ATOM     17  H   UNL     1       6.561  -1.752   7.346  0.00  0.00    +0.113 HD
ATOM     18  H   UNL     1       5.123  -0.194   5.701  0.00  0.00    -0.055 HD
ENDROOT
BRANCH   8  19
ATOM     19  S   UNL     1       4.910   1.291   8.644  0.00  0.00    +0.209 S 
ATOM     20  O   UNL     1       6.221   1.566   9.119  0.00  0.00    -0.126 OA
ATOM     21  O   UNL     1       4.405   1.845   7.437  0.00  0.00    -0.126 OA
BRANCH  19  22
ATOM     22  O   UNL     1       3.950   1.708   9.749  0.00  0.00    -0.339 OA
BRANCH  22  23
ATOM     23  C   UNL     1       4.391   1.418  11.002  0.00  0.00    +0.157 A 
ATOM     24  C   UNL     1       4.085   0.194  11.580  0.00  0.00    +0.048 A 
ATOM     25  C   UNL     1       4.534  -0.099  12.853  0.00  0.00    +0.004 A 
ATOM     26  C   UNL     1       5.287   0.827  13.551  0.00  0.00    +0.000 A 
ATOM     27  C   UNL     1       5.593   2.048  12.978  0.00  0.00    +0.004 A 
ATOM     28  C   UNL     1       5.151   2.343  11.703  0.00  0.00    +0.048 A 
ENDBRANCH  22  23
ENDBRANCH  19  22
ENDBRANCH   8  19
BRANCH   1  29
ATOM     29  C   UNL     1       3.711  -0.707  -0.038  0.00  0.00    +0.072 C 
BRANCH  29  33
ATOM     30  C   UNL     1      -0.017   1.378   0.010  0.00  0.00    +0.000 A 
ATOM     31  C   UNL     1       1.171   2.086   0.002  0.00  0.00    +0.000 A 
ATOM     32  C   UNL     1       2.377   1.411  -0.013  0.00  0.00    +0.004 A 
ATOM     33  C   UNL     1       2.396   0.029  -0.020  0.00  0.00    -0.043 A 
ATOM     34  C   UNL     1       1.208  -0.679  -0.012  0.00  0.00    +0.004 A 
ATOM     35  C   UNL     1       0.002  -0.004   0.002  0.00  0.00    +0.000 A 
ENDBRANCH  29  33
ENDBRANCH   1  29
TORSDOF 5
