REMARK  Name = ZINC36704473
REMARK  10 active torsions:
REMARK  status: ('A' for Active; 'I' for Inactive)
REMARK    1  A    between atoms: C_1  and  C_2
REMARK    2  A    between atoms: C_2  and  C_3
REMARK    3  A    between atoms: N_12  and  C_13
REMARK    4  A    between atoms: C_13  and  C_14
REMARK    5  A    between atoms: C_14  and  N_15
REMARK    6  A    between atoms: N_15  and  C_16
REMARK    7  A    between atoms: N_15  and  C_17
REMARK    8  A    between atoms: C_18  and  C_20
REMARK    9  A    between atoms: N_25  and  S_26
REMARK   10  A    between atoms: S_26  and  C_29
REMARK                            x       y       z     vdW  Elec       q    Type
REMARK                         _______ _______ _______ _____ _____    ______ ____
ROOT
ATOM      1  C   UNL     1       0.171  -0.767  -0.810  0.00  0.00    -0.021 A 
ATOM      2  C   UNL     1      -0.689  -1.244  -1.765  0.00  0.00    +0.006 A 
ATOM      3  C   UNL     1      -0.223  -1.773  -2.960  0.00  0.00    +0.001 A 
ATOM      4  C   UNL     1       1.139  -1.821  -3.194  0.00  0.00    +0.017 A 
ATOM      5  C   UNL     1       2.007  -1.345  -2.243  0.00  0.00    +0.041 A 
ATOM      6  C   UNL     1       1.569  -0.794  -1.017  0.00  0.00    +0.083 A 
ATOM      7  N   UNL     1       2.544  -0.364  -0.188  0.00  0.00    -0.224 NA
ATOM      8  C   UNL     1       3.817  -0.444  -0.494  0.00  0.00    +0.168 A 
ATOM      9  S   UNL     1       3.773  -1.206  -2.110  0.00  0.00    -0.052 S 
ATOM     10  N   UNL     1       4.917  -0.047   0.250  0.00  0.00    -0.251 N 
ATOM     11  C   UNL     1       4.751   0.404   1.509  0.00  0.00    +0.240 C 
ATOM     12  O   UNL     1       5.698   0.848   2.123  0.00  0.00    -0.273 OA
ENDROOT
BRANCH  11  13
ATOM     13  C   UNL     1       3.390   0.358   2.153  0.00  0.00    +0.166 C 
ATOM     14  C   UNL     1       2.507   1.495   1.598  0.00  0.00    +0.031 C 
ATOM     15  C   UNL     1       1.718   1.965   2.849  0.00  0.00    +0.019 C 
ATOM     16  C   UNL     1       2.777   1.793   3.967  0.00  0.00    +0.110 C 
ATOM     17  N   UNL     1       3.515   0.566   3.603  0.00  0.00    -0.164 NA
BRANCH  17  18
ATOM     18  S   UNL     1       4.346  -0.412   4.650  0.00  0.00    +0.068 S 
ATOM     19  O   UNL     1       3.713  -0.282   5.916  0.00  0.00    -0.152 OA
ATOM     20  O   UNL     1       4.497  -1.667   4.000  0.00  0.00    -0.152 OA
BRANCH  18  21
ATOM     21  C   UNL     1       5.963   0.264   4.823  0.00  0.00    +0.144 A 
ATOM     22  C   UNL     1       6.385   1.274   5.621  0.00  0.00    +0.038 A 
ATOM     23  C   UNL     1       7.718   1.641   5.592  0.00  0.00    +0.030 A 
ATOM     24  C   UNL     1       8.564   0.978   4.764  0.00  0.00    +0.080 A 
ATOM     25  S   UNL     1       7.474  -0.210   3.998  0.00  0.00    -0.057 S 
ATOM     26 CL   UNL     1      10.265   1.218   4.520  0.00  0.00    -0.076 Cl
ENDBRANCH  18  21
ENDBRANCH  17  18
ENDBRANCH  11  13
BRANCH   1  28
ATOM     27  C   UNL     1      -0.624   1.300   0.306  0.00  0.00    +0.009 C 
ATOM     28  C   UNL     1      -0.382  -0.201   0.473  0.00  0.00    +0.034 C 
ENDBRANCH   1  28
BRANCH  10  29
ATOM     29  C   UNL     1       6.259  -0.117  -0.333  0.00  0.00    +0.097 C 
BRANCH  29  30
ATOM     30  C   UNL     1       6.538   1.159  -1.129  0.00  0.00    -0.060 C 
BRANCH  30  31
ATOM     31  N   UNL     1       7.884   1.088  -1.713  0.00  0.00    +0.377 N 
ATOM     32  C   UNL     1       8.106   2.257  -2.574  0.00  0.00    -0.097 C 
ATOM     33  C   UNL     1       8.884   1.075  -0.637  0.00  0.00    -0.097 C 
ATOM     34  H   UNL     1       7.969   0.245  -2.261  0.00  0.00    -0.083 HD
ENDBRANCH  30  31
ENDBRANCH  29  30
ENDBRANCH  10  29
TORSDOF 7
