REMARK  Name = ZINC05043237
REMARK  7 active torsions:
REMARK  status: ('A' for Active; 'I' for Inactive)
REMARK    1  A    between atoms: C_1  and  C_2
REMARK    2  A    between atoms: C_3  and  C_14
REMARK    3  A    between atoms: C_5  and  C_7
REMARK    4  A    between atoms: C_14  and  N_62
REMARK    5  A    between atoms: C_17  and  C_20
REMARK    6  A    between atoms: N_22  and  C_23
REMARK    7  A    between atoms: C_26  and  C_29
REMARK                            x       y       z     vdW  Elec       q    Type
REMARK                         _______ _______ _______ _____ _____    ______ ____
ROOT
ATOM      1  C   UNL     1      -0.474   2.863   2.219  0.00  0.00    -0.078 C 
ATOM      2  C   UNL     1      -0.894   3.000   3.685  0.00  0.00    -0.006 C 
ATOM      3  C   UNL     1      -1.987   4.066   3.799  0.00  0.00    +0.071 C 
ATOM      4  C   UNL     1      -3.168   3.672   2.908  0.00  0.00    -0.006 C 
ATOM      5  C   UNL     1      -2.683   3.515   1.465  0.00  0.00    -0.078 C 
ATOM      6  N   UNL     1      -1.650   2.458   1.419  0.00  0.00    +0.383 N 
ATOM      7  H   UNL     1      -2.040   1.594   1.813  0.00  0.00    -0.081 HD
ENDROOT
BRANCH   3   8
ATOM      8  C   UNL     1      -2.447   4.165   5.231  0.00  0.00    +0.216 C 
ATOM      9  O   UNL     1      -3.606   3.943   5.512  0.00  0.00    -0.276 OA
ATOM     10  N   UNL     1      -1.571   4.501   6.199  0.00  0.00    -0.312 N 
ATOM     11  H   UNL     1      -0.645   4.679   5.974  0.00  0.00    +0.149 HD
BRANCH  10  12
ATOM     12  C   UNL     1      -2.019   4.597   7.590  0.00  0.00    +0.073 C 
ATOM     13  C   UNL     1      -2.605   5.988   7.842  0.00  0.00    +0.022 C 
ATOM     14  C   UNL     1      -1.535   7.048   7.576  0.00  0.00    +0.005 C 
ATOM     15  C   UNL     1      -0.346   6.819   8.511  0.00  0.00    -0.014 C 
ATOM     16  C   UNL     1       0.240   5.429   8.259  0.00  0.00    +0.005 C 
ATOM     17  C   UNL     1      -0.830   4.368   8.525  0.00  0.00    +0.022 C 
ATOM     18  C   UNL     1       0.724   7.880   8.245  0.00  0.00    +0.007 C 
ENDBRANCH  10  12
ENDBRANCH   3   8
BRANCH   6  19
ATOM     19  C   UNL     1      -1.246   2.208   0.020  0.00  0.00    -0.019 C 
BRANCH  19  22
ATOM     20  C   UNL     1       1.718   3.202   0.002  0.00  0.00    +0.088 C 
ATOM     21  C   UNL     1       1.259   1.767  -0.001  0.00  0.00    +0.124 A 
ATOM     22  C   UNL     1      -0.016   1.337   0.009  0.00  0.00    +0.066 A 
ATOM     23  N   UNL     1       0.002  -0.004   0.002  0.00  0.00    -0.216 NA
ATOM     24  C   UNL     1       1.251  -0.407  -0.012  0.00  0.00    +0.228 A 
ATOM     25  O   UNL     1       2.049   0.675  -0.014  0.00  0.00    -0.440 OA
BRANCH  24  26
ATOM     26  C   UNL     1       1.704  -1.813  -0.023  0.00  0.00    +0.037 A 
ATOM     27  C   UNL     1       0.770  -2.851  -0.013  0.00  0.00    +0.014 A 
ATOM     28  C   UNL     1       1.199  -4.161  -0.030  0.00  0.00    +0.021 A 
ATOM     29  C   UNL     1       2.554  -4.449  -0.044  0.00  0.00    +0.041 A 
ATOM     30  C   UNL     1       3.485  -3.425  -0.048  0.00  0.00    +0.021 A 
ATOM     31  C   UNL     1       3.068  -2.110  -0.038  0.00  0.00    +0.014 A 
ATOM     32 CL   UNL     1       3.086  -6.102  -0.058  0.00  0.00    -0.084 Cl
ENDBRANCH  24  26
ENDBRANCH  19  22
ENDBRANCH   6  19
TORSDOF 5
