REMARK  Name = ZINC36534282
REMARK  12 active torsions:
REMARK  status: ('A' for Active; 'I' for Inactive)
REMARK    1  A    between atoms: C_1  and  C_2
REMARK    2  A    between atoms: C_5  and  S_8
REMARK    3  A    between atoms: S_8  and  C_11
REMARK    4  A    between atoms: C_11  and  N_12
REMARK    5  A    between atoms: C_13  and  C_15
REMARK    6  A    between atoms: C_15  and  C_17
REMARK    7  A    between atoms: C_15  and  N_25
REMARK    8  A    between atoms: C_20  and  C_24
REMARK    9  A    between atoms: C_22  and  C_23
REMARK   10  A    between atoms: N_25  and  C_26
REMARK   11  A    between atoms: C_27  and  C_29
REMARK   12  A    between atoms: C_29  and  C_30
REMARK                            x       y       z     vdW  Elec       q    Type
REMARK                         _______ _______ _______ _____ _____    ______ ____
ROOT
ATOM      1  C   UNL     1       3.297  -5.356   3.543  0.00  0.00    +0.192 C 
ENDROOT
BRANCH   1   2
ATOM      2  C   UNL     1       4.601  -4.925   2.923  0.00  0.00    -0.015 A 
ATOM      3  C   UNL     1       4.860  -5.205   1.594  0.00  0.00    +0.006 A 
ATOM      4  C   UNL     1       6.056  -4.810   1.025  0.00  0.00    +0.004 A 
ATOM      5  C   UNL     1       6.993  -4.134   1.784  0.00  0.00    -0.050 A 
ATOM      6  C   UNL     1       6.733  -3.852   3.112  0.00  0.00    +0.007 A 
ATOM      7  C   UNL     1       5.535  -4.244   3.680  0.00  0.00    -0.045 A 
ATOM      8  C   UNL     1       5.250  -3.932   5.127  0.00  0.00    +0.044 C 
ATOM      9  C   UNL     1       8.297  -3.704   1.164  0.00  0.00    +0.044 C 
ENDBRANCH   1   2
BRANCH   1  11
ATOM     10  N   UNL     1       1.722  -4.722   1.745  0.00  0.00    -0.294 N 
ATOM     11  C   UNL     1       2.313  -5.702   2.456  0.00  0.00    +0.239 C 
ATOM     12  O   UNL     1       2.054  -6.864   2.220  0.00  0.00    -0.273 OA
ATOM     13  H   UNL     1       1.875  -3.793   1.978  0.00  0.00    +0.150 HD
BRANCH  10  14
ATOM     14  C   UNL     1       0.847  -5.060   0.619  0.00  0.00    +0.278 C 
BRANCH  14  15
ATOM     15  S   UNL     1      -0.877  -5.098   1.183  0.00  0.00    +0.013 S 
ATOM     16  O   UNL     1      -0.982  -5.846   2.387  0.00  0.00    -0.168 OA
ATOM     17  O   UNL     1      -1.744  -5.362   0.089  0.00  0.00    -0.168 OA
BRANCH  15  22
ATOM     18  C   UNL     1      -2.113   0.585   2.789  0.00  0.00    +0.044 C 
ATOM     19  C   UNL     1      -1.804  -0.834   2.388  0.00  0.00    -0.050 A 
ATOM     20  C   UNL     1      -2.031  -1.250   1.089  0.00  0.00    +0.005 A 
ATOM     21  C   UNL     1      -1.748  -2.553   0.722  0.00  0.00    +0.027 A 
ATOM     22  C   UNL     1      -1.237  -3.438   1.652  0.00  0.00    +0.090 A 
ATOM     23  C   UNL     1      -1.009  -3.022   2.950  0.00  0.00    +0.027 A 
ATOM     24  C   UNL     1      -1.288  -1.718   3.317  0.00  0.00    +0.005 A 
ENDBRANCH  15  22
ENDBRANCH  14  15
ENDBRANCH  10  14
ENDBRANCH   1  11
BRANCH   1  25
ATOM     25  N   UNL     1       3.523  -6.530   4.390  0.00  0.00    -0.289 N 
ATOM     26  C   UNL     1       4.159  -7.725   3.829  0.00  0.00    +0.133 C 
ATOM     27  C   UNL     1       3.147  -6.511   5.684  0.00  0.00    +0.221 C 
ATOM     28  O   UNL     1       2.621  -5.521   6.148  0.00  0.00    -0.275 OA
BRANCH  27  29
ATOM     29  C   UNL     1       3.380  -7.719   6.554  0.00  0.00    +0.131 C 
BRANCH  29  30
ATOM     30  C   UNL     1       2.873  -7.441   7.946  0.00  0.00    -0.035 A 
ATOM     31  C   UNL     1       3.716  -6.880   8.887  0.00  0.00    +0.008 A 
ATOM     32  C   UNL     1       3.255  -6.622  10.165  0.00  0.00    +0.050 A 
ATOM     33  C   UNL     1       1.947  -6.926  10.505  0.00  0.00    +0.166 A 
ATOM     34  C   UNL     1       1.098  -7.492   9.556  0.00  0.00    +0.166 A 
ATOM     35  C   UNL     1       1.565  -7.742   8.276  0.00  0.00    +0.053 A 
ATOM     36  O   UNL     1      -0.124  -7.696  10.130  0.00  0.00    -0.453 OA
ATOM     37  C   UNL     1       0.103  -7.629  11.550  0.00  0.00    +0.466 C 
ATOM     38  O   UNL     1       1.257  -6.776  11.673  0.00  0.00    -0.453 OA
ENDBRANCH  29  30
ENDBRANCH  27  29
ENDBRANCH   1  25
TORSDOF 8
