REMARK  Name = ZINC20877597
REMARK  6 active torsions:
REMARK  status: ('A' for Active; 'I' for Inactive)
REMARK    1  A    between atoms: C_1  and  C_2
REMARK    2  A    between atoms: C_9  and  C_25
REMARK    3  A    between atoms: C_10  and  C_11
REMARK    4  A    between atoms: C_11  and  N_12
REMARK    5  A    between atoms: N_12  and  C_13
REMARK    6  A    between atoms: C_13  and  C_14
REMARK                            x       y       z     vdW  Elec       q    Type
REMARK                         _______ _______ _______ _____ _____    ______ ____
ROOT
ATOM      1  C   UNL     1       3.618   2.111   0.766  0.00  0.00    +0.047 C 
ATOM      2  C   UNL     1       2.348   1.363   0.454  0.00  0.00    -0.008 A 
ATOM      3  C   UNL     1       2.359   0.008   0.343  0.00  0.00    +0.008 A 
ATOM      4  C   UNL     1       1.167  -0.677   0.051  0.00  0.00    +0.018 A 
ATOM      5  C   UNL     1       0.015   0.002  -0.120  0.00  0.00    +0.093 A 
ATOM      6  N   UNL     1      -0.013   1.364  -0.012  0.00  0.00    -0.301 N 
ATOM      7  C   UNL     1       1.134   2.061   0.273  0.00  0.00    +0.142 A 
ATOM      8  N   UNL     1       0.838   3.349   0.322  0.00  0.00    -0.223 NA
ATOM      9  C   UNL     1      -0.476   3.507   0.075  0.00  0.00    +0.149 A 
ATOM     10  C   UNL     1      -1.020   2.273  -0.140  0.00  0.00    +0.069 A 
ENDROOT
BRANCH   9  11
ATOM     11  C   UNL     1      -1.202   4.791   0.040  0.00  0.00    +0.267 C 
ATOM     12  O   UNL     1      -2.412   4.803  -0.081  0.00  0.00    -0.268 OA
ATOM     13  N   UNL     1      -0.524   5.952   0.141  0.00  0.00    -0.296 N 
ATOM     14  C   UNL     1       0.945   5.963   0.135  0.00  0.00    +0.108 C 
ATOM     15  C   UNL     1       1.421   6.933  -0.958  0.00  0.00    +0.019 C 
ATOM     16  C   UNL     1       0.783   8.305  -0.727  0.00  0.00    +0.003 C 
ATOM     17  C   UNL     1      -0.740   8.184  -0.822  0.00  0.00    +0.019 C 
ATOM     18  C   UNL     1      -1.240   7.229   0.267  0.00  0.00    +0.108 C 
ENDBRANCH   9  11
BRANCH  10  19
ATOM     19  C   UNL     1      -2.462   1.973  -0.459  0.00  0.00    +0.137 C 
BRANCH  19  20
ATOM     20  N   UNL     1      -3.205   1.762   0.790  0.00  0.00    -0.308 NA
ATOM     21  H   UNL     1      -2.768   0.915   1.339  0.00  0.00    +0.122 HD
BRANCH  20  22
ATOM     22  C   UNL     1      -4.619   1.467   0.518  0.00  0.00    +0.117 C 
BRANCH  22  23
ATOM     23  C   UNL     1      -5.359   1.254   1.840  0.00  0.00    +0.162 C 
ATOM     24  C   UNL     1      -6.771   0.812   1.556  0.00  0.00    -0.014 A 
ATOM     25  C   UNL     1      -6.984  -0.149   0.579  0.00  0.00    +0.006 A 
ATOM     26  C   UNL     1      -8.264  -0.580   0.295  0.00  0.00    +0.000 A 
ATOM     27  C   UNL     1      -9.339  -0.052   0.986  0.00  0.00    +0.000 A 
ATOM     28  C   UNL     1      -9.128   0.906   1.957  0.00  0.00    +0.004 A 
ATOM     29  C   UNL     1      -7.843   1.340   2.243  0.00  0.00    -0.040 A 
ATOM     30  C   UNL     1      -7.653   2.390   3.308  0.00  0.00    +0.063 C 
ATOM     31  C   UNL     1      -6.189   2.418   3.750  0.00  0.00    +0.165 C 
ATOM     32  O   UNL     1      -5.362   2.473   2.582  0.00  0.00    -0.370 OA
ENDBRANCH  22  23
ENDBRANCH  20  22
ENDBRANCH  19  20
ENDBRANCH  10  19
TORSDOF 5
