REMARK  Name = ZINC41584205
REMARK  15 active torsions:
REMARK  status: ('A' for Active; 'I' for Inactive)
REMARK    1  A    between atoms: C_1  and  C_2
REMARK    2  A    between atoms: C_2  and  C_3
REMARK    3  A    between atoms: C_3  and  C_4
REMARK    4  A    between atoms: C_4  and  N_5
REMARK    5  A    between atoms: N_5  and  C_6
REMARK    6  A    between atoms: N_5  and  C_10
REMARK    7  A    between atoms: C_6  and  C_7
REMARK    8  A    between atoms: C_7  and  C_8
REMARK    9  A    between atoms: C_8  and  C_9
REMARK   10  A    between atoms: C_10  and  C_11
REMARK   11  A    between atoms: C_12  and  O_31
REMARK   12  A    between atoms: C_19  and  C_20
REMARK   13  A    between atoms: C_23  and  C_26
REMARK   14  A    between atoms: C_26  and  C_27
REMARK   15  A    between atoms: C_26  and  C_28
REMARK                            x       y       z     vdW  Elec       q    Type
REMARK                         _______ _______ _______ _____ _____    ______ ____
ROOT
ATOM      1  C   UNL     1      -0.635  -4.505  -2.832  0.00  0.00    +0.020 A 
ATOM      2  C   UNL     1      -1.345  -4.939  -1.723  0.00  0.00    +0.122 A 
ATOM      3  C   UNL     1      -2.682  -5.310  -1.839  0.00  0.00    +0.046 A 
ATOM      4  C   UNL     1      -3.308  -5.248  -3.052  0.00  0.00    +0.019 A 
ATOM      5  C   UNL     1      -2.606  -4.813  -4.176  0.00  0.00    +0.068 A 
ATOM      6  C   UNL     1      -1.259  -4.431  -4.071  0.00  0.00    +0.144 A 
ATOM      7  O   UNL     1      -0.799  -4.043  -5.280  0.00  0.00    -0.451 OA
ATOM      8  C   UNL     1      -1.756  -4.127  -6.234  0.00  0.00    +0.176 C 
ATOM      9  C   UNL     1      -1.611  -3.812  -7.544  0.00  0.00    +0.058 C 
ATOM     10  C   UNL     1      -2.979  -4.636  -5.591  0.00  0.00    +0.231 C 
ATOM     11  O   UNL     1      -4.060  -4.850  -6.110  0.00  0.00    -0.283 OA
ENDROOT
BRANCH   9  12
ATOM     12  C   UNL     1      -2.785  -3.786  -8.428  0.00  0.00    -0.021 A 
ATOM     13  C   UNL     1      -4.004  -3.279  -7.964  0.00  0.00    +0.008 A 
ATOM     14  C   UNL     1      -5.101  -3.258  -8.799  0.00  0.00    +0.004 A 
ATOM     15  C   UNL     1      -4.998  -3.737 -10.094  0.00  0.00    -0.045 A 
ATOM     16  C   UNL     1      -3.796  -4.240 -10.561  0.00  0.00    +0.004 A 
ATOM     17  C   UNL     1      -2.688  -4.262  -9.741  0.00  0.00    +0.008 A 
BRANCH  15  18
ATOM     18  C   UNL     1      -6.202  -3.710 -11.000  0.00  0.00    +0.013 C 
ATOM     19  C   UNL     1      -5.895  -2.856 -12.231  0.00  0.00    +0.012 C 
ATOM     20  C   UNL     1      -6.541  -5.136 -11.440  0.00  0.00    +0.012 C 
ENDBRANCH  15  18
ENDBRANCH   9  12
BRANCH   2  21
ATOM     21  O   UNL     1      -0.731  -5.003  -0.514  0.00  0.00    -0.506 OA
ATOM     22  H   UNL     1      -0.799  -4.190   0.005  0.00  0.00    +0.292 HD
ENDBRANCH   2  21
BRANCH   1  23
ATOM     23  C   UNL     1       0.811  -4.107  -2.691  0.00  0.00    -0.036 C 
BRANCH  23  24
ATOM     24  N   UNL     1       0.897  -2.675  -2.375  0.00  0.00    +0.383 N 
ATOM     25  H   UNL     1       0.400  -2.145  -3.075  0.00  0.00    -0.081 HD
BRANCH  24  26
ATOM     26  C   UNL     1       0.297  -2.428  -1.057  0.00  0.00    -0.078 C 
BRANCH  26  27
ATOM     27  C   UNL     1       0.287  -0.924  -0.774  0.00  0.00    -0.019 C 
BRANCH  27  29
ATOM     28  C   UNL     1      -0.467   0.848   0.817  0.00  0.00    +0.004 C 
ATOM     29  C   UNL     1      -0.458  -0.656   0.534  0.00  0.00    -0.005 C 
ENDBRANCH  27  29
ENDBRANCH  26  27
ENDBRANCH  24  26
BRANCH  24  30
ATOM     30  C   UNL     1       2.306  -2.261  -2.356  0.00  0.00    -0.078 C 
BRANCH  30  31
ATOM     31  C   UNL     1       2.892  -2.380  -3.765  0.00  0.00    -0.019 C 
BRANCH  31  32
ATOM     32  C   UNL     1       4.317  -1.823  -3.773  0.00  0.00    -0.005 C 
ATOM     33  C   UNL     1       4.902  -1.942  -5.182  0.00  0.00    +0.004 C 
ENDBRANCH  31  32
ENDBRANCH  30  31
ENDBRANCH  24  30
ENDBRANCH  23  24
ENDBRANCH   1  23
TORSDOF 11
