REMARK  Name = ZINC49513106
REMARK  8 active torsions:
REMARK  status: ('A' for Active; 'I' for Inactive)
REMARK    1  A    between atoms: C_1  and  N_2
REMARK    2  A    between atoms: C_6  and  C_7
REMARK    3  A    between atoms: C_7  and  C_9
REMARK    4  A    between atoms: C_7  and  N_22
REMARK    5  A    between atoms: C_9  and  N_10
REMARK    6  A    between atoms: C_11  and  C_13
REMARK    7  A    between atoms: N_15  and  C_16
REMARK    8  A    between atoms: C_16  and  C_17
REMARK                            x       y       z     vdW  Elec       q    Type
REMARK                         _______ _______ _______ _____ _____    ______ ____
ROOT
ATOM      1  C   UNL     1       0.251  -0.332   2.528  0.00  0.00    +0.121 C 
ENDROOT
BRANCH   1   2
ATOM      2  N   UNL     1       0.379  -1.415   3.512  0.00  0.00    -0.288 NA
ATOM      3  C   UNL     1      -0.110  -0.988   4.832  0.00  0.00    +0.090 C 
ATOM      4  C   UNL     1      -0.298  -2.230   5.705  0.00  0.00    +0.051 C 
ATOM      5  C   UNL     1       0.947  -3.077   5.668  0.00  0.00    -0.042 A 
ATOM      6  C   UNL     1       1.121  -4.041   6.651  0.00  0.00    +0.004 A 
ATOM      7  C   UNL     1       2.245  -4.841   6.652  0.00  0.00    +0.000 A 
ATOM      8  C   UNL     1       3.204  -4.682   5.668  0.00  0.00    +0.000 A 
ATOM      9  C   UNL     1       3.033  -3.723   4.691  0.00  0.00    +0.005 A 
ATOM     10  C   UNL     1       1.904  -2.916   4.690  0.00  0.00    -0.030 A 
ATOM     11  C   UNL     1       1.768  -1.875   3.609  0.00  0.00    +0.120 C 
ENDBRANCH   1   2
BRANCH   1  17
ATOM     12  C   UNL     1       0.335   1.293  -0.111  0.00  0.00    +0.148 C 
ATOM     13  N   UNL     1       0.493  -0.160  -0.012  0.00  0.00    -0.352 N 
ATOM     14  C   UNL     1       0.706  -1.009  -1.057  0.00  0.00    +0.085 A 
ATOM     15  C   UNL     1       0.798  -2.263  -0.570  0.00  0.00    +0.019 A 
ATOM     16  C   UNL     1       0.637  -2.185   0.828  0.00  0.00    +0.024 A 
ATOM     17  C   UNL     1       0.458  -0.886   1.141  0.00  0.00    +0.037 A 
ENDBRANCH   1  17
BRANCH   1  18
ATOM     18  C   UNL     1      -1.146   0.285   2.627  0.00  0.00    +0.129 C 
BRANCH  18  19
ATOM     19  N   UNL     1      -2.155  -0.767   2.478  0.00  0.00    -0.306 N 
ATOM     20  C   UNL     1      -3.463  -0.444   2.433  0.00  0.00    +0.299 C 
ATOM     21  O   UNL     1      -3.804   0.718   2.514  0.00  0.00    -0.265 OA
ATOM     22  H   UNL     1      -1.883  -1.695   2.413  0.00  0.00    +0.149 HD
BRANCH  20  23
ATOM     23  C   UNL     1      -4.493  -1.516   2.281  0.00  0.00    +0.299 C 
ATOM     24  O   UNL     1      -4.152  -2.678   2.200  0.00  0.00    -0.265 OA
ATOM     25  N   UNL     1      -5.801  -1.193   2.235  0.00  0.00    -0.303 N 
ATOM     26  H   UNL     1      -6.073  -0.264   2.300  0.00  0.00    +0.149 HD
BRANCH  25  27
ATOM     27  C   UNL     1      -6.810  -2.244   2.087  0.00  0.00    +0.140 C 
BRANCH  27  28
ATOM     28  C   UNL     1      -8.183  -1.623   2.063  0.00  0.00    -0.023 A 
ATOM     29  C   UNL     1      -8.887  -1.431   3.237  0.00  0.00    +0.013 A 
ATOM     30  C   UNL     1     -10.119  -0.870   3.181  0.00  0.00    +0.045 A 
ATOM     31  S   UNL     1     -10.318  -0.592   1.429  0.00  0.00    -0.105 S 
ATOM     32  C   UNL     1      -8.744  -1.238   0.891  0.00  0.00    +0.050 A 
ENDBRANCH  27  28
ENDBRANCH  25  27
ENDBRANCH  20  23
ENDBRANCH  18  19
ENDBRANCH   1  18
TORSDOF 7
