REMARK  Name = ZINC06877439
REMARK  10 active torsions:
REMARK  status: ('A' for Active; 'I' for Inactive)
REMARK    1  A    between atoms: C_1  and  C_2
REMARK    2  A    between atoms: C_2  and  C_3
REMARK    3  A    between atoms: C_2  and  C_4
REMARK    4  A    between atoms: C_4  and  C_5
REMARK    5  A    between atoms: C_5  and  C_6
REMARK    6  A    between atoms: C_6  and  C_8
REMARK    7  A    between atoms: C_6  and  N_22
REMARK    8  A    between atoms: C_12  and  N_13
REMARK    9  A    between atoms: C_21  and  N_66
REMARK   10  A    between atoms: N_25  and  C_26
REMARK                            x       y       z     vdW  Elec       q    Type
REMARK                         _______ _______ _______ _____ _____    ______ ____
ROOT
ATOM      1  C   UNL     1      -0.972   1.529  -0.388  0.00  0.00    +0.108 C 
ENDROOT
BRANCH   1   2
ATOM      2  C   UNL     1      -2.196   0.791  -0.866  0.00  0.00    +0.007 A 
ATOM      3  C   UNL     1      -2.399  -0.537  -0.499  0.00  0.00    -0.034 A 
ATOM      4  C   UNL     1      -3.529  -1.135  -0.969  0.00  0.00    -0.021 A 
ATOM      5  S   UNL     1      -4.313   0.131  -1.927  0.00  0.00    -0.077 S 
ATOM      6  C   UNL     1      -3.103   1.418  -1.662  0.00  0.00    +0.090 A 
ATOM      7  C   UNL     1      -3.969  -2.540  -0.717  0.00  0.00    -0.036 C 
ATOM      8  C   UNL     1      -2.203  -2.544   0.940  0.00  0.00    -0.074 C 
ATOM      9  C   UNL     1      -1.449  -1.327   0.397  0.00  0.00    +0.018 C 
ATOM     10  C   UNL     1      -3.235  -4.631   0.273  0.00  0.00    -0.096 C 
ATOM     11  N   UNL     1      -2.807  -3.291  -0.183  0.00  0.00    +0.381 N 
ATOM     12  H   UNL     1      -2.108  -3.399  -0.927  0.00  0.00    -0.082 HD
BRANCH   6  13
ATOM     13  N   UNL     1      -3.092   2.731  -2.147  0.00  0.00    -0.317 N 
ATOM     14  C   UNL     1      -2.210   3.707  -1.781  0.00  0.00    +0.092 A 
ATOM     15  C   UNL     1      -2.518   4.830  -2.463  0.00  0.00    +0.019 A 
ATOM     16  C   UNL     1      -3.634   4.541  -3.272  0.00  0.00    +0.019 A 
ATOM     17  C   UNL     1      -3.964   3.250  -3.060  0.00  0.00    +0.092 A 
ENDBRANCH   6  13
ENDBRANCH   1   2
BRANCH   1  18
ATOM     18  N   UNL     1       0.103   0.570  -0.121  0.00  0.00    -0.292 N 
ATOM     19  C   UNL     1       0.952   0.217  -1.107  0.00  0.00    +0.300 C 
ATOM     20  O   UNL     1       0.829   0.699  -2.216  0.00  0.00    -0.253 OA
ATOM     21  N   UNL     1       1.938  -0.669  -0.863  0.00  0.00    -0.297 N 
ATOM     22  H   UNL     1       0.201   0.185   0.764  0.00  0.00    +0.151 HD
ATOM     23  H   UNL     1       2.036  -1.054   0.022  0.00  0.00    +0.151 HD
BRANCH  21  24
ATOM     24  C   UNL     1       2.860  -1.052  -1.934  0.00  0.00    +0.074 C 
ATOM     25  C   UNL     1       2.283  -2.242  -2.728  0.00  0.00    +0.022 C 
ATOM     26  C   UNL     1       3.522  -3.108  -3.069  0.00  0.00    +0.002 C 
ATOM     27  C   UNL     1       4.382  -2.993  -1.786  0.00  0.00    +0.002 C 
ATOM     28  C   UNL     1       4.195  -1.530  -1.335  0.00  0.00    +0.022 C 
ENDBRANCH  21  24
ENDBRANCH   1  18
BRANCH   1  29
ATOM     29  C   UNL     1      -1.305   2.292   0.896  0.00  0.00    +0.027 C 
BRANCH  29  30
ATOM     30  C   UNL     1      -0.101   3.139   1.313  0.00  0.00    +0.005 C 
BRANCH  30  32
ATOM     31  C   UNL     1      -0.645   2.907   3.740  0.00  0.00    +0.007 C 
ATOM     32  C   UNL     1      -0.434   3.901   2.596  0.00  0.00    -0.017 C 
ATOM     33  C   UNL     1       0.721   4.842   2.945  0.00  0.00    +0.007 C 
ENDBRANCH  30  32
ENDBRANCH  29  30
ENDBRANCH   1  29
TORSDOF 7
