REMARK  Name = ZINC08014622
REMARK  7 active torsions:
REMARK  status: ('A' for Active; 'I' for Inactive)
REMARK    1  A    between atoms: C_1  and  C_2
REMARK    2  A    between atoms: C_9  and  N_14
REMARK    3  A    between atoms: C_15  and  C_17
REMARK    4  A    between atoms: C_18  and  C_19
REMARK    5  A    between atoms: C_22  and  C_25
REMARK    6  A    between atoms: C_25  and  C_26
REMARK    7  A    between atoms: C_25  and  C_27
REMARK                            x       y       z     vdW  Elec       q    Type
REMARK                         _______ _______ _______ _____ _____    ______ ____
ROOT
ATOM      1  N   UNL     1      -3.663   6.057   6.388  0.00  0.00    -0.282 N 
ATOM      2  C   UNL     1      -3.383   4.745   6.258  0.00  0.00    +0.241 C 
ATOM      3  O   UNL     1      -3.694   3.966   7.140  0.00  0.00    -0.270 OA
ATOM      4  H   UNL     1      -3.348   6.688   5.723  0.00  0.00    +0.155 HD
ENDROOT
BRANCH   1  12
ATOM      5  C   UNL     1      -8.527   7.696  12.178  0.00  0.00    +0.062 C 
ATOM      6  C   UNL     1      -7.965   7.410  10.784  0.00  0.00    +0.256 C 
ATOM      7  C   UNL     1      -8.038   5.930  10.508  0.00  0.00    +0.258 C 
ATOM      8  O   UNL     1      -8.900   5.254  11.030  0.00  0.00    -0.271 OA
ATOM      9  N   UNL     1      -7.140   5.358   9.676  0.00  0.00    -0.279 N 
ATOM     10  C   UNL     1      -6.133   6.155   9.113  0.00  0.00    +0.077 A 
ATOM     11  C   UNL     1      -5.404   5.706   8.024  0.00  0.00    +0.050 A 
ATOM     12  C   UNL     1      -4.406   6.508   7.485  0.00  0.00    +0.036 A 
ATOM     13  C   UNL     1      -4.150   7.760   8.030  0.00  0.00    +0.027 A 
ATOM     14  C   UNL     1      -4.883   8.210   9.112  0.00  0.00    +0.049 A 
ATOM     15  C   UNL     1      -5.874   7.412   9.656  0.00  0.00    +0.143 A 
ATOM     16  O   UNL     1      -6.604   7.844  10.720  0.00  0.00    -0.478 OA
ATOM     17  H   UNL     1      -7.191   4.412   9.472  0.00  0.00    +0.155 HD
ENDBRANCH   1  12
BRANCH   2  18
ATOM     18  C   UNL     1      -2.707   4.257   5.055  0.00  0.00    +0.068 C 
ATOM     19  C   UNL     1      -2.427   2.944   4.924  0.00  0.00    +0.013 C 
BRANCH  19  20
ATOM     20  C   UNL     1      -1.747   2.454   3.715  0.00  0.00    -0.025 A 
ATOM     21  C   UNL     1      -1.456   1.093   3.575  0.00  0.00    +0.008 A 
ATOM     22  C   UNL     1      -0.817   0.641   2.439  0.00  0.00    +0.004 A 
ATOM     23  C   UNL     1      -0.465   1.530   1.439  0.00  0.00    -0.045 A 
ATOM     24  C   UNL     1      -0.745   2.879   1.572  0.00  0.00    +0.004 A 
ATOM     25  C   UNL     1      -1.388   3.346   2.699  0.00  0.00    +0.008 A 
BRANCH  23  26
ATOM     26  C   UNL     1       0.233   1.028   0.202  0.00  0.00    +0.013 C 
ATOM     27  C   UNL     1       1.596   1.711   0.072  0.00  0.00    +0.012 C 
ATOM     28  C   UNL     1      -0.617   1.349  -1.029  0.00  0.00    +0.012 C 
ENDBRANCH  23  26
ENDBRANCH  19  20
ENDBRANCH   2  18
TORSDOF 4
