REMARK  Name = ZINC34698836
REMARK  9 active torsions:
REMARK  status: ('A' for Active; 'I' for Inactive)
REMARK    1  A    between atoms: C_1  and  C_2
REMARK    2  A    between atoms: C_7  and  C_8
REMARK    3  A    between atoms: N_11  and  C_32
REMARK    4  A    between atoms: C_13  and  C_15
REMARK    5  A    between atoms: C_15  and  N_16
REMARK    6  A    between atoms: N_16  and  C_17
REMARK    7  A    between atoms: C_23  and  C_25
REMARK    8  A    between atoms: C_32  and  C_33
REMARK    9  A    between atoms: N_37  and  C_38
REMARK                            x       y       z     vdW  Elec       q    Type
REMARK                         _______ _______ _______ _____ _____    ______ ____
ROOT
ATOM      1  C   UNL     1      -0.819   0.117   6.115  0.00  0.00    +0.005 C 
ATOM      2  C   UNL     1      -0.246  -0.889   7.136  0.00  0.00    -0.070 C 
ATOM      3  N   UNL     1      -1.429  -1.648   7.618  0.00  0.00    +0.384 N 
ATOM      4  C   UNL     1      -2.257  -1.845   6.400  0.00  0.00    -0.073 C 
ATOM      5  C   UNL     1      -2.143  -0.508   5.631  0.00  0.00    -0.005 C 
ATOM      6  H   UNL     1      -1.936  -1.111   8.306  0.00  0.00    -0.081 HD
ENDROOT
BRANCH   1  13
ATOM      7  C   UNL     1      -0.122   2.768   5.200  0.00  0.00    +0.044 C 
ATOM      8  C   UNL     1       0.466   1.557   4.522  0.00  0.00    -0.047 A 
ATOM      9  C   UNL     1       1.344   1.715   3.465  0.00  0.00    +0.003 A 
ATOM     10  C   UNL     1       1.883   0.605   2.843  0.00  0.00    +0.000 A 
ATOM     11  C   UNL     1       1.545  -0.663   3.277  0.00  0.00    +0.000 A 
ATOM     12  C   UNL     1       0.669  -0.821   4.334  0.00  0.00    +0.004 A 
ATOM     13  C   UNL     1       0.133   0.289   4.960  0.00  0.00    -0.043 A 
ENDBRANCH   1  13
BRANCH   5  14
ATOM     14  C   UNL     1      -2.089  -0.765   4.123  0.00  0.00    +0.110 C 
BRANCH  14  15
ATOM     15  N   UNL     1      -3.382  -1.284   3.670  0.00  0.00    -0.294 N 
ATOM     16  C   UNL     1      -3.608  -2.613   3.660  0.00  0.00    +0.247 C 
ATOM     17  O   UNL     1      -2.745  -3.374   3.269  0.00  0.00    -0.270 OA
BRANCH  16  18
ATOM     18  C   UNL     1      -4.906  -3.144   4.124  0.00  0.00    +0.037 A 
ATOM     19  C   UNL     1      -6.063  -2.370   4.005  0.00  0.00    +0.016 A 
ATOM     20  C   UNL     1      -7.271  -2.871   4.440  0.00  0.00    +0.039 A 
ATOM     21  C   UNL     1      -7.340  -4.140   4.994  0.00  0.00    +0.123 A 
ATOM     22  C   UNL     1      -6.195  -4.913   5.114  0.00  0.00    +0.039 A 
ATOM     23  C   UNL     1      -4.982  -4.424   4.677  0.00  0.00    +0.016 A 
ATOM     24  F   UNL     1      -8.527  -4.626   5.419  0.00  0.00    -0.205 F 
ENDBRANCH  16  18
BRANCH  15  25
ATOM     25  C   UNL     1      -4.428  -0.359   3.227  0.00  0.00    +0.076 C 
ATOM     26  C   UNL     1      -5.314   0.016   4.417  0.00  0.00    +0.022 C 
ATOM     27  C   UNL     1      -6.406   0.982   3.955  0.00  0.00    +0.002 C 
ATOM     28  C   UNL     1      -7.259   0.310   2.877  0.00  0.00    +0.000 C 
ATOM     29  C   UNL     1      -6.373  -0.066   1.687  0.00  0.00    +0.002 C 
ATOM     30  C   UNL     1      -5.280  -1.032   2.149  0.00  0.00    +0.022 C 
ENDBRANCH  15  25
ENDBRANCH  14  15
ENDBRANCH   5  14
BRANCH   3  31
ATOM     31  C   UNL     1      -1.018  -2.944   8.174  0.00  0.00    -0.024 C 
BRANCH  31  32
ATOM     32  C   UNL     1      -0.205  -2.719   9.423  0.00  0.00    +0.002 A 
ATOM     33  C   UNL     1      -0.677  -2.733  10.686  0.00  0.00    +0.021 A 
ATOM     34  C   UNL     1       0.410  -2.479  11.546  0.00  0.00    +0.019 A 
ATOM     35  C   UNL     1       1.505  -2.319  10.775  0.00  0.00    +0.085 A 
ATOM     36  N   UNL     1       1.135  -2.471   9.472  0.00  0.00    -0.355 N 
ATOM     37  C   UNL     1       2.028  -2.379   8.314  0.00  0.00    +0.148 C 
ENDBRANCH  31  32
ENDBRANCH   3  31
TORSDOF 7
