REMARK  Name = ZINC43509740
REMARK  10 active torsions:
REMARK  status: ('A' for Active; 'I' for Inactive)
REMARK    1  A    between atoms: C_1  and  C_2
REMARK    2  A    between atoms: C_6  and  C_33
REMARK    3  A    between atoms: C_7  and  C_32
REMARK    4  A    between atoms: C_13  and  C_17
REMARK    5  A    between atoms: C_18  and  C_31
REMARK    6  A    between atoms: C_23  and  C_29
REMARK    7  A    between atoms: C_23  and  C_30
REMARK    8  A    between atoms: C_25  and  O_28
REMARK    9  A    between atoms: C_33  and  O_35
REMARK   10  A    between atoms: O_35  and  C_36
REMARK                            x       y       z     vdW  Elec       q    Type
REMARK                         _______ _______ _______ _____ _____    ______ ____
ROOT
ATOM      1  C   UNL     1       0.894   1.325   0.986  0.00  0.00    +0.060 C 
ATOM      2  C   UNL     1       0.678  -0.187   0.809  0.00  0.00    +0.240 C 
ATOM      3  C   UNL     1      -0.741  -0.429   0.342  0.00  0.00    +0.192 C 
ATOM      4  O   UNL     1      -1.156   0.272  -0.569  0.00  0.00    -0.292 OA
ATOM      5  C   UNL     1      -1.575  -1.548   0.910  0.00  0.00    +0.161 C 
ATOM      6  C   UNL     1      -3.071  -1.384   0.693  0.00  0.00    +0.062 C 
ATOM      7  C   UNL     1      -3.900  -2.128   1.721  0.00  0.00    +0.018 C 
ATOM      8  C   UNL     1      -3.190  -3.378   2.247  0.00  0.00    +0.036 C 
ATOM      9  C   UNL     1      -1.911  -2.947   2.943  0.00  0.00    -0.058 C 
ATOM     10  C   UNL     1      -1.486  -3.584   4.018  0.00  0.00    +0.009 C 
ATOM     11  C   UNL     1      -1.186  -1.760   2.375  0.00  0.00    +0.109 C 
ATOM     12  C   UNL     1       0.318  -1.955   2.368  0.00  0.00    +0.319 C 
ATOM     13  O   UNL     1       0.852  -2.993   2.642  0.00  0.00    -0.250 OA
ATOM     14  O   UNL     1       1.019  -0.857   2.013  0.00  0.00    -0.453 OA
ATOM     15  C   UNL     1      -1.480  -0.527   3.234  0.00  0.00    +0.029 C 
ATOM     16  C   UNL     1      -5.320  -2.485   1.326  0.00  0.00    -0.002 C 
ATOM     17  C   UNL     1      -5.813  -3.598   2.261  0.00  0.00    +0.019 C 
ATOM     18  C   UNL     1      -7.299  -3.876   2.078  0.00  0.00    +0.076 C 
ATOM     19  C   UNL     1      -7.713  -3.684   0.644  0.00  0.00    +0.143 C 
ATOM     20  O   UNL     1      -8.875  -3.460   0.367  0.00  0.00    -0.296 OA
ATOM     21  C   UNL     1      -6.688  -3.769  -0.467  0.00  0.00    +0.049 C 
ATOM     22  C   UNL     1      -5.468  -2.953  -0.093  0.00  0.00    -0.006 C 
ATOM     23  C   UNL     1      -4.557  -2.657  -1.018  0.00  0.00    +0.160 C 
ATOM     24  C   UNL     1      -3.407  -1.795  -0.718  0.00  0.00    +0.205 C 
ATOM     25  O   UNL     1      -2.743  -1.374  -1.664  0.00  0.00    -0.288 OA
ATOM     26  C   UNL     1      -6.299  -5.234  -0.690  0.00  0.00    +0.023 C 
ATOM     27  C   UNL     1      -7.342  -3.217  -1.743  0.00  0.00    +0.023 C 
ATOM     28  C   UNL     1      -6.213  -1.266   1.544  0.00  0.00    +0.016 C 
ATOM     29  C   UNL     1      -3.428   0.117   0.821  0.00  0.00    +0.021 C 
ENDROOT
BRANCH  23  30
ATOM     30  O   UNL     1      -4.629  -3.179  -2.280  0.00  0.00    -0.503 OA
ATOM     31  H   UNL     1      -3.914  -2.894  -2.865  0.00  0.00    +0.292 HD
ENDBRANCH  23  30
BRANCH   5  32
ATOM     32  C   UNL     1      -1.133  -2.794   0.156  0.00  0.00    +0.323 C 
ATOM     33  O   UNL     1      -0.902  -3.816   0.759  0.00  0.00    -0.250 OA
BRANCH  32  34
ATOM     34  O   UNL     1      -0.999  -2.759  -1.179  0.00  0.00    -0.467 OA
ATOM     35  C   UNL     1      -0.581  -3.964  -1.822  0.00  0.00    +0.280 C 
ENDBRANCH  32  34
ENDBRANCH   5  32
TORSDOF 3
