REMARK  Name = ZINC07780642
REMARK  9 active torsions:
REMARK  status: ('A' for Active; 'I' for Inactive)
REMARK    1  A    between atoms: C_1  and  C_2
REMARK    2  A    between atoms: C_3  and  O_24
REMARK    3  A    between atoms: C_4  and  C_10
REMARK    4  A    between atoms: C_5  and  C_8
REMARK    5  A    between atoms: C_8  and  O_9
REMARK    6  A    between atoms: N_11  and  N_12
REMARK    7  A    between atoms: C_19  and  C_23
REMARK    8  A    between atoms: C_20  and  C_21
REMARK    9  A    between atoms: C_20  and  C_22
REMARK                            x       y       z     vdW  Elec       q    Type
REMARK                         _______ _______ _______ _____ _____    ______ ____
ROOT
ATOM      1  C   UNL     1       1.230   3.542   0.009  0.00  0.00    +0.146 C 
ATOM      2  N   UNL     1       2.374   4.171   0.001  0.00  0.00    -0.157 NA
ENDROOT
BRANCH   2   3
ATOM      3  N   UNL     1       2.403   5.572   0.008  0.00  0.00    -0.158 NA
ATOM      4  C   UNL     1       3.538   6.197   0.001  0.00  0.00    +0.048 C 
ATOM      5  C   UNL     1       4.929   5.582  -0.009  0.00  0.00    +0.057 C 
ATOM      6  C   UNL     1       5.905   6.798  -0.025  0.00  0.00    +0.001 C 
ATOM      7  C   UNL     1       5.765   7.417   1.400  0.00  0.00    +0.005 C 
ATOM      8  C   UNL     1       4.342   8.020   1.422  0.00  0.00    +0.013 C 
ATOM      9  C   UNL     1       3.764   7.715   0.006  0.00  0.00    +0.013 C 
ATOM     10  C   UNL     1       5.064   7.822  -0.868  0.00  0.00    -0.021 C 
ATOM     11  C   UNL     1       4.835   7.338  -2.301  0.00  0.00    +0.012 C 
ATOM     12  C   UNL     1       5.666   9.228  -0.832  0.00  0.00    +0.012 C 
ATOM     13  C   UNL     1       2.571   8.569  -0.426  0.00  0.00    +0.018 C 
ENDBRANCH   2   3
BRANCH   1  17
ATOM     14  C   UNL     1       3.575  -0.881  -0.037  0.00  0.00    +0.069 C 
ATOM     15  C   UNL     1       2.310  -0.062  -0.020  0.00  0.00    +0.080 A 
ATOM     16  C   UNL     1       2.391   1.323  -0.014  0.00  0.00    +0.147 A 
ATOM     17  C   UNL     1       1.200   2.071   0.002  0.00  0.00    +0.045 A 
ATOM     18  C   UNL     1      -0.017   1.374   0.010  0.00  0.00    +0.008 A 
ATOM     19  C   UNL     1       0.002  -0.004   0.002  0.00  0.00    +0.117 A 
ATOM     20  N   UNL     1       1.141  -0.670  -0.012  0.00  0.00    -0.256 NA
BRANCH  16  21
ATOM     21  O   UNL     1       3.598   1.944  -0.022  0.00  0.00    -0.504 OA
ATOM     22  H   UNL     1       3.938   2.129  -0.908  0.00  0.00    +0.292 HD
ENDBRANCH  16  21
BRANCH  18  23
ATOM     23  C   UNL     1      -1.325   2.121   0.020  0.00  0.00    +0.193 C 
BRANCH  23  24
ATOM     24  O   UNL     1      -2.407   1.187   0.020  0.00  0.00    -0.390 OA
ATOM     25  H   UNL     1      -3.282   1.598   0.026  0.00  0.00    +0.210 HD
ENDBRANCH  23  24
ENDBRANCH  18  23
ENDBRANCH   1  17
TORSDOF 5
