REMARK  Name = ZINC32916318
REMARK  9 active torsions:
REMARK  status: ('A' for Active; 'I' for Inactive)
REMARK    1  A    between atoms: C_1  and  C_2
REMARK    2  A    between atoms: C_4  and  C_29
REMARK    3  A    between atoms: C_5  and  N_9
REMARK    4  A    between atoms: C_6  and  C_8
REMARK    5  A    between atoms: C_10  and  C_12
REMARK    6  A    between atoms: C_12  and  N_13
REMARK    7  A    between atoms: C_23  and  C_25
REMARK    8  A    between atoms: C_25  and  O_27
REMARK    9  A    between atoms: O_27  and  C_28
REMARK                            x       y       z     vdW  Elec       q    Type
REMARK                         _______ _______ _______ _____ _____    ______ ____
ROOT
ATOM      1  C   UNL     1      -5.184   1.395  -1.042  0.00  0.00    +0.020 C 
ENDROOT
BRANCH   1   2
ATOM      2  N   UNL     1      -6.580   1.212  -0.625  0.00  0.00    +0.396 N 
ATOM      3  C   UNL     1      -7.411   0.768  -1.749  0.00  0.00    -0.064 C 
ATOM      4  C   UNL     1      -7.358  -0.706  -2.100  0.00  0.00    -0.015 C 
ATOM      5  C   UNL     1      -8.328  -0.932  -3.271  0.00  0.00    -0.002 C 
ATOM      6  C   UNL     1      -9.744  -0.491  -2.915  0.00  0.00    +0.000 C 
ATOM      7  C   UNL     1      -9.775   0.969  -2.433  0.00  0.00    +0.002 C 
ATOM      8  C   UNL     1      -8.847   1.068  -1.237  0.00  0.00    -0.026 C 
ATOM      9  C   UNL     1      -8.677   2.463  -0.633  0.00  0.00    -0.002 C 
ATOM     10  C   UNL     1      -7.188   2.507  -0.207  0.00  0.00    +0.044 C 
ATOM     11  H   UNL     1      -6.549   0.466   0.184  0.00  0.00    -0.080 HD
BRANCH  10  12
ATOM     12  C   UNL     1      -7.084   2.667   1.288  0.00  0.00    +0.293 C 
ATOM     13  O   UNL     1      -6.610   1.780   1.959  0.00  0.00    -0.253 OA
BRANCH  12  14
ATOM     14  O   UNL     1      -7.518   3.793   1.875  0.00  0.00    -0.469 OA
ATOM     15  C   UNL     1      -7.283   3.926   3.301  0.00  0.00    +0.280 C 
ENDBRANCH  12  14
ENDBRANCH  10  12
ENDBRANCH   1   2
BRANCH   1  17
ATOM     16  N   UNL     1      -3.908   2.926  -2.509  0.00  0.00    -0.287 N 
ATOM     17  C   UNL     1      -5.108   2.493  -2.073  0.00  0.00    +0.201 C 
ATOM     18  O   UNL     1      -6.126   2.986  -2.510  0.00  0.00    -0.278 OA
ATOM     19  H   UNL     1      -2.986   2.453  -2.142  0.00  0.00    +0.155 HD
BRANCH  16  24
ATOM     20  C   UNL     1      -3.628   7.190  -6.240  0.00  0.00    +0.044 C 
ATOM     21  C   UNL     1      -3.700   6.059  -5.247  0.00  0.00    -0.050 A 
ATOM     22  C   UNL     1      -4.483   6.184  -4.114  0.00  0.00    +0.008 A 
ATOM     23  C   UNL     1      -4.551   5.149  -3.202  0.00  0.00    -0.029 A 
ATOM     24  C   UNL     1      -3.837   3.979  -3.427  0.00  0.00    +0.039 A 
ATOM     25  C   UNL     1      -3.048   3.859  -4.564  0.00  0.00    -0.029 A 
ATOM     26  C   UNL     1      -2.984   4.897  -5.472  0.00  0.00    +0.008 A 
ATOM     27  C   UNL     1      -2.267   2.593  -4.809  0.00  0.00    +0.045 C 
ATOM     28  C   UNL     1      -5.404   5.286  -1.968  0.00  0.00    +0.045 C 
ENDBRANCH  16  24
ENDBRANCH   1  17
TORSDOF 5
