REMARK  Name = ZINC01374493
REMARK  15 active torsions:
REMARK  status: ('A' for Active; 'I' for Inactive)
REMARK    1  A    between atoms: C_1  and  C_2
REMARK    2  A    between atoms: C_2  and  C_3
REMARK    3  A    between atoms: C_3  and  C_5
REMARK    4  A    between atoms: C_3  and  N_19
REMARK    5  A    between atoms: N_9  and  C_10
REMARK    6  A    between atoms: C_10  and  C_11
REMARK    7  A    between atoms: C_14  and  O_17
REMARK    8  A    between atoms: O_17  and  C_18
REMARK    9  A    between atoms: N_19  and  C_20
REMARK   10  A    between atoms: N_19  and  C_28
REMARK   11  A    between atoms: C_20  and  C_21
REMARK   12  A    between atoms: C_24  and  C_27
REMARK   13  A    between atoms: C_28  and  C_29
REMARK   14  A    between atoms: C_33  and  O_41
REMARK   15  A    between atoms: O_41  and  C_42
REMARK                            x       y       z     vdW  Elec       q    Type
REMARK                         _______ _______ _______ _____ _____    ______ ____
ROOT
ATOM      1  N   UNL     1      -2.059  -0.316   1.385  0.00  0.00    -0.284 NA
ENDROOT
BRANCH   1   2
ATOM      2  C   UNL     1      -1.720  -0.634  -0.009  0.00  0.00    +0.127 C 
BRANCH   2   3
ATOM      3  C   UNL     1      -2.923  -0.397  -0.885  0.00  0.00    +0.169 A 
ATOM      4  N   UNL     1      -4.157  -0.759  -0.635  0.00  0.00    -0.112 NA
ATOM      5  N   UNL     1      -4.892  -0.375  -1.622  0.00  0.00    -0.023 NA
ATOM      6  N   UNL     1      -4.158   0.222  -2.495  0.00  0.00    -0.044 NA
ATOM      7  N   UNL     1      -2.938   0.234  -2.075  0.00  0.00    -0.223 N 
BRANCH   7   8
ATOM      8  C   UNL     1      -1.786   0.820  -2.764  0.00  0.00    +0.182 C 
BRANCH   8   9
ATOM      9  C   UNL     1      -1.156  -0.215  -3.659  0.00  0.00    -0.026 A 
ATOM     10  C   UNL     1      -0.158  -1.037  -3.168  0.00  0.00    +0.009 A 
ATOM     11  C   UNL     1       0.422  -1.986  -3.987  0.00  0.00    +0.046 A 
ATOM     12  C   UNL     1       0.002  -2.116  -5.303  0.00  0.00    +0.120 A 
ATOM     13  C   UNL     1      -1.000  -1.290  -5.793  0.00  0.00    +0.046 A 
ATOM     14  C   UNL     1      -1.580  -0.346  -4.968  0.00  0.00    +0.009 A 
BRANCH  12  15
ATOM     15  O   UNL     1       0.571  -3.049  -6.110  0.00  0.00    -0.495 OA
ATOM     16  C   UNL     1       0.088  -3.125  -7.453  0.00  0.00    +0.277 C 
ENDBRANCH  12  15
ENDBRANCH   8   9
ENDBRANCH   7   8
ENDBRANCH   2   3
BRANCH   2  18
ATOM     17  C   UNL     1      -0.009  -2.317   0.687  0.00  0.00    +0.006 C 
ATOM     18  C   UNL     1      -1.298  -2.102  -0.109  0.00  0.00    +0.023 C 
ENDBRANCH   2  18
ENDBRANCH   1   2
BRANCH   1  19
ATOM     19  C   UNL     1      -3.268  -1.035   1.809  0.00  0.00    +0.120 C 
BRANCH  19  20
ATOM     20  C   UNL     1      -3.361  -1.017   3.313  0.00  0.00    -0.033 A 
ATOM     21  C   UNL     1      -2.678  -1.960   4.059  0.00  0.00    +0.005 A 
ATOM     22  C   UNL     1      -2.763  -1.943   5.439  0.00  0.00    +0.003 A 
ATOM     23  C   UNL     1      -3.530  -0.983   6.073  0.00  0.00    -0.050 A 
ATOM     24  C   UNL     1      -4.212  -0.040   5.327  0.00  0.00    +0.003 A 
ATOM     25  C   UNL     1      -4.123  -0.054   3.947  0.00  0.00    +0.005 A 
ATOM     26  C   UNL     1      -3.624  -0.966   7.577  0.00  0.00    +0.044 C 
ENDBRANCH  19  20
ENDBRANCH   1  19
BRANCH   1  27
ATOM     27  C   UNL     1      -2.215   1.132   1.571  0.00  0.00    +0.126 C 
BRANCH  27  28
ATOM     28  C   UNL     1      -0.857   1.783   1.612  0.00  0.00    +0.031 A 
ATOM     29  C   UNL     1      -0.349   2.357   0.493  0.00  0.00    +0.020 A 
ATOM     30  C   UNL     1       0.974   2.981   0.566  0.00  0.00    +0.002 A 
ATOM     31  C   UNL     1       1.548   3.589  -0.556  0.00  0.00    +0.055 A 
ATOM     32  C   UNL     1       2.796   4.168  -0.453  0.00  0.00    +0.121 A 
ATOM     33  C   UNL     1       3.483   4.149   0.759  0.00  0.00    +0.047 A 
ATOM     34  C   UNL     1       2.928   3.553   1.870  0.00  0.00    +0.030 A 
ATOM     35  C   UNL     1       1.671   2.964   1.788  0.00  0.00    +0.049 A 
ATOM     36  N   UNL     1       1.098   2.362   2.890  0.00  0.00    -0.322 N 
ATOM     37  H   UNL     1       1.579   2.351   3.733  0.00  0.00    +0.169 HD
ATOM     38  C   UNL     1      -0.120   1.798   2.815  0.00  0.00    +0.254 A 
ATOM     39  O   UNL     1      -0.597   1.280   3.810  0.00  0.00    -0.268 OA
BRANCH  32  40
ATOM     40  O   UNL     1       3.360   4.760  -1.540  0.00  0.00    -0.495 OA
ATOM     41  C   UNL     1       4.654   5.340  -1.365  0.00  0.00    +0.277 C 
ENDBRANCH  32  40
ENDBRANCH  27  28
ENDBRANCH   1  27
TORSDOF 11
