REMARK  Name = ZINC09175101
REMARK  12 active torsions:
REMARK  status: ('A' for Active; 'I' for Inactive)
REMARK    1  A    between atoms: C_1  and  N_56
REMARK    2  A    between atoms: C_2  and  N_56
REMARK    3  A    between atoms: C_3  and  C_4
REMARK    4  A    between atoms: C_3  and  N_56
REMARK    5  A    between atoms: C_4  and  N_5
REMARK    6  A    between atoms: C_6  and  C_24
REMARK    7  A    between atoms: C_9  and  C_10
REMARK    8  A    between atoms: C_9  and  O_19
REMARK    9  A    between atoms: C_13  and  O_17
REMARK   10  A    between atoms: O_17  and  C_18
REMARK   11  A    between atoms: C_29  and  O_30
REMARK   12  A    between atoms: O_30  and  C_31
REMARK                            x       y       z     vdW  Elec       q    Type
REMARK                         _______ _______ _______ _____ _____    ______ ____
ROOT
ATOM      1  N   UNL     1       0.799   6.474  -0.702  0.00  0.00    -0.285 N 
ATOM      2  C   UNL     1      -0.209   5.633  -0.049  0.00  0.00    +0.148 C 
ATOM      3  C   UNL     1      -0.321   6.120   1.377  0.00  0.00    +0.071 C 
ATOM      4  C   UNL     1      -1.151   5.620   2.362  0.00  0.00    +0.133 C 
ATOM      5  C   UNL     1       0.587   7.182   1.499  0.00  0.00    +0.249 C 
ATOM      6  O   UNL     1       0.789   7.837   2.506  0.00  0.00    -0.282 OA
ATOM      7  C   UNL     1       1.262   7.370   0.187  0.00  0.00    +0.288 C 
ATOM      8  O   UNL     1       2.108   8.208  -0.048  0.00  0.00    -0.266 OA
ENDROOT
BRANCH   4   9
ATOM      9  C   UNL     1      -1.022   6.102   3.746  0.00  0.00    +0.019 A 
ATOM     10  C   UNL     1       0.230   6.115   4.372  0.00  0.00    +0.015 A 
ATOM     11  C   UNL     1       0.346   6.572   5.665  0.00  0.00    +0.048 A 
ATOM     12  C   UNL     1      -0.780   7.010   6.354  0.00  0.00    +0.138 A 
ATOM     13  C   UNL     1      -2.028   6.994   5.739  0.00  0.00    +0.083 A 
ATOM     14  C   UNL     1      -2.153   6.543   4.443  0.00  0.00    +0.035 A 
ATOM     15 CL   UNL     1      -3.429   7.542   6.606  0.00  0.00    -0.080 Cl
BRANCH  12  16
ATOM     16  O   UNL     1      -0.661   7.455   7.631  0.00  0.00    -0.494 OA
ATOM     17  C   UNL     1       0.649   7.445   8.202  0.00  0.00    +0.277 C 
ENDBRANCH  12  16
ENDBRANCH   4   9
BRANCH   2  18
ATOM     18  C   UNL     1       0.230   4.192  -0.070  0.00  0.00    +0.019 A 
ATOM     19  C   UNL     1       1.571   3.879  -0.182  0.00  0.00    +0.009 A 
ATOM     20  C   UNL     1       1.974   2.557  -0.201  0.00  0.00    +0.001 A 
ATOM     21  C   UNL     1       1.036   1.544  -0.106  0.00  0.00    +0.004 A 
ATOM     22  C   UNL     1      -0.306   1.852   0.002  0.00  0.00    +0.046 A 
ATOM     23  C   UNL     1      -0.713   3.178   0.025  0.00  0.00    +0.125 A 
BRANCH  23  24
ATOM     24  O   UNL     1      -2.032   3.483   0.137  0.00  0.00    -0.495 OA
ATOM     25  C   UNL     1      -2.946   2.389   0.230  0.00  0.00    +0.277 C 
ENDBRANCH  23  24
ENDBRANCH   2  18
BRANCH   4  26
ATOM     26  O   UNL     1      -2.079   4.689   2.055  0.00  0.00    -0.506 OA
ATOM     27  H   UNL     1      -2.587   4.440   2.879  0.00  0.00    +0.292 HD
ENDBRANCH   4  26
BRANCH   1  28
ATOM     28  C   UNL     1       1.231   6.357  -2.096  0.00  0.00    +0.090 C 
BRANCH  28  29
ATOM     29  C   UNL     1       0.351   7.243  -2.980  0.00  0.00    -0.060 C 
BRANCH  29  32
ATOM     30  C   UNL     1       0.544   5.771  -4.892  0.00  0.00    -0.097 C 
ATOM     31  C   UNL     1       0.126   8.133  -5.221  0.00  0.00    -0.097 C 
ATOM     32  N   UNL     1       0.813   7.130  -4.379  0.00  0.00    +0.377 N 
ATOM     33  H   UNL     1       1.825   7.305  -4.412  0.00  0.00    -0.083 HD
ENDBRANCH  29  32
ENDBRANCH  28  29
ENDBRANCH   1  28
TORSDOF 8
