REMARK  Name = ZINC34689454
REMARK  5 active torsions:
REMARK  status: ('A' for Active; 'I' for Inactive)
REMARK    1  A    between atoms: C_4  and  C_7
REMARK    2  A    between atoms: C_21  and  C_23
REMARK    3  A    between atoms: C_23  and  N_24
REMARK    4  A    between atoms: N_24  and  C_25
REMARK    5  A    between atoms: N_30  and  C_31
REMARK                            x       y       z     vdW  Elec       q    Type
REMARK                         _______ _______ _______ _____ _____    ______ ____
ROOT
ATOM      1  C   UNL     1       4.084   0.317  -0.062  0.00  0.00    +0.159 C 
ATOM      2  C   UNL     1       4.534   0.131   1.367  0.00  0.00    +0.049 A 
ATOM      3  C   UNL     1       5.164   0.986   2.179  0.00  0.00    +0.025 A 
ATOM      4  C   UNL     1       5.354   0.331   3.416  0.00  0.00    +0.020 A 
ATOM      5  C   UNL     1       4.829  -0.910   3.304  0.00  0.00    +0.092 A 
ATOM      6  N   UNL     1       4.327  -1.045   2.054  0.00  0.00    -0.316 N 
ATOM      7  C   UNL     1       3.692  -2.139   1.447  0.00  0.00    +0.068 A 
ATOM      8  C   UNL     1       3.246  -3.221   2.180  0.00  0.00    +0.028 A 
ATOM      9  C   UNL     1       2.617  -4.273   1.538  0.00  0.00    +0.002 A 
ATOM     10  C   UNL     1       2.434  -4.240   0.168  0.00  0.00    +0.002 A 
ATOM     11  C   UNL     1       2.881  -3.162  -0.573  0.00  0.00    +0.025 A 
ATOM     12  C   UNL     1       3.516  -2.104   0.060  0.00  0.00    +0.061 A 
ATOM     13  N   UNL     1       3.996  -1.015  -0.683  0.00  0.00    -0.255 N 
ATOM     14  C   UNL     1       4.376  -1.187  -1.964  0.00  0.00    +0.238 C 
ATOM     15  O   UNL     1       4.394  -2.299  -2.447  0.00  0.00    -0.273 OA
ENDROOT
BRANCH   1  19
ATOM     16  C   UNL     1       0.253   2.206  -0.141  0.00  0.00    +0.000 A 
ATOM     17  C   UNL     1       1.395   2.948  -0.379  0.00  0.00    +0.000 A 
ATOM     18  C   UNL     1       2.635   2.337  -0.353  0.00  0.00    +0.006 A 
ATOM     19  C   UNL     1       2.733   0.984  -0.089  0.00  0.00    -0.021 A 
ATOM     20  C   UNL     1       1.591   0.242   0.150  0.00  0.00    +0.006 A 
ATOM     21  C   UNL     1       0.351   0.853   0.123  0.00  0.00    +0.000 A 
ENDBRANCH   1  19
BRANCH  14  22
ATOM     22  C   UNL     1       4.781   0.002  -2.796  0.00  0.00    +0.205 C 
BRANCH  22  23
ATOM     23  N   UNL     1       5.031  -0.428  -4.174  0.00  0.00    -0.274 N 
ATOM     24  C   UNL     1       6.266  -0.822  -4.543  0.00  0.00    +0.307 C 
ATOM     25  O   UNL     1       7.191  -0.735  -3.760  0.00  0.00    -0.252 OA
ATOM     26  N   UNL     1       6.475  -1.311  -5.782  0.00  0.00    -0.267 N 
ATOM     27  H   UNL     1       5.752  -1.318  -6.429  0.00  0.00    +0.156 HD
BRANCH  26  28
ATOM     28  C   UNL     1       7.735  -1.810  -6.134  0.00  0.00    +0.070 A 
ATOM     29  C   UNL     1       8.648  -2.153  -5.147  0.00  0.00    +0.026 A 
ATOM     30  C   UNL     1       9.891  -2.645  -5.497  0.00  0.00    +0.002 A 
ATOM     31  C   UNL     1      10.227  -2.796  -6.830  0.00  0.00    +0.003 A 
ATOM     32  C   UNL     1       9.320  -2.455  -7.817  0.00  0.00    +0.040 A 
ATOM     33  C   UNL     1       8.073  -1.968  -7.474  0.00  0.00    +0.145 A 
ATOM     34  F   UNL     1       7.185  -1.641  -8.438  0.00  0.00    -0.204 F 
ENDBRANCH  26  28
BRANCH  23  35
ATOM     35  C   UNL     1       3.939  -0.430  -5.150  0.00  0.00    +0.078 C 
ATOM     36  C   UNL     1       2.543  -0.051  -4.650  0.00  0.00    +0.024 C 
ATOM     37  C   UNL     1       3.330   0.920  -5.533  0.00  0.00    +0.024 C 
ENDBRANCH  23  35
ENDBRANCH  22  23
ENDBRANCH  14  22
TORSDOF 5
