REMARK  Name = ZINC40315377
REMARK  11 active torsions:
REMARK  status: ('A' for Active; 'I' for Inactive)
REMARK    1  A    between atoms: C_1  and  C_2
REMARK    2  A    between atoms: C_6  and  O_9
REMARK    3  A    between atoms: C_7  and  C_8
REMARK    4  A    between atoms: O_9  and  C_10
REMARK    5  A    between atoms: C_10  and  C_11
REMARK    6  A    between atoms: C_11  and  C_13
REMARK    7  A    between atoms: C_11  and  O_32
REMARK    8  A    between atoms: C_13  and  N_14
REMARK    9  A    between atoms: N_14  and  C_15
REMARK   10  A    between atoms: N_14  and  C_24
REMARK   11  A    between atoms: C_15  and  C_16
REMARK                            x       y       z     vdW  Elec       q    Type
REMARK                         _______ _______ _______ _____ _____    ______ ____
ROOT
ATOM      1  N   UNL     1       1.276  -7.383   4.663  0.00  0.00    +0.387 N 
ATOM      2  H   UNL     1       2.176  -7.727   4.961  0.00  0.00    -0.081 HD
ENDROOT
BRANCH   1   3
ATOM      3  C   UNL     1       0.903  -6.217   5.474  0.00  0.00    -0.045 C 
ATOM      4  C   UNL     1       2.031  -5.173   5.432  0.00  0.00    +0.009 C 
ATOM      5  C   UNL     1       1.798  -4.099   6.522  0.00  0.00    +0.164 C 
ATOM      6  S   UNL     1       0.863  -5.025   7.807  0.00  0.00    -0.033 S 
ATOM      7  O   UNL     1      -0.427  -4.446   7.948  0.00  0.00    -0.174 OA
ATOM      8  O   UNL     1       1.687  -5.184   8.954  0.00  0.00    -0.174 OA
ATOM      9  C   UNL     1       0.701  -6.650   6.955  0.00  0.00    +0.151 C 
ENDBRANCH   1   3
BRANCH   1  10
ATOM     10  C   UNL     1       1.345  -6.993   3.248  0.00  0.00    -0.043 C 
BRANCH  10  11
ATOM     11  C   UNL     1       2.762  -6.517   2.919  0.00  0.00    +0.135 C 
BRANCH  11  12
ATOM     12  O   UNL     1       3.689  -7.577   3.164  0.00  0.00    -0.390 OA
ATOM     13  H   UNL     1       3.526  -8.372   2.638  0.00  0.00    +0.210 HD
ENDBRANCH  11  12
BRANCH  11  14
ATOM     14  C   UNL     1       2.833  -6.107   1.447  0.00  0.00    +0.258 C 
BRANCH  14  15
ATOM     15  O   UNL     1       4.121  -5.554   1.168  0.00  0.00    -0.489 OA
BRANCH  15  21
ATOM     16  C   UNL     1       7.146  -3.571  -2.109  0.00  0.00    +0.044 C 
ATOM     17  C   UNL     1       5.811  -4.166  -1.739  0.00  0.00    -0.044 A 
ATOM     18  C   UNL     1       4.819  -4.286  -2.695  0.00  0.00    +0.004 A 
ATOM     19  C   UNL     1       3.594  -4.831  -2.358  0.00  0.00    +0.004 A 
ATOM     20  C   UNL     1       3.358  -5.256  -1.065  0.00  0.00    +0.046 A 
ATOM     21  C   UNL     1       4.351  -5.137  -0.104  0.00  0.00    +0.124 A 
ATOM     22  C   UNL     1       5.582  -4.595  -0.446  0.00  0.00    -0.006 A 
ATOM     23  C   UNL     1       6.666  -4.469   0.594  0.00  0.00    +0.048 C 
ENDBRANCH  15  21
ENDBRANCH  14  15
ENDBRANCH  11  14
ENDBRANCH  10  11
ENDBRANCH   1  10
BRANCH   1  24
ATOM     24  C   UNL     1       0.268  -8.439   4.830  0.00  0.00    -0.041 C 
BRANCH  24  25
ATOM     25  C   UNL     1       0.498  -9.149   6.139  0.00  0.00    -0.046 A 
ATOM     26  C   UNL     1       1.784  -9.315   6.619  0.00  0.00    +0.004 A 
ATOM     27  C   UNL     1       1.996  -9.966   7.820  0.00  0.00    +0.020 A 
ATOM     28  C   UNL     1       0.920 -10.453   8.542  0.00  0.00    +0.042 A 
ATOM     29  C   UNL     1      -0.366 -10.287   8.063  0.00  0.00    +0.040 A 
ATOM     30  C   UNL     1      -0.578  -9.630   6.863  0.00  0.00    +0.044 A 
ATOM     31 CL   UNL     1      -2.193  -9.416   6.264  0.00  0.00    -0.083 Cl
ATOM     32 CL   UNL     1       1.186 -11.271  10.050  0.00  0.00    -0.083 Cl
ENDBRANCH  24  25
ENDBRANCH   1  24
TORSDOF 9
