REMARK  Name = ZINC40804471
REMARK  10 active torsions:
REMARK  status: ('A' for Active; 'I' for Inactive)
REMARK    1  A    between atoms: C_1  and  C_2
REMARK    2  A    between atoms: C_5  and  C_8
REMARK    3  A    between atoms: N_10  and  N_11
REMARK    4  A    between atoms: C_18  and  C_34
REMARK    5  A    between atoms: C_19  and  C_21
REMARK    6  A    between atoms: N_23  and  C_24
REMARK    7  A    between atoms: C_26  and  O_32
REMARK    8  A    between atoms: C_29  and  O_30
REMARK    9  A    between atoms: O_30  and  C_31
REMARK   10  A    between atoms: O_32  and  C_33
REMARK                            x       y       z     vdW  Elec       q    Type
REMARK                         _______ _______ _______ _____ _____    ______ ____
ROOT
ATOM      1  N   UNL     1       0.142  -6.334   1.121  0.00  0.00    -0.184 NA
ATOM      2  C   UNL     1       0.155  -6.987   2.243  0.00  0.00    +0.070 C 
ATOM      3  C   UNL     1       0.154  -6.287   3.595  0.00  0.00    +0.058 C 
ATOM      4  C   UNL     1       1.145  -7.014   4.511  0.00  0.00    +0.014 C 
ATOM      5  C   UNL     1       0.678  -8.446   4.783  0.00  0.00    +0.075 C 
ATOM      6  C   UNL     1       0.410  -9.143   3.473  0.00  0.00    +0.115 A 
ATOM      7  C   UNL     1       0.164  -8.465   2.301  0.00  0.00    +0.042 A 
ATOM      8  C   UNL     1      -0.043  -9.419   1.297  0.00  0.00    +0.009 A 
ATOM      9  C   UNL     1       0.076 -10.640   1.900  0.00  0.00    +0.193 A 
ATOM     10  O   UNL     1       0.356 -10.447   3.212  0.00  0.00    -0.454 OA
ATOM     11  C   UNL     1      -0.340  -9.154  -0.156  0.00  0.00    +0.048 C 
ENDROOT
BRANCH   1  14
ATOM     12  C   UNL     1       0.120  -4.255  -0.038  0.00  0.00    +0.263 C 
ATOM     13  O   UNL     1       0.115  -4.859  -1.093  0.00  0.00    -0.268 OA
ATOM     14  N   UNL     1       0.133  -4.933   1.127  0.00  0.00    -0.203 N 
ATOM     15  H   UNL     1       0.137  -4.451   1.968  0.00  0.00    +0.178 HD
BRANCH  12  20
ATOM     16  C   UNL     1       0.083   1.499  -0.017  0.00  0.00    +0.044 C 
ATOM     17  C   UNL     1       0.092  -0.007  -0.023  0.00  0.00    -0.050 A 
ATOM     18  C   UNL     1       0.088  -0.692  -1.225  0.00  0.00    +0.004 A 
ATOM     19  C   UNL     1       0.097  -2.071  -1.237  0.00  0.00    +0.013 A 
ATOM     20  C   UNL     1       0.111  -2.777  -0.033  0.00  0.00    +0.038 A 
ATOM     21  C   UNL     1       0.115  -2.080   1.177  0.00  0.00    +0.013 A 
ATOM     22  C   UNL     1       0.111  -0.701   1.175  0.00  0.00    +0.004 A 
ENDBRANCH  12  20
ENDBRANCH   1  14
BRANCH   9  23
ATOM     23  C   UNL     1      -0.063 -11.941   1.237  0.00  0.00    +0.284 C 
ATOM     24  O   UNL     1      -0.306 -11.994   0.045  0.00  0.00    -0.266 OA
ATOM     25  N   UNL     1       0.079 -13.078   1.946  0.00  0.00    -0.276 N 
ATOM     26  H   UNL     1       0.336 -13.038   2.881  0.00  0.00    +0.155 HD
BRANCH  25  27
ATOM     27  C   UNL     1      -0.146 -14.318   1.335  0.00  0.00    +0.079 A 
ATOM     28  C   UNL     1       0.189 -14.506   0.002  0.00  0.00    +0.072 A 
ATOM     29  C   UNL     1      -0.034 -15.734  -0.601  0.00  0.00    +0.122 A 
ATOM     30  C   UNL     1      -0.593 -16.774   0.128  0.00  0.00    +0.049 A 
ATOM     31  C   UNL     1      -0.928 -16.589   1.456  0.00  0.00    +0.051 A 
ATOM     32  C   UNL     1      -0.702 -15.366   2.065  0.00  0.00    +0.141 A 
BRANCH  32  33
ATOM     33  O   UNL     1      -1.027 -15.186   3.374  0.00  0.00    -0.493 OA
ATOM     34  C   UNL     1      -1.593 -16.304   4.061  0.00  0.00    +0.277 C 
ENDBRANCH  32  33
BRANCH  29  35
ATOM     35  O   UNL     1       0.294 -15.920  -1.907  0.00  0.00    -0.495 OA
ATOM     36  C   UNL     1       0.037 -17.210  -2.464  0.00  0.00    +0.277 C 
ENDBRANCH  29  35
ENDBRANCH  25  27
ENDBRANCH   9  23
TORSDOF 6
