REMARK  Name = ZINC39596477
REMARK  11 active torsions:
REMARK  status: ('A' for Active; 'I' for Inactive)
REMARK    1  A    between atoms: C_1  and  C_2
REMARK    2  A    between atoms: C_2  and  C_3
REMARK    3  A    between atoms: C_3  and  C_5
REMARK    4  A    between atoms: C_3  and  C_6
REMARK    5  A    between atoms: C_6  and  C_7
REMARK    6  A    between atoms: C_11  and  C_20
REMARK    7  A    between atoms: N_22  and  C_23
REMARK    8  A    between atoms: C_23  and  C_24
REMARK    9  A    between atoms: C_24  and  C_26
REMARK   10  A    between atoms: C_24  and  O_27
REMARK   11  A    between atoms: O_27  and  C_28
REMARK                            x       y       z     vdW  Elec       q    Type
REMARK                         _______ _______ _______ _____ _____    ______ ____
ROOT
ATOM      1  C   UNL     1      -2.854  -2.558  -0.228  0.00  0.00    +0.216 C 
ATOM      2  O   UNL     1      -3.780  -1.776  -0.195  0.00  0.00    -0.276 OA
ATOM      3  N   UNL     1      -3.091  -3.879  -0.355  0.00  0.00    -0.300 N 
ATOM      4  C   UNL     1      -2.099  -4.979  -0.407  0.00  0.00    +0.121 C 
ATOM      5  C   UNL     1      -2.739  -6.120   0.415  0.00  0.00    +0.100 C 
ATOM      6  C   UNL     1      -4.250  -5.840   0.365  0.00  0.00    -0.004 C 
ATOM      7  C   UNL     1      -4.403  -4.559  -0.468  0.00  0.00    +0.115 C 
ATOM      8  C   UNL     1      -4.792  -5.613   1.773  0.00  0.00    -0.010 C 
ATOM      9  C   UNL     1      -6.306  -5.394   1.703  0.00  0.00    -0.082 C 
ATOM     10  N   UNL     1      -6.945  -6.567   1.094  0.00  0.00    +0.379 N 
ATOM     11  C   UNL     1      -6.487  -6.723  -0.292  0.00  0.00    -0.082 C 
ATOM     12  C   UNL     1      -4.981  -6.999  -0.306  0.00  0.00    -0.010 C 
ATOM     13  H   UNL     1      -6.703  -7.392   1.622  0.00  0.00    -0.086 HD
ATOM     14  H   UNL     1      -7.947  -6.446   1.104  0.00  0.00    -0.086 HD
ENDROOT
BRANCH   5  15
ATOM     15  C   UNL     1      -2.243  -6.084   1.838  0.00  0.00    +0.218 C 
ATOM     16  O   UNL     1      -1.847  -5.042   2.316  0.00  0.00    -0.275 OA
ATOM     17  N   UNL     1      -2.239  -7.210   2.579  0.00  0.00    -0.312 N 
ATOM     18  H   UNL     1      -2.556  -8.043   2.197  0.00  0.00    +0.149 HD
BRANCH  17  19
ATOM     19  C   UNL     1      -1.757  -7.175   3.962  0.00  0.00    +0.148 C 
BRANCH  19  20
ATOM     20  C   UNL     1      -1.859  -8.573   4.573  0.00  0.00    +0.187 C 
ATOM     21  C   UNL     1      -1.355  -8.537   6.018  0.00  0.00    +0.053 C 
BRANCH  20  22
ATOM     22  O   UNL     1      -3.222  -9.003   4.555  0.00  0.00    -0.488 OA
BRANCH  22  23
ATOM     23  C   UNL     1      -3.446 -10.344   4.556  0.00  0.00    +0.121 A 
ATOM     24  C   UNL     1      -4.737 -10.832   4.418  0.00  0.00    +0.048 A 
ATOM     25  C   UNL     1      -4.964 -12.195   4.420  0.00  0.00    +0.042 A 
ATOM     26  C   UNL     1      -3.903 -13.073   4.558  0.00  0.00    +0.124 A 
ATOM     27  C   UNL     1      -2.613 -12.588   4.696  0.00  0.00    +0.042 A 
ATOM     28  C   UNL     1      -2.383 -11.226   4.688  0.00  0.00    +0.048 A 
ATOM     29  F   UNL     1      -4.125 -14.406   4.559  0.00  0.00    -0.205 F 
ENDBRANCH  22  23
ENDBRANCH  20  22
ENDBRANCH  19  20
ENDBRANCH  17  19
ENDBRANCH   5  15
BRANCH   1  30
ATOM     30  C   UNL     1      -1.437  -2.053  -0.126  0.00  0.00    +0.099 C 
BRANCH  30  31
ATOM     31  C   UNL     1      -1.448  -0.529   0.009  0.00  0.00    -0.006 C 
ATOM     32  C   UNL     1      -2.112  -0.139   1.331  0.00  0.00    +0.008 C 
BRANCH  31  34
ATOM     33  C   UNL     1      -0.025   1.524  -0.003  0.00  0.00    +0.004 C 
ATOM     34  C   UNL     1      -0.010  -0.006  -0.013  0.00  0.00    +0.000 C 
ENDBRANCH  31  34
ENDBRANCH  30  31
ENDBRANCH   1  30
TORSDOF 8
