REMARK  Name = ZINC06691039
REMARK  8 active torsions:
REMARK  status: ('A' for Active; 'I' for Inactive)
REMARK    1  A    between atoms: C_1  and  C_2
REMARK    2  A    between atoms: C_2  and  O_3
REMARK    3  A    between atoms: O_3  and  C_4
REMARK    4  A    between atoms: C_6  and  C_12
REMARK    5  A    between atoms: C_9  and  O_10
REMARK    6  A    between atoms: N_13  and  N_14
REMARK    7  A    between atoms: C_15  and  C_17
REMARK    8  A    between atoms: C_19  and  C_23
REMARK                            x       y       z     vdW  Elec       q    Type
REMARK                         _______ _______ _______ _____ _____    ______ ____
ROOT
ATOM      1  C   UNL     1       0.620  -4.950  -0.019  0.00  0.00    +0.138 C 
ATOM      2  N   UNL     1       0.462  -6.238  -0.025  0.00  0.00    -0.187 NA
ENDROOT
BRANCH   1   5
ATOM      3  C   UNL     1      -1.498  -1.849   0.006  0.00  0.00    +0.163 A 
ATOM      4  C   UNL     1      -0.391  -2.676  -0.003  0.00  0.00    +0.059 A 
ATOM      5  C   UNL     1      -0.558  -4.063  -0.009  0.00  0.00    -0.001 A 
ATOM      6  C   UNL     1      -1.845  -4.608  -0.005  0.00  0.00    +0.028 A 
ATOM      7  C   UNL     1      -2.946  -3.777   0.004  0.00  0.00    +0.063 A 
ATOM      8  C   UNL     1      -2.778  -2.399   0.016  0.00  0.00    +0.173 A 
ATOM      9 BR   UNL     1      -4.686  -4.516   0.009  0.00  0.00    -0.046 Br
BRANCH   8  10
ATOM     10  O   UNL     1      -3.866  -1.584   0.030  0.00  0.00    -0.503 OA
ATOM     11  H   UNL     1      -4.189  -1.343  -0.849  0.00  0.00    +0.292 HD
ENDBRANCH   8  10
BRANCH   3  12
ATOM     12  O   UNL     1      -1.339  -0.499   0.012  0.00  0.00    -0.489 OA
BRANCH  12  14
ATOM     13  C   UNL     1      -0.019   1.526   0.010  0.00  0.00    +0.048 C 
ATOM     14  C   UNL     1       0.002  -0.004   0.002  0.00  0.00    +0.226 C 
ENDBRANCH  12  14
ENDBRANCH   3  12
ENDBRANCH   1   5
BRANCH   2  15
ATOM     15  N   UNL     1       1.582  -7.081  -0.035  0.00  0.00    -0.202 N 
ATOM     16  C   UNL     1       1.418  -8.419  -0.040  0.00  0.00    +0.281 C 
ATOM     17  O   UNL     1       0.299  -8.895  -0.037  0.00  0.00    -0.267 OA
ATOM     18  H   UNL     1       2.474  -6.701  -0.037  0.00  0.00    +0.178 HD
BRANCH  16  19
ATOM     19  C   UNL     1       2.594  -9.303  -0.051  0.00  0.00    +0.122 A 
ATOM     20  C   UNL     1       2.592 -10.688  -0.063  0.00  0.00    +0.057 A 
ATOM     21  C   UNL     1       3.938 -11.059  -0.069  0.00  0.00    +0.060 A 
ATOM     22  N   UNL     1       4.657  -9.965  -0.061  0.00  0.00    -0.178 NA
ATOM     23  N   UNL     1       3.906  -8.923  -0.056  0.00  0.00    -0.272 N 
ATOM     24  H   UNL     1       4.222  -8.006  -0.054  0.00  0.00    +0.189 HD
ATOM     25  C   UNL     1       4.469 -12.469  -0.083  0.00  0.00    +0.067 C 
ENDBRANCH  16  19
ENDBRANCH   2  15
TORSDOF 6
