REMARK  Name = ZINC06212360
REMARK  9 active torsions:
REMARK  status: ('A' for Active; 'I' for Inactive)
REMARK    1  A    between atoms: C_1  and  C_2
REMARK    2  A    between atoms: C_2  and  C_3
REMARK    3  A    between atoms: C_2  and  C_4
REMARK    4  A    between atoms: C_2  and  C_5
REMARK    5  A    between atoms: C_8  and  C_11
REMARK    6  A    between atoms: C_14  and  S_22
REMARK    7  A    between atoms: N_15  and  C_16
REMARK    8  A    between atoms: S_22  and  C_23
REMARK    9  A    between atoms: C_23  and  C_24
REMARK                            x       y       z     vdW  Elec       q    Type
REMARK                         _______ _______ _______ _____ _____    ______ ____
ROOT
ATOM      1  C   UNL     1       1.043   0.365   4.646  0.00  0.00    +0.165 A 
ATOM      2  N   UNL     1       1.915   0.221   3.676  0.00  0.00    -0.128 NA
ATOM      3  N   UNL     1       1.352   0.443   2.543  0.00  0.00    -0.122 NA
ATOM      4  C   UNL     1       0.087   0.752   2.721  0.00  0.00    +0.193 A 
ATOM      5  N   UNL     1      -0.155   0.710   4.064  0.00  0.00    -0.299 N 
ENDROOT
BRANCH   1   9
ATOM      6  C   UNL     1       1.780  -0.138   8.799  0.00  0.00    -0.042 A 
ATOM      7  C   UNL     1       2.484  -0.893   7.878  0.00  0.00    +0.005 A 
ATOM      8  C   UNL     1       2.250  -0.735   6.528  0.00  0.00    +0.012 A 
ATOM      9  C   UNL     1       1.300   0.190   6.092  0.00  0.00    +0.019 A 
ATOM     10  C   UNL     1       0.597   0.953   7.026  0.00  0.00    +0.012 A 
ATOM     11  C   UNL     1       0.838   0.781   8.373  0.00  0.00    +0.005 A 
BRANCH   6  13
ATOM     12  C   UNL     1       3.508   0.003  10.572  0.00  0.00    +0.015 C 
ATOM     13  C   UNL     1       2.042  -0.317  10.272  0.00  0.00    -0.013 C 
ATOM     14  C   UNL     1       1.140   0.629  11.069  0.00  0.00    +0.015 C 
ATOM     15  C   UNL     1       1.743  -1.763  10.672  0.00  0.00    +0.015 C 
ENDBRANCH   6  13
ENDBRANCH   1   9
BRANCH   5  16
ATOM     16  C   UNL     1      -1.425   0.976   4.744  0.00  0.00    +0.091 C 
ATOM     17  C   UNL     1      -2.516   0.078   4.157  0.00  0.00    +0.025 C 
ATOM     18  C   UNL     1      -3.842   0.356   4.867  0.00  0.00    +0.002 C 
ATOM     19  C   UNL     1      -4.229   1.824   4.670  0.00  0.00    +0.000 C 
ATOM     20  C   UNL     1      -3.138   2.721   5.257  0.00  0.00    +0.002 C 
ATOM     21  C   UNL     1      -1.811   2.443   4.547  0.00  0.00    +0.025 C 
ENDBRANCH   5  16
BRANCH   4  22
ATOM     22  S   UNL     1      -1.082   1.141   1.460  0.00  0.00    -0.077 S 
BRANCH  22  23
ATOM     23  C   UNL     1      -0.028   0.989  -0.003  0.00  0.00    +0.173 C 
BRANCH  23  24
ATOM     24  C   UNL     1      -0.838   1.286  -1.239  0.00  0.00    +0.231 C 
ATOM     25  O   UNL     1      -2.012   1.572  -1.139  0.00  0.00    -0.274 OA
ATOM     26  N   UNL     1      -0.257   1.234  -2.454  0.00  0.00    -0.240 N 
ATOM     27  C   UNL     1      -0.982   1.499  -3.559  0.00  0.00    +0.303 C 
ATOM     28  O   UNL     1      -2.159   1.786  -3.459  0.00  0.00    -0.253 OA
ATOM     29  N   UNL     1      -0.401   1.447  -4.774  0.00  0.00    -0.313 N 
ATOM     30  H   UNL     1       0.808   0.974  -2.544  0.00  0.00    +0.159 HD
ATOM     31  H   UNL     1      -0.993   1.664  -5.676  0.00  0.00    +0.146 HD
ATOM     32  H   UNL     1       0.664   1.187  -4.864  0.00  0.00    +0.146 HD
ENDBRANCH  23  24
ENDBRANCH  22  23
ENDBRANCH   4  22
TORSDOF 6
