REMARK  Name = ZINC14117206
REMARK  11 active torsions:
REMARK  status: ('A' for Active; 'I' for Inactive)
REMARK    1  A    between atoms: C_1  and  C_2
REMARK    2  A    between atoms: C_5  and  C_31
REMARK    3  A    between atoms: C_6  and  O_8
REMARK    4  A    between atoms: O_8  and  C_9
REMARK    5  A    between atoms: C_9  and  C_10
REMARK    6  A    between atoms: C_13  and  S_16
REMARK    7  A    between atoms: N_14  and  C_15
REMARK    8  A    between atoms: S_16  and  C_17
REMARK    9  A    between atoms: C_17  and  C_18
REMARK   10  A    between atoms: N_20  and  C_21
REMARK   11  A    between atoms: C_23  and  N_28
REMARK                            x       y       z     vdW  Elec       q    Type
REMARK                         _______ _______ _______ _____ _____    ______ ____
ROOT
ATOM      1  C   UNL     1       0.065  -2.888   4.785  0.00  0.00    +0.172 A 
ATOM      2  N   UNL     1      -0.975  -3.383   5.393  0.00  0.00    -0.130 NA
ATOM      3  N   UNL     1      -0.601  -4.144   6.359  0.00  0.00    -0.122 NA
ATOM      4  C   UNL     1       0.710  -4.175   6.420  0.00  0.00    +0.192 A 
ATOM      5  N   UNL     1       1.176  -3.379   5.414  0.00  0.00    -0.306 N 
ATOM      6  C   UNL     1       2.576  -3.104   5.080  0.00  0.00    +0.153 C 
ENDROOT
BRANCH   1   7
ATOM      7  C   UNL     1       0.048  -1.953   3.603  0.00  0.00    +0.305 C 
BRANCH   7   8
ATOM      8  O   UNL     1       0.049  -2.714   2.394  0.00  0.00    -0.484 OA
BRANCH   8  14
ATOM      9  C   UNL     1      -0.013   1.581   0.077  0.00  0.00    +0.044 C 
ATOM     10  C   UNL     1       0.004   0.075   0.058  0.00  0.00    -0.047 A 
ATOM     11  C   UNL     1       0.004  -0.601  -1.149  0.00  0.00    +0.004 A 
ATOM     12  C   UNL     1       0.020  -1.983  -1.170  0.00  0.00    +0.007 A 
ATOM     13  C   UNL     1       0.035  -2.693   0.015  0.00  0.00    -0.009 A 
ATOM     14  C   UNL     1       0.034  -2.018   1.227  0.00  0.00    +0.124 A 
ATOM     15  C   UNL     1       0.025  -0.631   1.245  0.00  0.00    +0.049 A 
ATOM     16  C   UNL     1       0.050  -4.200  -0.009  0.00  0.00    +0.047 C 
ENDBRANCH   8  14
ENDBRANCH   7   8
ENDBRANCH   1   7
BRANCH   4  17
ATOM     17  S   UNL     1       1.683  -5.080   7.577  0.00  0.00    -0.077 S 
BRANCH  17  18
ATOM     18  C   UNL     1       0.459  -5.921   8.619  0.00  0.00    +0.173 C 
BRANCH  18  19
ATOM     19  C   UNL     1       1.168  -6.741   9.665  0.00  0.00    +0.228 C 
ATOM     20  O   UNL     1       2.380  -6.756   9.705  0.00  0.00    -0.275 OA
ATOM     21  N   UNL     1       0.456  -7.457  10.557  0.00  0.00    -0.284 N 
ATOM     22  H   UNL     1      -0.512  -7.394  10.567  0.00  0.00    +0.155 HD
BRANCH  21  23
ATOM     23  C   UNL     1       1.112  -8.292  11.469  0.00  0.00    +0.054 A 
ATOM     24  C   UNL     1       2.348  -7.924  11.985  0.00  0.00    +0.057 A 
ATOM     25  C   UNL     1       2.993  -8.749  12.884  0.00  0.00    +0.128 A 
ATOM     26  C   UNL     1       2.410  -9.942  13.273  0.00  0.00    +0.034 A 
ATOM     27  C   UNL     1       1.180 -10.312  12.762  0.00  0.00    +0.024 A 
ATOM     28  C   UNL     1       0.526  -9.488  11.865  0.00  0.00    +0.062 A 
ATOM     29 CL   UNL     1      -1.022  -9.950  11.229  0.00  0.00    -0.082 Cl
BRANCH  25  30
ATOM     30  N   UNL     1       4.310  -8.357  13.434  0.00  0.00    +0.056 N 
ATOM     31  O   UNL     1       4.821  -7.315  13.095  0.00  0.00    -0.126 OA
ATOM     32  O   UNL     1       4.876  -9.079  14.222  0.00  0.00    -0.126 OA
ENDBRANCH  25  30
ENDBRANCH  21  23
ENDBRANCH  18  19
ENDBRANCH  17  18
ENDBRANCH   4  17
TORSDOF 8
