REMARK  Name = ZINC36167864
REMARK  14 active torsions:
REMARK  status: ('A' for Active; 'I' for Inactive)
REMARK    1  A    between atoms: C_1  and  C_2
REMARK    2  A    between atoms: C_7  and  C_8
REMARK    3  A    between atoms: C_8  and  C_9
REMARK    4  A    between atoms: C_8  and  C_16
REMARK    5  A    between atoms: C_8  and  O_35
REMARK    6  A    between atoms: C_14  and  C_15
REMARK    7  A    between atoms: C_19  and  C_21
REMARK    8  A    between atoms: C_21  and  N_22
REMARK    9  A    between atoms: N_22  and  C_23
REMARK   10  A    between atoms: N_22  and  C_27
REMARK   11  A    between atoms: C_23  and  C_24
REMARK   12  A    between atoms: C_24  and  O_25
REMARK   13  A    between atoms: O_25  and  C_26
REMARK   14  A    between atoms: C_27  and  C_28
REMARK                            x       y       z     vdW  Elec       q    Type
REMARK                         _______ _______ _______ _____ _____    ______ ____
ROOT
ATOM      1  C   UNL     1      -1.768  -0.413   1.639  0.00  0.00    +0.146 A 
ATOM      2  C   UNL     1      -2.144  -0.375   2.930  0.00  0.00    +0.048 A 
ATOM      3  C   UNL     1      -3.274   0.471   3.002  0.00  0.00    +0.043 A 
ATOM      4  C   UNL     1      -3.520   0.900   1.751  0.00  0.00    +0.089 A 
ATOM      5  O   UNL     1      -2.601   0.366   0.931  0.00  0.00    -0.463 OA
ENDROOT
BRANCH   1   6
ATOM      6  C   UNL     1      -0.604  -1.193   1.083  0.00  0.00    +0.174 C 
BRANCH   6  13
ATOM      7  C   UNL     1      -3.065  -2.097  -0.130  0.00  0.00    +0.044 C 
ATOM      8  C   UNL     1      -1.898  -1.701  -0.998  0.00  0.00    -0.044 A 
ATOM      9  C   UNL     1      -2.007  -1.765  -2.374  0.00  0.00    +0.004 A 
ATOM     10  C   UNL     1      -0.937  -1.402  -3.170  0.00  0.00    +0.000 A 
ATOM     11  C   UNL     1       0.242  -0.974  -2.590  0.00  0.00    +0.000 A 
ATOM     12  C   UNL     1       0.351  -0.909  -1.214  0.00  0.00    +0.007 A 
ATOM     13  C   UNL     1      -0.721  -1.268  -0.417  0.00  0.00    -0.001 A 
ENDBRANCH   6  13
BRANCH   6  14
ATOM     14  C   UNL     1       0.685  -0.503   1.452  0.00  0.00    -0.001 A 
ATOM     15  C   UNL     1       1.685  -1.207   2.096  0.00  0.00    +0.007 A 
ATOM     16  C   UNL     1       2.867  -0.575   2.435  0.00  0.00    +0.000 A 
ATOM     17  C   UNL     1       3.048   0.761   2.129  0.00  0.00    +0.000 A 
ATOM     18  C   UNL     1       2.048   1.464   1.484  0.00  0.00    +0.004 A 
ATOM     19  C   UNL     1       0.868   0.831   1.142  0.00  0.00    -0.044 A 
ATOM     20  C   UNL     1      -0.220   1.597   0.434  0.00  0.00    +0.044 C 
ENDBRANCH   6  14
BRANCH   6  21
ATOM     21  O   UNL     1      -0.611  -2.513   1.629  0.00  0.00    -0.372 OA
ATOM     22  H   UNL     1      -1.354  -3.057   1.334  0.00  0.00    +0.212 HD
ENDBRANCH   6  21
ENDBRANCH   1   6
BRANCH   4  23
ATOM     23  C   UNL     1      -4.635   1.828   1.341  0.00  0.00    -0.003 C 
BRANCH  23  24
ATOM     24  N   UNL     1      -4.137   3.209   1.312  0.00  0.00    +0.389 N 
ATOM     25  H   UNL     1      -3.718   3.435   2.202  0.00  0.00    -0.081 HD
BRANCH  24  26
ATOM     26  C   UNL     1      -3.132   3.345   0.249  0.00  0.00    -0.049 C 
BRANCH  26  27
ATOM     27  C   UNL     1      -2.548   4.759   0.277  0.00  0.00    +0.141 C 
BRANCH  27  28
ATOM     28  O   UNL     1      -1.911   4.987   1.536  0.00  0.00    -0.385 OA
ATOM     29  C   UNL     1      -1.330   6.286   1.667  0.00  0.00    +0.193 C 
ENDBRANCH  27  28
ENDBRANCH  26  27
ENDBRANCH  24  26
BRANCH  24  30
ATOM     30  C   UNL     1      -5.253   4.127   1.050  0.00  0.00    -0.039 C 
BRANCH  30  31
ATOM     31  C   UNL     1      -6.254   4.034   2.173  0.00  0.00    -0.029 A 
ATOM     32  C   UNL     1      -7.450   3.368   1.979  0.00  0.00    +0.004 A 
ATOM     33  C   UNL     1      -8.368   3.282   3.009  0.00  0.00    +0.000 A 
ATOM     34  C   UNL     1      -8.092   3.862   4.233  0.00  0.00    +0.003 A 
ATOM     35  C   UNL     1      -6.897   4.527   4.429  0.00  0.00    +0.038 A 
ATOM     36  C   UNL     1      -5.974   4.609   3.400  0.00  0.00    +0.125 A 
ATOM     37  F   UNL     1      -4.803   5.256   3.592  0.00  0.00    -0.205 F 
ENDBRANCH  30  31
ENDBRANCH  24  30
ENDBRANCH  23  24
ENDBRANCH   4  23
TORSDOF 11
