REMARK  Name = ZINC22073836
REMARK  9 active torsions:
REMARK  status: ('A' for Active; 'I' for Inactive)
REMARK    1  A    between atoms: C_1  and  C_2
REMARK    2  A    between atoms: C_2  and  O_3
REMARK    3  A    between atoms: O_3  and  C_4
REMARK    4  A    between atoms: C_6  and  C_20
REMARK    5  A    between atoms: C_9  and  O_10
REMARK    6  A    between atoms: O_10  and  C_11
REMARK    7  A    between atoms: C_11  and  C_12
REMARK    8  A    between atoms: C_20  and  N_21
REMARK    9  A    between atoms: N_21  and  C_22
REMARK                            x       y       z     vdW  Elec       q    Type
REMARK                         _______ _______ _______ _____ _____    ______ ____
ROOT
ATOM      1  C   UNL     1       1.657   9.250  -2.589  0.00  0.00    +0.163 A 
ATOM      2  C   UNL     1       1.671   7.865  -2.633  0.00  0.00    +0.051 A 
ATOM      3  C   UNL     1       0.486   7.159  -2.540  0.00  0.00    -0.060 A 
ATOM      4  C   UNL     1      -0.715   7.832  -2.408  0.00  0.00    +0.021 A 
ATOM      5  C   UNL     1      -0.735   9.214  -2.358  0.00  0.00    +0.063 A 
ATOM      6  C   UNL     1       0.450   9.928  -2.451  0.00  0.00    +0.176 A 
ATOM      7 BR   UNL     1      -2.378  10.130  -2.170  0.00  0.00    -0.046 Br
ENDROOT
BRANCH   1   8
ATOM      8  O   UNL     1       2.822   9.946  -2.681  0.00  0.00    -0.489 OA
BRANCH   8  10
ATOM      9  C   UNL     1       5.221  10.132  -2.909  0.00  0.00    +0.048 C 
ATOM     10  C   UNL     1       4.024   9.184  -2.822  0.00  0.00    +0.226 C 
ENDBRANCH   8  10
ENDBRANCH   1   8
BRANCH   6  11
ATOM     11  O   UNL     1       0.432  11.287  -2.408  0.00  0.00    -0.483 OA
BRANCH  11  12
ATOM     12  C   UNL     1       0.301  11.974  -3.653  0.00  0.00    +0.264 C 
BRANCH  12  13
ATOM     13  C   UNL     1       0.300  13.461  -3.409  0.00  0.00    -0.010 A 
ATOM     14  C   UNL     1      -0.892  14.124  -3.188  0.00  0.00    +0.010 A 
ATOM     15  C   UNL     1      -0.893  15.487  -2.959  0.00  0.00    +0.039 A 
ATOM     16  C   UNL     1       0.299  16.190  -2.962  0.00  0.00    +0.123 A 
ATOM     17  C   UNL     1       1.493  15.526  -3.189  0.00  0.00    +0.039 A 
ATOM     18  C   UNL     1       1.492  14.162  -3.413  0.00  0.00    +0.010 A 
ATOM     19  F   UNL     1       0.299  17.523  -2.743  0.00  0.00    -0.205 F 
ENDBRANCH  12  13
ENDBRANCH  11  12
ENDBRANCH   6  11
BRANCH   3  20
ATOM     20  C   UNL     1       0.502   5.653  -2.588  0.00  0.00    -0.046 C 
BRANCH  20  21
ATOM     21  N   UNL     1       0.642   5.121  -1.226  0.00  0.00    +0.384 N 
ATOM     22  H   UNL     1       1.582   5.484  -0.785  0.00  0.00    -0.085 HD
ATOM     23  H   UNL     1      -0.206   5.459  -0.612  0.00  0.00    -0.085 HD
BRANCH  21  24
ATOM     24  C   UNL     1       0.662   3.652  -1.234  0.00  0.00    -0.065 C 
ATOM     25  C   UNL     1       1.402   3.145   0.006  0.00  0.00    -0.024 C 
ATOM     26  C   UNL     1       1.423   1.615  -0.003  0.00  0.00    +0.005 C 
ATOM     27  C   UNL     1      -0.013   1.086   0.008  0.00  0.00    -0.010 C 
ATOM     28  C   UNL     1      -0.729   1.579   1.267  0.00  0.00    +0.007 C 
ATOM     29  C   UNL     1      -0.750   3.109   1.275  0.00  0.00    -0.010 C 
ATOM     30  C   UNL     1       0.686   3.639   1.264  0.00  0.00    +0.005 C 
ATOM     31  C   UNL     1      -1.490   3.616   0.036  0.00  0.00    +0.005 C 
ATOM     32  C   UNL     1      -0.773   3.123  -1.223  0.00  0.00    -0.024 C 
ATOM     33  C   UNL     1      -0.753   1.593  -1.232  0.00  0.00    +0.005 C 
ENDBRANCH  21  24
ENDBRANCH  20  21
ENDBRANCH   3  20
TORSDOF 8
