REMARK  Name = ZINC13150195
REMARK  13 active torsions:
REMARK  status: ('A' for Active; 'I' for Inactive)
REMARK    1  A    between atoms: C_1  and  C_2
REMARK    2  A    between atoms: C_2  and  O_3
REMARK    3  A    between atoms: O_3  and  C_4
REMARK    4  A    between atoms: C_7  and  N_10
REMARK    5  A    between atoms: N_12  and  C_29
REMARK    6  A    between atoms: C_15  and  C_18
REMARK    7  A    between atoms: C_18  and  C_19
REMARK    8  A    between atoms: C_19  and  C_21
REMARK    9  A    between atoms: C_24  and  O_27
REMARK   10  A    between atoms: O_27  and  C_28
REMARK   11  A    between atoms: C_32  and  O_35
REMARK   12  A    between atoms: O_35  and  C_36
REMARK   13  A    between atoms: C_36  and  C_37
REMARK                            x       y       z     vdW  Elec       q    Type
REMARK                         _______ _______ _______ _____ _____    ______ ____
ROOT
ATOM      1  N   UNL     1      -2.291   4.458  -0.770  0.00  0.00    -0.225 NA
ATOM      2  C   UNL     1      -3.333   3.763  -1.159  0.00  0.00    +0.168 C 
ATOM      3  N   UNL     1      -4.665   3.989  -0.871  0.00  0.00    -0.218 N 
ATOM      4  C   UNL     1      -5.629   3.211  -1.332  0.00  0.00    +0.239 C 
ATOM      5  O   UNL     1      -6.797   3.415  -1.080  0.00  0.00    -0.274 OA
ATOM      6  C   UNL     1      -5.181   2.039  -2.191  0.00  0.00    +0.148 C 
ATOM      7  S   UNL     1      -3.363   2.297  -2.180  0.00  0.00    -0.076 S 
ENDROOT
BRANCH   1  11
ATOM      8  C   UNL     1       1.516   3.306  -1.928  0.00  0.00    +0.121 A 
ATOM      9  C   UNL     1       0.615   2.356  -1.468  0.00  0.00    +0.048 A 
ATOM     10  C   UNL     1      -0.655   2.734  -1.087  0.00  0.00    +0.031 A 
ATOM     11  C   UNL     1      -1.031   4.077  -1.153  0.00  0.00    +0.067 A 
ATOM     12  C   UNL     1      -0.122   5.030  -1.617  0.00  0.00    +0.031 A 
ATOM     13  C   UNL     1       1.145   4.642  -2.001  0.00  0.00    +0.048 A 
BRANCH   8  14
ATOM     14  O   UNL     1       2.765   2.928  -2.308  0.00  0.00    -0.492 OA
BRANCH  14  16
ATOM     15  C   UNL     1       4.992   3.345  -3.151  0.00  0.00    +0.048 C 
ATOM     16  C   UNL     1       3.642   3.957  -2.772  0.00  0.00    +0.225 C 
ENDBRANCH  14  16
ENDBRANCH   8  14
ENDBRANCH   1  11
BRANCH   3  17
ATOM     17  C   UNL     1      -5.006   5.086  -0.065  0.00  0.00    +0.043 A 
ATOM     18  C   UNL     1      -5.265   6.320  -0.646  0.00  0.00    +0.027 A 
ATOM     19  C   UNL     1      -5.606   7.398   0.147  0.00  0.00    +0.047 A 
ATOM     20  C   UNL     1      -5.680   7.250   1.524  0.00  0.00    +0.121 A 
ATOM     21  C   UNL     1      -5.417   6.018   2.106  0.00  0.00    +0.047 A 
ATOM     22  C   UNL     1      -5.081   4.938   1.313  0.00  0.00    +0.027 A 
BRANCH  20  23
ATOM     23  O   UNL     1      -6.011   8.313   2.305  0.00  0.00    -0.492 OA
BRANCH  23  24
ATOM     24  C   UNL     1      -6.269   9.551   1.640  0.00  0.00    +0.225 C 
ATOM     25  C   UNL     1      -6.623  10.621   2.674  0.00  0.00    +0.048 C 
ENDBRANCH  23  24
ENDBRANCH  20  23
ENDBRANCH   3  17
BRANCH   6  26
ATOM     26  C   UNL     1      -5.747   2.144  -3.608  0.00  0.00    +0.103 C 
BRANCH  26  27
ATOM     27  C   UNL     1      -5.229   1.000  -4.442  0.00  0.00    +0.165 C 
ATOM     28  O   UNL     1      -4.481   0.182  -3.950  0.00  0.00    -0.292 OA
BRANCH  27  29
ATOM     29  C   UNL     1      -5.630   0.877  -5.849  0.00  0.00    +0.018 A 
ATOM     30  C   UNL     1      -6.498   1.817  -6.418  0.00  0.00    +0.015 A 
ATOM     31  C   UNL     1      -6.866   1.700  -7.733  0.00  0.00    +0.046 A 
ATOM     32  C   UNL     1      -6.386   0.643  -8.500  0.00  0.00    +0.120 A 
ATOM     33  C   UNL     1      -5.528  -0.297  -7.939  0.00  0.00    +0.046 A 
ATOM     34  C   UNL     1      -5.150  -0.185  -6.626  0.00  0.00    +0.015 A 
BRANCH  32  35
ATOM     35  O   UNL     1      -6.757   0.529  -9.800  0.00  0.00    -0.495 OA
ATOM     36  C   UNL     1      -7.641   1.528 -10.313  0.00  0.00    +0.277 C 
ENDBRANCH  32  35
ENDBRANCH  27  29
ENDBRANCH  26  27
ENDBRANCH   6  26
TORSDOF 10
