REMARK  Name = ZINC54477436
REMARK  12 active torsions:
REMARK  status: ('A' for Active; 'I' for Inactive)
REMARK    1  A    between atoms: C_1  and  C_2
REMARK    2  A    between atoms: C_2  and  C_3
REMARK    3  A    between atoms: C_3  and  C_5
REMARK    4  A    between atoms: C_3  and  N_6
REMARK    5  A    between atoms: C_7  and  C_9
REMARK    6  A    between atoms: C_12  and  N_15
REMARK    7  A    between atoms: N_18  and  C_19
REMARK    8  A    between atoms: C_19  and  C_20
REMARK    9  A    between atoms: C_20  and  C_22
REMARK   10  A    between atoms: C_20  and  N_27
REMARK   11  A    between atoms: N_27  and  C_28
REMARK   12  A    between atoms: N_27  and  C_29
REMARK                            x       y       z     vdW  Elec       q    Type
REMARK                         _______ _______ _______ _____ _____    ______ ____
ROOT
ATOM      1  N   UNL     1      -6.000   1.743  -6.088  0.00  0.00    -0.269 N 
ATOM      2  C   UNL     1      -7.342   1.636  -6.148  0.00  0.00    +0.304 C 
ATOM      3  O   UNL     1      -7.973   1.344  -5.151  0.00  0.00    -0.253 OA
ATOM      4  N   UNL     1      -7.984   1.853  -7.313  0.00  0.00    -0.300 N 
ATOM      5  H   UNL     1      -5.502   2.043  -6.864  0.00  0.00    +0.156 HD
ATOM      6  H   UNL     1      -7.480   2.087  -8.108  0.00  0.00    +0.150 HD
ENDROOT
BRANCH   1  10
ATOM      7  C   UNL     1      -3.989   0.787  -2.567  0.00  0.00    +0.037 A 
ATOM      8  C   UNL     1      -5.248   1.390  -2.513  0.00  0.00    +0.015 A 
ATOM      9  C   UNL     1      -5.910   1.705  -3.678  0.00  0.00    +0.024 A 
ATOM     10  C   UNL     1      -5.327   1.423  -4.910  0.00  0.00    +0.035 A 
ATOM     11  C   UNL     1      -4.073   0.822  -4.967  0.00  0.00    +0.024 A 
ATOM     12  C   UNL     1      -3.403   0.510  -3.806  0.00  0.00    +0.015 A 
BRANCH   7  14
ATOM     13  N   UNL     1      -3.843   0.716  -0.127  0.00  0.00    -0.309 N 
ATOM     14  C   UNL     1      -3.276   0.448  -1.320  0.00  0.00    +0.244 C 
ATOM     15  O   UNL     1      -2.179  -0.072  -1.369  0.00  0.00    -0.270 OA
ATOM     16  H   UNL     1      -4.718   1.131  -0.088  0.00  0.00    +0.149 HD
BRANCH  13  17
ATOM     17  C   UNL     1      -3.135   0.380   1.111  0.00  0.00    +0.070 C 
ATOM     18  C   UNL     1      -2.178   1.516   1.476  0.00  0.00    +0.028 C 
BRANCH  17  20
ATOM     19  C   UNL     1      -5.027  -1.029   1.934  0.00  0.00    +0.005 C 
ATOM     20  C   UNL     1      -4.149   0.185   2.241  0.00  0.00    +0.018 C 
ENDBRANCH  17  20
ENDBRANCH  13  17
ENDBRANCH   7  14
ENDBRANCH   1  10
BRANCH   4  21
ATOM     21  C   UNL     1      -9.443   1.737  -7.378  0.00  0.00    +0.095 C 
BRANCH  21  22
ATOM     22  C   UNL     1      -9.904   1.910  -8.827  0.00  0.00    -0.020 C 
BRANCH  22  23
ATOM     23  C   UNL     1      -9.571   3.302  -9.297  0.00  0.00    -0.052 A 
ATOM     24  C   UNL     1      -8.457   3.530 -10.083  0.00  0.00    +0.009 A 
ATOM     25  C   UNL     1      -8.186   4.794 -10.489  0.00  0.00    +0.045 A 
ATOM     26  S   UNL     1      -9.528   5.713  -9.754  0.00  0.00    -0.105 S 
ATOM     27  C   UNL     1     -10.363   4.349  -8.960  0.00  0.00    +0.047 A 
ENDBRANCH  22  23
BRANCH  22  28
ATOM     28  N   UNL     1     -11.355   1.700  -8.907  0.00  0.00    +0.382 N 
ATOM     29  C   UNL     1     -11.784   1.770 -10.310  0.00  0.00    -0.096 C 
ATOM     30  C   UNL     1     -11.690   0.378  -8.359  0.00  0.00    -0.096 C 
ATOM     31  H   UNL     1     -11.829   2.414  -8.374  0.00  0.00    -0.082 HD
ENDBRANCH  22  28
ENDBRANCH  21  22
ENDBRANCH   4  21
TORSDOF 8
