REMARK  Name = ZINC00927421
REMARK  10 active torsions:
REMARK  status: ('A' for Active; 'I' for Inactive)
REMARK    1  A    between atoms: C_1  and  C_2
REMARK    2  A    between atoms: C_4  and  C_39
REMARK    3  A    between atoms: C_7  and  C_14
REMARK    4  A    between atoms: C_14  and  N_15
REMARK    5  A    between atoms: N_15  and  C_16
REMARK    6  A    between atoms: N_15  and  C_26
REMARK    7  A    between atoms: C_16  and  C_17
REMARK    8  A    between atoms: C_26  and  C_27
REMARK    9  A    between atoms: N_31  and  C_32
REMARK   10  A    between atoms: C_32  and  C_33
REMARK                            x       y       z     vdW  Elec       q    Type
REMARK                         _______ _______ _______ _____ _____    ______ ____
ROOT
ATOM      1  N   UNL     1       1.628  -6.389   1.435  0.00  0.00    -0.287 NA
ENDROOT
BRANCH   1   2
ATOM      2  C   UNL     1       0.251  -6.094   1.016  0.00  0.00    +0.125 C 
BRANCH   2   9
ATOM      3  C   UNL     1      -0.767   1.790   0.374  0.00  0.00    +0.044 C 
ATOM      4  C   UNL     1      -0.521   0.307   0.268  0.00  0.00    -0.048 A 
ATOM      5  C   UNL     1      -0.145  -0.241  -0.951  0.00  0.00    +0.007 A 
ATOM      6  C   UNL     1       0.083  -1.583  -1.068  0.00  0.00    -0.041 A 
ATOM      7  C   UNL     1      -0.064  -2.412   0.049  0.00  0.00    +0.002 A 
ATOM      8  C   UNL     1       0.173  -3.854  -0.041  0.00  0.00    +0.020 A 
ATOM      9  C   UNL     1       0.016  -4.607   1.075  0.00  0.00    +0.031 A 
ATOM     10  C   UNL     1      -0.368  -4.003   2.292  0.00  0.00    +0.254 A 
ATOM     11  O   UNL     1      -0.503  -4.699   3.283  0.00  0.00    -0.268 OA
ATOM     12  N   UNL     1      -0.588  -2.680   2.384  0.00  0.00    -0.322 N 
ATOM     13  H   UNL     1      -0.850  -2.298   3.236  0.00  0.00    +0.169 HD
ATOM     14  C   UNL     1      -0.445  -1.859   1.286  0.00  0.00    +0.050 A 
ATOM     15  C   UNL     1      -0.666  -0.489   1.383  0.00  0.00    +0.029 A 
ATOM     16  C   UNL     1       0.490  -2.168  -2.396  0.00  0.00    +0.044 C 
ENDBRANCH   2   9
ENDBRANCH   1   2
BRANCH   1  17
ATOM     17  C   UNL     1       1.830  -6.059   2.852  0.00  0.00    +0.120 C 
BRANCH  17  18
ATOM     18  C   UNL     1       3.285  -6.228   3.205  0.00  0.00    -0.030 A 
ATOM     19  C   UNL     1       3.723  -7.408   3.777  0.00  0.00    +0.009 A 
ATOM     20  C   UNL     1       5.057  -7.568   4.102  0.00  0.00    +0.050 A 
ATOM     21  C   UNL     1       5.959  -6.545   3.856  0.00  0.00    +0.166 A 
ATOM     22  C   UNL     1       5.517  -5.357   3.280  0.00  0.00    +0.167 A 
ATOM     23  C   UNL     1       4.180  -5.205   2.951  0.00  0.00    +0.054 A 
ATOM     24  O   UNL     1       6.584  -4.516   3.142  0.00  0.00    -0.453 OA
ATOM     25  C   UNL     1       7.604  -5.043   4.011  0.00  0.00    +0.466 C 
ATOM     26  O   UNL     1       7.302  -6.450   4.078  0.00  0.00    -0.453 OA
ENDBRANCH  17  18
ENDBRANCH   1  17
BRANCH   1  27
ATOM     27  C   UNL     1       1.971  -7.792   1.167  0.00  0.00    +0.163 C 
BRANCH  27  28
ATOM     28  C   UNL     1       2.031  -8.020  -0.321  0.00  0.00    +0.166 A 
ATOM     29  N   UNL     1       1.049  -8.417  -1.093  0.00  0.00    -0.112 NA
ATOM     30  N   UNL     1       1.495  -8.491  -2.299  0.00  0.00    -0.023 NA
ATOM     31  N   UNL     1       2.737  -8.151  -2.317  0.00  0.00    -0.044 NA
ATOM     32  N   UNL     1       3.103  -7.848  -1.118  0.00  0.00    -0.224 N 
BRANCH  32  33
ATOM     33  C   UNL     1       4.435  -7.405  -0.700  0.00  0.00    +0.182 C 
BRANCH  33  34
ATOM     34  C   UNL     1       5.299  -8.607  -0.418  0.00  0.00    -0.026 A 
ATOM     35  C   UNL     1       5.330  -9.152   0.852  0.00  0.00    +0.005 A 
ATOM     36  C   UNL     1       6.122 -10.255   1.111  0.00  0.00    +0.000 A 
ATOM     37  C   UNL     1       6.883 -10.812   0.101  0.00  0.00    +0.000 A 
ATOM     38  C   UNL     1       6.851 -10.267  -1.169  0.00  0.00    +0.000 A 
ATOM     39  C   UNL     1       6.056  -9.167  -1.429  0.00  0.00    +0.005 A 
ENDBRANCH  33  34
ENDBRANCH  32  33
ENDBRANCH  27  28
ENDBRANCH   1  27
TORSDOF 8
