REMARK  Name = ZINC42905683
REMARK  8 active torsions:
REMARK  status: ('A' for Active; 'I' for Inactive)
REMARK    1  A    between atoms: C_1  and  C_2
REMARK    2  A    between atoms: C_2  and  C_3
REMARK    3  A    between atoms: C_2  and  C_4
REMARK    4  A    between atoms: C_4  and  C_5
REMARK    5  A    between atoms: C_5  and  N_6
REMARK    6  A    between atoms: C_12  and  C_15
REMARK    7  A    between atoms: C_22  and  O_25
REMARK    8  A    between atoms: O_25  and  C_26
REMARK                            x       y       z     vdW  Elec       q    Type
REMARK                         _______ _______ _______ _____ _____    ______ ____
ROOT
ATOM      1  N   UNL     1      -3.510  -0.637  -1.274  0.00  0.00    -0.299 N 
ATOM      2  C   UNL     1      -4.323  -0.403  -2.324  0.00  0.00    +0.302 C 
ATOM      3  O   UNL     1      -3.946   0.305  -3.238  0.00  0.00    -0.253 OA
ATOM      4  N   UNL     1      -5.552  -0.954  -2.360  0.00  0.00    -0.282 N 
ATOM      5  C   UNL     1      -6.421  -0.811  -3.542  0.00  0.00    +0.114 C 
ATOM      6  C   UNL     1      -6.681  -2.210  -4.108  0.00  0.00    +0.054 C 
ATOM      7  C   UNL     1      -7.027  -3.165  -3.004  0.00  0.00    -0.039 C 
ATOM      8  C   UNL     1      -6.760  -2.959  -1.736  0.00  0.00    -0.004 C 
ATOM      9  C   UNL     1      -6.078  -1.725  -1.225  0.00  0.00    +0.137 C 
ATOM     10  H   UNL     1      -3.836  -1.140  -0.512  0.00  0.00    +0.150 HD
ENDROOT
BRANCH   7  11
ATOM     11  C   UNL     1      -7.716  -4.418  -3.369  0.00  0.00    +0.003 A 
ATOM     12  C   UNL     1      -9.019  -4.553  -3.727  0.00  0.00    +0.091 A 
ATOM     13  N   UNL     1      -9.290  -5.864  -3.993  0.00  0.00    -0.360 N 
ATOM     14  H   UNL     1     -10.154  -6.207  -4.268  0.00  0.00    +0.165 HD
ATOM     15  C   UNL     1      -8.156  -6.630  -3.813  0.00  0.00    +0.047 A 
ATOM     16  C   UNL     1      -7.121  -5.765  -3.422  0.00  0.00    +0.010 A 
ATOM     17  C   UNL     1      -5.846  -6.268  -3.174  0.00  0.00    +0.056 A 
ATOM     18  C   UNL     1      -5.605  -7.621  -3.318  0.00  0.00    +0.121 A 
ATOM     19  C   UNL     1      -6.631  -8.477  -3.708  0.00  0.00    +0.047 A 
ATOM     20  C   UNL     1      -7.896  -7.990  -3.949  0.00  0.00    +0.030 A 
BRANCH  18  21
ATOM     21  O   UNL     1      -4.362  -8.118  -3.077  0.00  0.00    -0.495 OA
ATOM     22  C   UNL     1      -4.183  -9.526  -3.245  0.00  0.00    +0.277 C 
ENDBRANCH  18  21
ENDBRANCH   7  11
BRANCH   1  23
ATOM     23  C   UNL     1      -2.135  -0.132  -1.286  0.00  0.00    +0.106 C 
BRANCH  23  24
ATOM     24  C   UNL     1      -1.434  -0.532   0.014  0.00  0.00    +0.022 C 
BRANCH  24  26
ATOM     25  C   UNL     1      -0.017   1.525   0.007  0.00  0.00    +0.007 C 
ATOM     26  C   UNL     1       0.002  -0.005   0.002  0.00  0.00    -0.016 C 
ATOM     27  C   UNL     1       0.741  -0.510   1.243  0.00  0.00    +0.007 C 
ENDBRANCH  24  26
ENDBRANCH  23  24
ENDBRANCH   1  23
TORSDOF 5
