REMARK  Name = ZINC20322605
REMARK  6 active torsions:
REMARK  status: ('A' for Active; 'I' for Inactive)
REMARK    1  A    between atoms: C_1  and  C_2
REMARK    2  A    between atoms: C_3  and  C_32
REMARK    3  A    between atoms: C_4  and  C_20
REMARK    4  A    between atoms: C_10  and  C_15
REMARK    5  A    between atoms: C_32  and  O_34
REMARK    6  A    between atoms: O_34  and  C_35
REMARK                            x       y       z     vdW  Elec       q    Type
REMARK                         _______ _______ _______ _____ _____    ______ ____
ROOT
ATOM      1  C   UNL     1      -2.487  -2.755   0.820  0.00  0.00    +0.061 C 
ATOM      2  C   UNL     1      -1.213  -2.068   0.401  0.00  0.00    +0.016 C 
ATOM      3  C   UNL     1      -0.219  -2.784  -0.152  0.00  0.00    +0.065 C 
ATOM      4  C   UNL     1       1.067  -2.136  -0.574  0.00  0.00    +0.099 C 
ATOM      5  C   UNL     1       0.905  -0.642  -0.697  0.00  0.00    +0.024 C 
ATOM      6  C   UNL     1      -0.140  -0.012  -0.119  0.00  0.00    +0.016 C 
ATOM      7  N   UNL     1      -1.076  -0.721   0.585  0.00  0.00    -0.321 N 
ATOM      8  C   UNL     1      -0.306   1.483  -0.235  0.00  0.00    +0.062 C 
ATOM      9  C   UNL     1       1.069   2.147  -0.344  0.00  0.00    +0.068 C 
ATOM     10  C   UNL     1       1.792   1.569  -1.565  0.00  0.00    +0.091 C 
ATOM     11  C   UNL     1       1.872   0.074  -1.425  0.00  0.00    +0.162 C 
ATOM     12  O   UNL     1       2.789  -0.526  -1.949  0.00  0.00    -0.292 OA
ATOM     13  H   UNL     1      -1.721  -0.195   1.304  0.00  0.00    +0.152 HD
ENDROOT
BRANCH   4  14
ATOM     14  C   UNL     1       2.131  -2.436   0.450  0.00  0.00    +0.047 A 
ATOM     15  C   UNL     1       1.985  -2.017   1.721  0.00  0.00    +0.204 A 
ATOM     16  O   UNL     1       2.895  -2.253   2.672  0.00  0.00    -0.462 OA
ATOM     17  C   UNL     1       4.034  -2.933   2.429  0.00  0.00    +0.138 A 
ATOM     18  C   UNL     1       4.960  -3.162   3.440  0.00  0.00    +0.048 A 
ATOM     19  C   UNL     1       6.118  -3.858   3.168  0.00  0.00    +0.023 A 
ATOM     20  C   UNL     1       6.373  -4.337   1.890  0.00  0.00    +0.042 A 
ATOM     21  C   UNL     1       5.467  -4.121   0.873  0.00  0.00    +0.035 A 
ATOM     22  C   UNL     1       4.293  -3.418   1.137  0.00  0.00    +0.066 A 
ATOM     23  C   UNL     1       3.292  -3.167   0.082  0.00  0.00    +0.197 A 
ATOM     24  O   UNL     1       3.456  -3.566  -1.058  0.00  0.00    -0.287 OA
ATOM     25 CL   UNL     1       7.838  -5.213   1.571  0.00  0.00    -0.084 Cl
ENDBRANCH   4  14
BRANCH   9  26
ATOM     26  C   UNL     1       0.901   3.635  -0.511  0.00  0.00    +0.109 A 
ATOM     27  C   UNL     1       1.373   4.578   0.324  0.00  0.00    +0.045 A 
ATOM     28  C   UNL     1       0.991   5.829  -0.213  0.00  0.00    +0.041 A 
ATOM     29  C   UNL     1       0.302   5.575  -1.340  0.00  0.00    +0.195 A 
ATOM     30  O   UNL     1       0.251   4.244  -1.515  0.00  0.00    -0.468 OA
ENDBRANCH   9  26
BRANCH   3  31
ATOM     31  C   UNL     1      -0.388  -4.176  -0.340  0.00  0.00    +0.338 C 
ATOM     32  O   UNL     1      -0.587  -4.620  -1.455  0.00  0.00    -0.245 OA
BRANCH  31  33
ATOM     33  O   UNL     1      -0.328  -5.012   0.718  0.00  0.00    -0.458 OA
BRANCH  33  34
ATOM     34  C   UNL     1      -0.508  -6.405   0.456  0.00  0.00    +0.177 C 
ATOM     35  C   UNL     1      -1.996  -6.784   0.607  0.00  0.00    +0.044 C 
ATOM     36  C   UNL     1      -1.965  -8.195   1.245  0.00  0.00    +0.004 C 
ATOM     37  C   UNL     1      -0.777  -8.098   2.235  0.00  0.00    +0.004 C 
ATOM     38  C   UNL     1       0.267  -7.240   1.490  0.00  0.00    +0.044 C 
ENDBRANCH  33  34
ENDBRANCH  31  33
ENDBRANCH   3  31
TORSDOF 5
