REMARK  Name = ZINC12922218
REMARK  7 active torsions:
REMARK  status: ('A' for Active; 'I' for Inactive)
REMARK    1  A    between atoms: C_1  and  C_2
REMARK    2  A    between atoms: C_3  and  C_25
REMARK    3  A    between atoms: C_4  and  N_13
REMARK    4  A    between atoms: C_6  and  C_7
REMARK    5  A    between atoms: C_14  and  C_16
REMARK    6  A    between atoms: C_16  and  N_62
REMARK    7  A    between atoms: C_20  and  C_22
REMARK                            x       y       z     vdW  Elec       q    Type
REMARK                         _______ _______ _______ _____ _____    ______ ____
ROOT
ATOM      1  C   UNL     1      -5.900   1.940   2.832  0.00  0.00    +0.046 C 
ATOM      2  C   UNL     1      -4.609   1.350   2.325  0.00  0.00    -0.022 A 
ATOM      3  C   UNL     1      -3.529   2.164   1.983  0.00  0.00    +0.069 A 
ATOM      4  C   UNL     1      -2.371   1.543   1.521  0.00  0.00    +0.085 A 
ATOM      5  S   UNL     1      -2.793  -0.138   1.559  0.00  0.00    -0.072 S 
ATOM      6  C   UNL     1      -4.456   0.005   2.183  0.00  0.00    +0.025 A 
ENDROOT
BRANCH   3   7
ATOM      7  C   UNL     1      -3.610   3.624   2.106  0.00  0.00    +0.249 C 
ATOM      8  O   UNL     1      -4.004   4.293   1.169  0.00  0.00    -0.270 OA
ATOM      9  N   UNL     1      -3.247   4.224   3.257  0.00  0.00    -0.297 N 
ATOM     10  C   UNL     1      -2.776   3.430   4.400  0.00  0.00    +0.108 C 
ATOM     11  C   UNL     1      -1.412   3.978   4.846  0.00  0.00    +0.019 C 
ATOM     12  C   UNL     1      -1.540   5.476   5.133  0.00  0.00    +0.003 C 
ATOM     13  C   UNL     1      -1.958   6.208   3.856  0.00  0.00    +0.019 C 
ATOM     14  C   UNL     1      -3.323   5.685   3.396  0.00  0.00    +0.108 C 
ENDBRANCH   3   7
BRANCH   6  15
ATOM     15  C   UNL     1      -5.431  -1.069   2.469  0.00  0.00    -0.011 A 
ATOM     16  C   UNL     1      -5.043  -2.188   3.208  0.00  0.00    +0.009 A 
ATOM     17  C   UNL     1      -5.959  -3.185   3.475  0.00  0.00    +0.001 A 
ATOM     18  C   UNL     1      -7.255  -3.082   3.003  0.00  0.00    +0.000 A 
ATOM     19  C   UNL     1      -7.644  -1.978   2.265  0.00  0.00    +0.001 A 
ATOM     20  C   UNL     1      -6.740  -0.972   1.996  0.00  0.00    +0.009 A 
ENDBRANCH   6  15
BRANCH   4  21
ATOM     21  N   UNL     1      -1.179   2.125   1.124  0.00  0.00    -0.281 N 
ATOM     22  C   UNL     1      -0.159   1.351   0.703  0.00  0.00    +0.201 C 
ATOM     23  O   UNL     1      -0.285   0.145   0.671  0.00  0.00    -0.278 OA
ATOM     24  H   UNL     1      -1.078   3.089   1.149  0.00  0.00    +0.155 HD
BRANCH  22  25
ATOM     25  C   UNL     1       1.136   1.984   0.264  0.00  0.00    +0.020 C 
BRANCH  25  30
ATOM     26  C   UNL     1       2.632   0.226   1.021  0.00  0.00    -0.077 C 
ATOM     27  C   UNL     1       4.080  -0.141   0.613  0.00  0.00    -0.020 C 
ATOM     28  C   UNL     1       4.501   1.107  -0.206  0.00  0.00    -0.008 C 
ATOM     29  C   UNL     1       3.196   1.507  -0.926  0.00  0.00    +0.020 C 
ATOM     30  N   UNL     1       2.083   0.919  -0.159  0.00  0.00    +0.393 N 
ATOM     31  H   UNL     1       1.584   0.243  -0.749  0.00  0.00    -0.080 HD
BRANCH  29  32
ATOM     32  C   UNL     1       3.075   3.009  -0.970  0.00  0.00    +0.197 C 
ATOM     33  O   UNL     1       2.910   3.635   0.056  0.00  0.00    -0.278 OA
ATOM     34  N   UNL     1       3.149   3.656  -2.150  0.00  0.00    -0.331 N 
ATOM     35  H   UNL     1       3.280   3.155  -2.970  0.00  0.00    +0.145 HD
ATOM     36  H   UNL     1       3.071   4.622  -2.179  0.00  0.00    +0.145 HD
ENDBRANCH  29  32
ENDBRANCH  25  30
ENDBRANCH  22  25
ENDBRANCH   4  21
TORSDOF 6
