REMARK  Name = ZINC15780392
REMARK  9 active torsions:
REMARK  status: ('A' for Active; 'I' for Inactive)
REMARK    1  A    between atoms: C_1  and  C_2
REMARK    2  A    between atoms: C_2  and  C_3
REMARK    3  A    between atoms: C_9  and  C_10
REMARK    4  A    between atoms: C_9  and  N_59
REMARK    5  A    between atoms: C_13  and  C_15
REMARK    6  A    between atoms: C_15  and  N_16
REMARK    7  A    between atoms: N_16  and  C_17
REMARK    8  A    between atoms: C_19  and  C_31
REMARK    9  A    between atoms: C_24  and  C_26
REMARK                            x       y       z     vdW  Elec       q    Type
REMARK                         _______ _______ _______ _____ _____    ______ ____
ROOT
ATOM      1  N   UNL     1       5.915   3.623   6.163  0.00  0.00    -0.322 N 
ATOM      2  H   UNL     1       6.490   3.713   5.388  0.00  0.00    +0.148 HD
ENDROOT
BRANCH   1   3
ATOM      3  C   UNL     1       6.218   4.293   7.328  0.00  0.00    +0.126 A 
ATOM      4  C   UNL     1       5.404   4.178   8.438  0.00  0.00    +0.066 A 
ATOM      5  C   UNL     1       5.745   4.865   9.600  0.00  0.00    +0.045 A 
ATOM      6  N   UNL     1       6.822   5.623   9.635  0.00  0.00    -0.216 NA
ATOM      7  C   UNL     1       7.617   5.749   8.566  0.00  0.00    +0.255 A 
ATOM      8  N   UNL     1       7.325   5.088   7.405  0.00  0.00    -0.182 N 
ATOM      9  N   UNL     1       8.332   5.420   6.489  0.00  0.00    -0.139 NA
ATOM     10  C   UNL     1       9.161   6.239   7.110  0.00  0.00    +0.219 A 
ATOM     11  N   UNL     1       8.732   6.438   8.360  0.00  0.00    -0.186 NA
ATOM     12  C   UNL     1       4.873   4.747  10.823  0.00  0.00    +0.066 C 
BRANCH  10  13
ATOM     13  C   UNL     1      10.374   6.840   6.516  0.00  0.00    +0.173 A 
ATOM     14  C   UNL     1      11.235   7.684   7.144  0.00  0.00    +0.053 A 
ATOM     15  C   UNL     1      12.240   8.006   6.210  0.00  0.00    +0.042 A 
ATOM     16  C   UNL     1      11.945   7.350   5.071  0.00  0.00    +0.196 A 
ATOM     17  O   UNL     1      10.820   6.643   5.261  0.00  0.00    -0.460 OA
ENDBRANCH  10  13
ENDBRANCH   1   3
BRANCH   1  18
ATOM     18  C   UNL     1       4.723   2.773   6.096  0.00  0.00    +0.177 C 
BRANCH  18  22
ATOM     19  C   UNL     1       4.096   1.872   2.613  0.00  0.00    +0.089 A 
ATOM     20  C   UNL     1       4.819   0.800   2.985  0.00  0.00    +0.043 A 
ATOM     21  C   UNL     1       5.157   0.985   4.345  0.00  0.00    +0.046 A 
ATOM     22  C   UNL     1       4.621   2.159   4.723  0.00  0.00    +0.122 A 
ATOM     23  O   UNL     1       3.984   2.695   3.669  0.00  0.00    -0.465 OA
BRANCH  19  24
ATOM     24  C   UNL     1       3.516   2.112   1.243  0.00  0.00    -0.003 C 
BRANCH  24  30
ATOM     25  C   UNL     1       1.433   2.050   0.010  0.00  0.00    -0.068 C 
ATOM     26  C   UNL     1      -0.011   1.547   0.052  0.00  0.00    -0.015 C 
ATOM     27  C   UNL     1      -0.013   0.016   0.047  0.00  0.00    -0.003 C 
ATOM     28  C   UNL     1       0.796  -0.492   1.244  0.00  0.00    -0.019 C 
ATOM     29  C   UNL     1       2.217   0.071   1.167  0.00  0.00    -0.078 C 
ATOM     30  N   UNL     1       2.151   1.547   1.201  0.00  0.00    +0.386 N 
ATOM     31  H   UNL     1       1.643   1.839   2.044  0.00  0.00    -0.081 HD
BRANCH  25  33
ATOM     32  C   UNL     1       0.857   4.072   1.361  0.00  0.00    +0.002 C 
ATOM     33  C   UNL     1       1.441   3.580   0.035  0.00  0.00    -0.019 C 
ENDBRANCH  25  33
ENDBRANCH  24  30
ENDBRANCH  19  24
ENDBRANCH  18  22
ENDBRANCH   1  18
TORSDOF 7
