REMARK  Name = ZINC12447642
REMARK  11 active torsions:
REMARK  status: ('A' for Active; 'I' for Inactive)
REMARK    1  A    between atoms: C_1  and  C_2
REMARK    2  A    between atoms: C_5  and  C_8
REMARK    3  A    between atoms: C_8  and  O_10
REMARK    4  A    between atoms: O_10  and  C_11
REMARK    5  A    between atoms: C_11  and  C_12
REMARK    6  A    between atoms: C_14  and  O_31
REMARK    7  A    between atoms: C_17  and  N_20
REMARK    8  A    between atoms: C_22  and  C_29
REMARK    9  A    between atoms: O_31  and  C_32
REMARK   10  A    between atoms: C_32  and  C_34
REMARK   11  A    between atoms: C_37  and  C_40
REMARK                            x       y       z     vdW  Elec       q    Type
REMARK                         _______ _______ _______ _____ _____    ______ ____
ROOT
ATOM      1  C   UNL     1      -2.436   5.627   0.044  0.00  0.00    +0.199 C 
ATOM      2  C   UNL     1      -3.803   6.334   0.181  0.00  0.00    +0.213 C 
ATOM      3  C   UNL     1      -3.672   7.582  -0.721  0.00  0.00    +0.102 C 
ATOM      4  C   UNL     1      -2.242   7.481  -1.296  0.00  0.00    +0.227 C 
ATOM      5  O   UNL     1      -1.914   6.077  -1.225  0.00  0.00    -0.346 OA
ENDROOT
BRANCH   4   6
ATOM      6  N   UNL     1      -2.218   7.941  -2.687  0.00  0.00    -0.273 N 
ATOM      7  C   UNL     1      -1.516   9.058  -3.003  0.00  0.00    +0.109 A 
ATOM      8  C   UNL     1      -1.489   9.491  -4.319  0.00  0.00    +0.095 A 
ATOM      9  C   UNL     1      -2.241   8.713  -5.320  0.00  0.00    +0.264 A 
ATOM     10  O   UNL     1      -2.255   9.051  -6.488  0.00  0.00    -0.267 OA
ATOM     11  N   UNL     1      -2.914   7.618  -4.910  0.00  0.00    -0.274 N 
ATOM     12  H   UNL     1      -3.430   7.075  -5.572  0.00  0.00    +0.173 HD
ATOM     13  C   UNL     1      -2.895   7.250  -3.617  0.00  0.00    +0.331 A 
ATOM     14  O   UNL     1      -3.512   6.259  -3.279  0.00  0.00    -0.246 OA
BRANCH   8  15
ATOM     15  C   UNL     1      -0.740  10.687  -4.703  0.00  0.00    +0.265 C 
ATOM     16  O   UNL     1      -0.731  11.053  -5.860  0.00  0.00    -0.295 OA
ENDBRANCH   8  15
ENDBRANCH   4   6
BRANCH   1  17
ATOM     17  C   UNL     1      -2.620   4.109   0.037  0.00  0.00    +0.267 C 
BRANCH  17  18
ATOM     18  O   UNL     1      -1.319   3.464   0.027  0.00  0.00    -0.458 OA
BRANCH  18  19
ATOM     19  C   UNL     1      -1.304   2.117   0.020  0.00  0.00    +0.339 C 
ATOM     20  O   UNL     1      -2.349   1.498   0.021  0.00  0.00    -0.245 OA
BRANCH  19  25
ATOM     21  C   UNL     1       3.710  -0.705  -0.038  0.00  0.00    +0.044 C 
ATOM     22  C   UNL     1       2.396   0.034  -0.021  0.00  0.00    -0.050 A 
ATOM     23  C   UNL     1       1.208  -0.674  -0.013  0.00  0.00    +0.004 A 
ATOM     24  C   UNL     1       0.002  -0.004   0.002  0.00  0.00    +0.015 A 
ATOM     25  C   UNL     1      -0.017   1.392   0.010  0.00  0.00    +0.059 A 
ATOM     26  C   UNL     1       1.186   2.100   0.002  0.00  0.00    +0.015 A 
ATOM     27  C   UNL     1       2.385   1.417  -0.013  0.00  0.00    +0.004 A 
ENDBRANCH  19  25
ENDBRANCH  18  19
ENDBRANCH  17  18
ENDBRANCH   1  17
BRANCH   2  28
ATOM     28  O   UNL     1      -4.871   5.472  -0.294  0.00  0.00    -0.455 OA
BRANCH  28  29
ATOM     29  C   UNL     1      -6.079   5.620   0.283  0.00  0.00    +0.340 C 
ATOM     30  O   UNL     1      -6.236   6.447   1.159  0.00  0.00    -0.245 OA
BRANCH  29  31
ATOM     31  C   UNL     1      -7.213   4.778  -0.149  0.00  0.00    +0.059 A 
ATOM     32  C   UNL     1      -7.037   3.831  -1.160  0.00  0.00    +0.015 A 
ATOM     33  C   UNL     1      -8.099   3.044  -1.556  0.00  0.00    +0.004 A 
ATOM     34  C   UNL     1      -9.338   3.199  -0.961  0.00  0.00    -0.050 A 
ATOM     35  C   UNL     1      -9.521   4.139   0.038  0.00  0.00    +0.004 A 
ATOM     36  C   UNL     1      -8.466   4.929   0.447  0.00  0.00    +0.015 A 
ATOM     37  C   UNL     1     -10.495   2.341  -1.404  0.00  0.00    +0.044 C 
ENDBRANCH  29  31
ENDBRANCH  28  29
ENDBRANCH   2  28
TORSDOF 9
