REMARK  Name = ZINC39487853
REMARK  13 active torsions:
REMARK  status: ('A' for Active; 'I' for Inactive)
REMARK    1  A    between atoms: C_1  and  C_2
REMARK    2  A    between atoms: C_2  and  C_3
REMARK    3  A    between atoms: C_2  and  C_4
REMARK    4  A    between atoms: C_4  and  C_5
REMARK    5  A    between atoms: C_5  and  C_31
REMARK    6  A    between atoms: N_7  and  O_30
REMARK    7  A    between atoms: N_10  and  C_11
REMARK    8  A    between atoms: C_11  and  C_12
REMARK    9  A    between atoms: C_12  and  C_24
REMARK   10  A    between atoms: N_15  and  S_18
REMARK   11  A    between atoms: S_18  and  C_21
REMARK   12  A    between atoms: C_21  and  C_22
REMARK   13  A    between atoms: C_21  and  C_23
REMARK                            x       y       z     vdW  Elec       q    Type
REMARK                         _______ _______ _______ _____ _____    ______ ____
ROOT
ATOM      1  C   UNL     1      -6.614  -1.742   0.190  0.00  0.00    -0.008 C 
ATOM      2  C   UNL     1      -5.828  -0.559  -0.380  0.00  0.00    +0.026 C 
ATOM      3  C   UNL     1      -5.077  -1.008  -1.637  0.00  0.00    +0.109 C 
ATOM      4  N   UNL     1      -6.038  -1.602  -2.576  0.00  0.00    -0.181 NA
ATOM      5  C   UNL     1      -6.908  -2.688  -2.103  0.00  0.00    +0.109 C 
ATOM      6  C   UNL     1      -7.639  -2.220  -0.841  0.00  0.00    +0.026 C 
ENDROOT
BRANCH   1   7
ATOM      7  C   UNL     1      -7.338  -1.306   1.465  0.00  0.00    -0.003 C 
ATOM      8  C   UNL     1      -8.323  -2.397   1.890  0.00  0.00    +0.004 C 
ATOM      9  C   UNL     1      -9.048  -1.961   3.165  0.00  0.00    +0.000 C 
ATOM     10  C   UNL     1      -9.810  -0.661   2.900  0.00  0.00    +0.000 C 
ATOM     11  C   UNL     1      -8.825   0.430   2.474  0.00  0.00    +0.000 C 
ATOM     12  C   UNL     1      -8.101  -0.006   1.199  0.00  0.00    +0.004 C 
ENDBRANCH   1   7
BRANCH   4  13
ATOM     13  S   UNL     1      -6.139  -1.058  -4.137  0.00  0.00    +0.034 S 
ATOM     14  O   UNL     1      -7.502  -1.241  -4.497  0.00  0.00    -0.158 OA
ATOM     15  O   UNL     1      -5.566   0.241  -4.106  0.00  0.00    -0.158 OA
BRANCH  13  16
ATOM     16  C   UNL     1      -5.085  -2.184  -5.092  0.00  0.00    +0.142 C 
ATOM     17  C   UNL     1      -5.051  -1.733  -6.554  0.00  0.00    +0.033 C 
ATOM     18  C   UNL     1      -3.667  -2.164  -4.519  0.00  0.00    +0.033 C 
ENDBRANCH  13  16
ENDBRANCH   4  13
BRANCH   1  19
ATOM     19  C   UNL     1      -5.649  -2.884   0.517  0.00  0.00    +0.117 C 
BRANCH  19  25
ATOM     20  C   UNL     1      -4.516  -2.855   2.866  0.00  0.00    +0.054 C 
ATOM     21  C   UNL     1      -3.311  -2.057   3.399  0.00  0.00    +0.167 C 
ATOM     22  N   UNL     1      -2.884  -1.251   2.246  0.00  0.00    -0.165 N 
ATOM     23  C   UNL     1      -3.685  -1.513   1.205  0.00  0.00    +0.328 C 
ATOM     24  O   UNL     1      -3.556  -0.982   0.119  0.00  0.00    -0.250 OA
ATOM     25  N   UNL     1      -4.641  -2.413   1.469  0.00  0.00    -0.276 N 
ATOM     26  C   UNL     1      -4.240  -4.358   2.932  0.00  0.00    +0.033 C 
BRANCH  22  27
ATOM     27  O   UNL     1      -1.798  -0.341   2.237  0.00  0.00    -0.291 OA
ATOM     28  H   UNL     1      -1.663   0.102   1.389  0.00  0.00    +0.242 HD
ENDBRANCH  22  27
BRANCH  20  29
ATOM     29  C   UNL     1      -5.781  -2.507   3.654  0.00  0.00    +0.030 C 
BRANCH  29  31
ATOM     30  C   UNL     1      -5.715  -1.787   6.045  0.00  0.00    +0.007 C 
ATOM     31  C   UNL     1      -5.630  -2.986   5.099  0.00  0.00    -0.015 C 
ATOM     32  C   UNL     1      -6.749  -3.976   5.428  0.00  0.00    +0.007 C 
ENDBRANCH  29  31
ENDBRANCH  20  29
ENDBRANCH  19  25
ENDBRANCH   1  19
TORSDOF 8
