REMARK  Name = ZINC40034810
REMARK  8 active torsions:
REMARK  status: ('A' for Active; 'I' for Inactive)
REMARK    1  A    between atoms: C_1  and  C_2
REMARK    2  A    between atoms: C_5  and  N_8
REMARK    3  A    between atoms: N_15  and  N_16
REMARK    4  A    between atoms: C_17  and  C_18
REMARK    5  A    between atoms: C_22  and  O_24
REMARK    6  A    between atoms: O_24  and  C_25
REMARK    7  A    between atoms: C_38  and  C_39
REMARK    8  A    between atoms: C_38  and  C_40
REMARK                            x       y       z     vdW  Elec       q    Type
REMARK                         _______ _______ _______ _____ _____    ______ ____
ROOT
ATOM      1  N   UNL     1      -2.079  -3.971   0.120  0.00  0.00    -0.248 N 
ATOM      2  C   UNL     1      -1.712  -4.448   1.329  0.00  0.00    +0.264 A 
ATOM      3  O   UNL     1      -1.747  -3.733   2.318  0.00  0.00    -0.267 OA
ATOM      4  C   UNL     1      -1.289  -5.780   1.425  0.00  0.00    +0.049 A 
ATOM      5  C   UNL     1      -1.265  -6.558   0.277  0.00  0.00    +0.084 A 
ATOM      6  N   UNL     1      -1.634  -6.031  -0.896  0.00  0.00    -0.214 NA
ATOM      7  C   UNL     1      -2.035  -4.779  -0.978  0.00  0.00    +0.223 A 
ATOM      8  N   UNL     1      -2.412  -4.275  -2.196  0.00  0.00    -0.206 N 
ATOM      9  C   UNL     1      -0.834  -7.971   0.379  0.00  0.00    +0.004 A 
ATOM     10  C   UNL     1      -0.432  -8.679  -0.750  0.00  0.00    +0.010 A 
ATOM     11  C   UNL     1      -0.029  -9.994  -0.625  0.00  0.00    +0.001 A 
ATOM     12  C   UNL     1      -0.025 -10.603   0.617  0.00  0.00    +0.000 A 
ATOM     13  C   UNL     1      -0.427  -9.903   1.742  0.00  0.00    +0.004 A 
ATOM     14  C   UNL     1      -0.833  -8.589   1.630  0.00  0.00    -0.037 A 
ATOM     15  C   UNL     1      -1.283  -7.825   2.846  0.00  0.00    +0.047 C 
ATOM     16  C   UNL     1      -0.865  -6.361   2.744  0.00  0.00    +0.001 C 
ATOM     17  C   UNL     1       0.657  -6.261   2.872  0.00  0.00    +0.016 C 
ATOM     18  C   UNL     1      -1.519  -5.569   3.878  0.00  0.00    +0.016 C 
ATOM     19  H   UNL     1      -2.738  -3.364  -2.265  0.00  0.00    +0.177 HD
ENDROOT
BRANCH   1  24
ATOM     20  C   UNL     1      -3.834   1.401  -0.387  0.00  0.00    +0.044 C 
ATOM     21  C   UNL     1      -3.368  -0.026  -0.252  0.00  0.00    -0.050 A 
ATOM     22  C   UNL     1      -4.290  -1.036  -0.049  0.00  0.00    +0.005 A 
ATOM     23  C   UNL     1      -3.866  -2.345   0.074  0.00  0.00    +0.026 A 
ATOM     24  C   UNL     1      -2.512  -2.645  -0.005  0.00  0.00    +0.053 A 
ATOM     25  C   UNL     1      -1.589  -1.628  -0.209  0.00  0.00    +0.026 A 
ATOM     26  C   UNL     1      -2.020  -0.322  -0.337  0.00  0.00    +0.005 A 
ENDBRANCH   1  24
BRANCH   8  27
ATOM     27  N   UNL     1      -2.327  -5.076  -3.343  0.00  0.00    -0.188 NA
ATOM     28  C   UNL     1      -2.683  -4.599  -4.496  0.00  0.00    +0.138 C 
BRANCH  28  29
ATOM     29  C   UNL     1      -2.594  -5.442  -5.702  0.00  0.00    -0.002 A 
ATOM     30  C   UNL     1      -2.131  -6.757  -5.606  0.00  0.00    +0.010 A 
ATOM     31  C   UNL     1      -2.048  -7.542  -6.737  0.00  0.00    +0.004 A 
ATOM     32  C   UNL     1      -2.422  -7.033  -7.967  0.00  0.00    +0.046 A 
ATOM     33  C   UNL     1      -2.884  -5.728  -8.073  0.00  0.00    +0.129 A 
ATOM     34  C   UNL     1      -2.977  -4.932  -6.944  0.00  0.00    +0.055 A 
BRANCH  33  35
ATOM     35  O   UNL     1      -3.249  -5.233  -9.285  0.00  0.00    -0.456 OA
BRANCH  35  36
ATOM     36  C   UNL     1      -2.317  -4.556 -10.006  0.00  0.00    +0.128 A 
ATOM     37  C   UNL     1      -1.034  -4.395  -9.504  0.00  0.00    +0.046 A 
ATOM     38  C   UNL     1      -0.088  -3.707 -10.239  0.00  0.00    +0.004 A 
ATOM     39  C   UNL     1      -0.419  -3.179 -11.473  0.00  0.00    +0.000 A 
ATOM     40  C   UNL     1      -1.698  -3.339 -11.975  0.00  0.00    +0.004 A 
ATOM     41  C   UNL     1      -2.645  -4.031 -11.247  0.00  0.00    +0.046 A 
ENDBRANCH  35  36
ENDBRANCH  33  35
ENDBRANCH  28  29
ENDBRANCH   8  27
TORSDOF 5
