REMARK  Name = ZINC44388578
REMARK  4 active torsions:
REMARK  status: ('A' for Active; 'I' for Inactive)
REMARK    1  A    between atoms: C_1  and  C_2
REMARK    2  A    between atoms: N_8  and  C_13
REMARK    3  A    between atoms: C_15  and  C_17
REMARK    4  A    between atoms: C_17  and  C_22
REMARK                            x       y       z     vdW  Elec       q    Type
REMARK                         _______ _______ _______ _____ _____    ______ ____
ROOT
ATOM      1  C   UNL     1      -0.243   1.539  -0.041  0.00  0.00    +0.017 C 
ATOM      2  C   UNL     1      -0.183   0.010  -0.039  0.00  0.00    +0.077 C 
ATOM      3  C   UNL     1       0.549  -0.465  -1.298  0.00  0.00    +0.054 C 
ATOM      4  C   UNL     1       0.944  -1.907  -1.101  0.00  0.00    +0.035 A 
ATOM      5  C   UNL     1       1.122  -2.916  -2.044  0.00  0.00    +0.152 A 
ATOM      6  N   UNL     1       1.478  -4.011  -1.407  0.00  0.00    -0.154 NA
ATOM      7  N   UNL     1       1.534  -3.728  -0.033  0.00  0.00    -0.251 N 
ATOM      8  C   UNL     1       1.198  -2.435   0.136  0.00  0.00    +0.128 A 
ATOM      9  N   UNL     1       1.083  -1.675   1.300  0.00  0.00    -0.270 N 
ATOM     10  C   UNL     1       0.519  -0.453   1.206  0.00  0.00    +0.221 C 
ATOM     11  O   UNL     1       0.581   0.296   2.159  0.00  0.00    -0.275 OA
ATOM     12  C   UNL     1       1.895  -4.671   1.029  0.00  0.00    +0.174 C 
ATOM     13  N   UNL     1       0.952  -2.787  -3.429  0.00  0.00    -0.268 N 
ATOM     14  C   UNL     1       1.157  -3.848  -4.234  0.00  0.00    +0.229 C 
ATOM     15  O   UNL     1       1.579  -4.887  -3.772  0.00  0.00    -0.274 OA
ATOM     16  H   UNL     1       1.399  -2.015   2.151  0.00  0.00    +0.156 HD
ATOM     17  H   UNL     1       0.686  -1.935  -3.808  0.00  0.00    +0.156 HD
ENDROOT
BRANCH  14  18
ATOM     18  C   UNL     1       0.862  -3.743  -5.708  0.00  0.00    +0.072 C 
ATOM     19  C   UNL     1      -0.602  -3.324  -5.924  0.00  0.00    +0.021 C 
ATOM     20  C   UNL     1      -1.275  -4.462  -6.719  0.00  0.00    +0.001 C 
ATOM     21  C   UNL     1      -0.406  -5.706  -6.410  0.00  0.00    +0.001 C 
ATOM     22  C   UNL     1       1.029  -5.122  -6.380  0.00  0.00    +0.021 C 
BRANCH  18  23
ATOM     23  C   UNL     1       1.787  -2.742  -6.350  0.00  0.00    -0.032 A 
ATOM     24  C   UNL     1       2.813  -2.178  -5.614  0.00  0.00    +0.006 A 
ATOM     25  C   UNL     1       3.662  -1.259  -6.201  0.00  0.00    +0.020 A 
ATOM     26  C   UNL     1       3.485  -0.903  -7.527  0.00  0.00    +0.041 A 
ATOM     27  C   UNL     1       2.458  -1.468  -8.263  0.00  0.00    +0.020 A 
ATOM     28  C   UNL     1       1.614  -2.391  -7.676  0.00  0.00    +0.006 A 
ATOM     29 CL   UNL     1       4.550   0.251  -8.265  0.00  0.00    -0.084 Cl
ENDBRANCH  18  23
ENDBRANCH  14  18
TORSDOF 2
