REMARK  Name = ZINC36206396
REMARK  16 active torsions:
REMARK  status: ('A' for Active; 'I' for Inactive)
REMARK    1  A    between atoms: C_1  and  C_2
REMARK    2  A    between atoms: C_2  and  C_3
REMARK    3  A    between atoms: C_2  and  C_4
REMARK    4  A    between atoms: C_4  and  N_5
REMARK    5  A    between atoms: N_5  and  C_6
REMARK    6  A    between atoms: N_5  and  C_25
REMARK    7  A    between atoms: C_6  and  C_7
REMARK    8  A    between atoms: C_13  and  C_18
REMARK    9  A    between atoms: C_25  and  C_26
REMARK   10  A    between atoms: C_26  and  C_28
REMARK   11  A    between atoms: C_26  and  O_34
REMARK   12  A    between atoms: C_28  and  O_29
REMARK   13  A    between atoms: O_29  and  C_30
REMARK   14  A    between atoms: C_30  and  C_31
REMARK   15  A    between atoms: C_31  and  C_32
REMARK   16  A    between atoms: C_31  and  C_33
REMARK                            x       y       z     vdW  Elec       q    Type
REMARK                         _______ _______ _______ _____ _____    ______ ____
ROOT
ATOM      1  C   UNL     1      -1.751  -0.844   3.831  0.00  0.00    +0.094 A 
ATOM      2  N   UNL     1      -2.810  -1.618   4.182  0.00  0.00    -0.312 N 
ATOM      3  H   UNL     1      -3.088  -2.337   3.594  0.00  0.00    +0.170 HD
ATOM      4  C   UNL     1      -3.481  -1.406   5.329  0.00  0.00    +0.260 A 
ATOM      5  O   UNL     1      -4.429  -2.111   5.630  0.00  0.00    -0.267 OA
ATOM      6  C   UNL     1      -3.063  -0.343   6.191  0.00  0.00    +0.080 A 
ATOM      7  C   UNL     1      -3.619   0.081   7.471  0.00  0.00    +0.004 A 
ATOM      8  C   UNL     1      -3.049   1.128   8.115  0.00  0.00    +0.056 A 
ATOM      9  S   UNL     1      -1.721   1.608   7.027  0.00  0.00    -0.076 S 
ATOM     10  C   UNL     1      -1.960   0.404   5.746  0.00  0.00    +0.116 A 
ATOM     11  N   UNL     1      -1.343   0.131   4.599  0.00  0.00    -0.229 NA
ENDROOT
BRANCH   7  12
ATOM     12  C   UNL     1      -4.786  -0.621   8.056  0.00  0.00    -0.015 A 
ATOM     13  C   UNL     1      -5.922  -0.856   7.282  0.00  0.00    +0.008 A 
ATOM     14  C   UNL     1      -7.005  -1.510   7.832  0.00  0.00    +0.002 A 
ATOM     15  C   UNL     1      -6.968  -1.932   9.149  0.00  0.00    +0.020 A 
ATOM     16  C   UNL     1      -5.843  -1.702   9.922  0.00  0.00    +0.042 A 
ATOM     17  C   UNL     1      -4.750  -1.054   9.381  0.00  0.00    +0.028 A 
ATOM     18 CL   UNL     1      -5.804  -2.234  11.574  0.00  0.00    -0.084 Cl
ENDBRANCH   7  12
BRANCH   1  19
ATOM     19  C   UNL     1      -1.030  -1.117   2.536  0.00  0.00    -0.003 C 
BRANCH  19  20
ATOM     20  N   UNL     1       0.158  -0.259   2.446  0.00  0.00    +0.386 N 
ATOM     21  H   UNL     1      -0.111   0.704   2.585  0.00  0.00    -0.081 HD
BRANCH  20  22
ATOM     22  C   UNL     1       0.771  -0.409   1.119  0.00  0.00    -0.075 C 
BRANCH  22  24
ATOM     23  C   UNL     1      -0.386   1.633   0.261  0.00  0.00    +0.005 C 
ATOM     24  C   UNL     1      -0.183   0.130   0.052  0.00  0.00    -0.034 C 
ATOM     25  C   UNL     1       0.411  -0.116  -1.335  0.00  0.00    +0.005 C 
ENDBRANCH  22  24
ENDBRANCH  20  22
BRANCH  20  26
ATOM     26  C   UNL     1       1.125  -0.651   3.480  0.00  0.00    -0.044 C 
BRANCH  26  27
ATOM     27  C   UNL     1       2.307   0.320   3.468  0.00  0.00    +0.124 C 
BRANCH  27  28
ATOM     28  O   UNL     1       1.857   1.623   3.846  0.00  0.00    -0.391 OA
ATOM     29  H   UNL     1       1.464   1.662   4.729  0.00  0.00    +0.210 HD
ENDBRANCH  27  28
BRANCH  27  30
ATOM     30  C   UNL     1       3.371  -0.159   4.457  0.00  0.00    +0.189 C 
BRANCH  30  31
ATOM     31  O   UNL     1       4.523   0.682   4.362  0.00  0.00    -0.377 OA
BRANCH  31  32
ATOM     32  C   UNL     1       5.583   0.318   5.249  0.00  0.00    +0.163 C 
BRANCH  32  33
ATOM     33  C   UNL     1       6.757   1.281   5.062  0.00  0.00    +0.009 C 
ATOM     34  C   UNL     1       7.841   0.970   6.097  0.00  0.00    +0.009 C 
ATOM     35  C   UNL     1       7.333   1.115   3.655  0.00  0.00    +0.009 C 
ENDBRANCH  32  33
ENDBRANCH  31  32
ENDBRANCH  30  31
ENDBRANCH  27  30
ENDBRANCH  26  27
ENDBRANCH  20  26
ENDBRANCH  19  20
ENDBRANCH   1  19
TORSDOF 12
