REMARK  Name = ZINC01853022
REMARK  13 active torsions:
REMARK  status: ('A' for Active; 'I' for Inactive)
REMARK    1  A    between atoms: C_1  and  C_2
REMARK    2  A    between atoms: C_2  and  O_3
REMARK    3  A    between atoms: O_3  and  C_4
REMARK    4  A    between atoms: C_4  and  C_6
REMARK    5  A    between atoms: C_7  and  C_43
REMARK    6  A    between atoms: C_8  and  C_38
REMARK    7  A    between atoms: C_10  and  N_11
REMARK    8  A    between atoms: C_12  and  C_14
REMARK    9  A    between atoms: C_19  and  C_34
REMARK   10  A    between atoms: C_22  and  C_25
REMARK   11  A    between atoms: C_38  and  O_40
REMARK   12  A    between atoms: O_40  and  C_41
REMARK   13  A    between atoms: C_41  and  C_42
REMARK                            x       y       z     vdW  Elec       q    Type
REMARK                         _______ _______ _______ _____ _____    ______ ____
ROOT
ATOM      1  C   UNL     1      -2.565  -2.602  -5.389  0.00  0.00    +0.149 A 
ATOM      2  C   UNL     1      -3.237  -2.907  -6.594  0.00  0.00    +0.078 A 
ATOM      3  C   UNL     1      -4.538  -2.598  -6.424  0.00  0.00    +0.119 A 
ATOM      4  N   UNL     1      -4.699  -2.115  -5.156  0.00  0.00    -0.238 N 
ATOM      5  N   UNL     1      -3.453  -2.131  -4.530  0.00  0.00    -0.164 NA
ATOM      6  C   UNL     1      -5.987  -1.679  -4.609  0.00  0.00    +0.215 C 
ATOM      7  C   UNL     1      -7.114  -2.288  -5.451  0.00  0.00    +0.063 C 
ATOM      8  C   UNL     1      -6.852  -2.029  -6.939  0.00  0.00    +0.104 C 
ATOM      9  N   UNL     1      -5.603  -2.715  -7.322  0.00  0.00    -0.322 N 
ATOM     10  H   UNL     1      -5.525  -3.218  -8.148  0.00  0.00    +0.148 HD
ENDROOT
BRANCH   8  11
ATOM     11  C   UNL     1      -8.000  -2.566  -7.756  0.00  0.00    -0.024 A 
ATOM     12  C   UNL     1      -8.075  -3.918  -8.035  0.00  0.00    +0.009 A 
ATOM     13  C   UNL     1      -9.126  -4.415  -8.783  0.00  0.00    +0.050 A 
ATOM     14  C   UNL     1     -10.107  -3.558  -9.255  0.00  0.00    +0.166 A 
ATOM     15  C   UNL     1     -10.031  -2.196  -8.974  0.00  0.00    +0.167 A 
ATOM     16  C   UNL     1      -8.978  -1.706  -8.219  0.00  0.00    +0.055 A 
ATOM     17  O   UNL     1     -11.103  -1.573  -9.544  0.00  0.00    -0.453 OA
ATOM     18  C   UNL     1     -11.614  -2.502 -10.519  0.00  0.00    +0.466 C 
ATOM     19  O   UNL     1     -11.226  -3.788 -10.002  0.00  0.00    -0.453 OA
ENDBRANCH   8  11
BRANCH   1  21
ATOM     20  N   UNL     1      -0.606  -2.456  -3.930  0.00  0.00    -0.274 N 
ATOM     21  C   UNL     1      -1.122  -2.783  -5.131  0.00  0.00    +0.269 C 
ATOM     22  O   UNL     1      -0.401  -3.227  -6.003  0.00  0.00    -0.268 OA
ATOM     23  H   UNL     1      -1.182  -2.102  -3.235  0.00  0.00    +0.156 HD
BRANCH  20  28
ATOM     24  C   UNL     1       1.450  -2.345  -2.518  0.00  0.00    +0.091 A 
ATOM     25  C   UNL     1       2.813  -2.606  -2.513  0.00  0.00    -0.014 A 
ATOM     26  C   UNL     1       3.339  -3.114  -3.671  0.00  0.00    +0.102 A 
ATOM     27  S   UNL     1       1.915  -3.213  -4.738  0.00  0.00    -0.066 S 
ATOM     28  C   UNL     1       0.742  -2.625  -3.690  0.00  0.00    +0.087 A 
ATOM     29  C   UNL     1       3.668  -2.345  -1.299  0.00  0.00    +0.046 C 
BRANCH  24  30
ATOM     30  C   UNL     1       0.776  -1.800  -1.335  0.00  0.00    +0.342 C 
ATOM     31  O   UNL     1       0.312  -2.551  -0.499  0.00  0.00    -0.245 OA
BRANCH  30  32
ATOM     32  O   UNL     1       0.671  -0.465  -1.174  0.00  0.00    -0.461 OA
BRANCH  32  34
ATOM     33  C   UNL     1      -0.019   1.526   0.010  0.00  0.00    +0.048 C 
ATOM     34  C   UNL     1       0.002  -0.004   0.002  0.00  0.00    +0.229 C 
ENDBRANCH  32  34
ENDBRANCH  30  32
ENDBRANCH  24  30
BRANCH  26  35
ATOM     35  C   UNL     1       4.724  -3.482  -3.961  0.00  0.00    +0.346 C 
ATOM     36  O   UNL     1       5.580  -3.347  -3.107  0.00  0.00    -0.244 OA
BRANCH  35  37
ATOM     37  O   UNL     1       5.053  -3.971  -5.175  0.00  0.00    -0.461 OA
BRANCH  37  38
ATOM     38  C   UNL     1       6.424  -4.310  -5.388  0.00  0.00    +0.229 C 
ATOM     39  C   UNL     1       6.602  -4.843  -6.811  0.00  0.00    +0.048 C 
ENDBRANCH  37  38
ENDBRANCH  35  37
ENDBRANCH  26  35
ENDBRANCH  20  28
ENDBRANCH   1  21
BRANCH   6  40
ATOM     40  C   UNL     1      -6.114  -2.152  -3.160  0.00  0.00    +0.412 C 
ATOM     41  F   UNL     1      -5.076  -1.604  -2.398  0.00  0.00    -0.168 F 
ATOM     42  F   UNL     1      -7.344  -1.735  -2.640  0.00  0.00    -0.168 F 
ATOM     43  F   UNL     1      -6.038  -3.548  -3.116  0.00  0.00    -0.168 F 
ENDBRANCH   6  40
TORSDOF 10
