REMARK  Name = ZINC57789489
REMARK  8 active torsions:
REMARK  status: ('A' for Active; 'I' for Inactive)
REMARK    1  A    between atoms: C_1  and  C_2
REMARK    2  A    between atoms: C_2  and  C_4
REMARK    3  A    between atoms: C_2  and  N_6
REMARK    4  A    between atoms: C_4  and  N_5
REMARK    5  A    between atoms: C_9  and  C_17
REMARK    6  A    between atoms: C_17  and  C_18
REMARK    7  A    between atoms: C_17  and  C_19
REMARK    8  A    between atoms: C_17  and  C_20
REMARK                            x       y       z     vdW  Elec       q    Type
REMARK                         _______ _______ _______ _____ _____    ______ ____
ROOT
ATOM      1  N   UNL     1       0.711  -0.489   1.189  0.00  0.00    -0.264 N 
ATOM      2  C   UNL     1       0.061  -1.315   2.118  0.00  0.00    +0.079 A 
ATOM      3  C   UNL     1      -1.129  -1.945   1.794  0.00  0.00    +0.031 A 
ATOM      4  C   UNL     1      -1.754  -2.755   2.725  0.00  0.00    -0.040 A 
ATOM      5  C   UNL     1      -1.194  -2.936   3.976  0.00  0.00    +0.008 A 
ATOM      6  C   UNL     1      -0.006  -2.309   4.305  0.00  0.00    +0.048 A 
ATOM      7  C   UNL     1       0.626  -1.498   3.379  0.00  0.00    +0.143 A 
ATOM      8  O   UNL     1       1.797  -0.877   3.684  0.00  0.00    -0.481 OA
ATOM      9  C   UNL     1       2.724  -0.690   2.612  0.00  0.00    +0.325 C 
ATOM     10  C   UNL     1       2.001  -0.153   1.402  0.00  0.00    +0.258 C 
ATOM     11  O   UNL     1       2.576   0.581   0.626  0.00  0.00    -0.272 OA
ENDROOT
BRANCH   4  12
ATOM     12  C   UNL     1      -3.049  -3.441   2.374  0.00  0.00    -0.013 C 
ATOM     13  C   UNL     1      -2.830  -4.360   1.171  0.00  0.00    +0.015 C 
ATOM     14  C   UNL     1      -3.526  -4.269   3.569  0.00  0.00    +0.015 C 
ATOM     15  C   UNL     1      -4.105  -2.390   2.028  0.00  0.00    +0.015 C 
ENDBRANCH   4  12
BRANCH   1  17
ATOM     16  C   UNL     1      -0.019   1.526   0.010  0.00  0.00    +0.026 C 
ATOM     17  C   UNL     1       0.002  -0.004   0.002  0.00  0.00    +0.061 C 
BRANCH  17  18
ATOM     18  C   UNL     1       0.718  -0.497  -1.257  0.00  0.00    -0.064 C 
BRANCH  18  19
ATOM     19  N   UNL     1       0.844  -1.960  -1.207  0.00  0.00    +0.379 N 
ATOM     20  H   UNL     1       1.377  -2.224  -0.392  0.00  0.00    -0.090 HD
ATOM     21  H   UNL     1      -0.074  -2.375  -1.158  0.00  0.00    -0.090 HD
ATOM     22  H   UNL     1       1.316  -2.286  -2.037  0.00  0.00    -0.090 HD
ENDBRANCH  18  19
ENDBRANCH  17  18
ENDBRANCH   1  17
TORSDOF 4
