REMARK  Name = ZINC39695801
REMARK  9 active torsions:
REMARK  status: ('A' for Active; 'I' for Inactive)
REMARK    1  A    between atoms: C_1  and  C_2
REMARK    2  A    between atoms: C_2  and  C_3
REMARK    3  A    between atoms: C_3  and  C_5
REMARK    4  A    between atoms: C_3  and  C_11
REMARK    5  A    between atoms: C_15  and  C_24
REMARK    6  A    between atoms: N_26  and  C_27
REMARK    7  A    between atoms: C_27  and  C_29
REMARK    8  A    between atoms: C_27  and  C_30
REMARK    9  A    between atoms: C_36  and  C_40
REMARK                            x       y       z     vdW  Elec       q    Type
REMARK                         _______ _______ _______ _____ _____    ______ ____
ROOT
ATOM      1  C   UNL     1      -2.057  -0.056  -1.030  0.00  0.00    +0.223 C 
ATOM      2  O   UNL     1      -2.682  -0.871  -1.675  0.00  0.00    -0.275 OA
ATOM      3  N   UNL     1      -2.104   1.249  -1.364  0.00  0.00    -0.300 N 
ATOM      4  C   UNL     1      -1.487   2.392  -0.652  0.00  0.00    +0.121 C 
ATOM      5  C   UNL     1      -0.962   3.314  -1.775  0.00  0.00    +0.100 C 
ATOM      6  C   UNL     1      -1.820   2.965  -3.003  0.00  0.00    -0.004 C 
ATOM      7  C   UNL     1      -2.781   1.863  -2.532  0.00  0.00    +0.115 C 
ATOM      8  C   UNL     1      -2.604   4.189  -3.466  0.00  0.00    -0.010 C 
ATOM      9  C   UNL     1      -3.403   3.831  -4.722  0.00  0.00    -0.082 C 
ATOM     10  N   UNL     1      -2.486   3.384  -5.778  0.00  0.00    +0.379 N 
ATOM     11  C   UNL     1      -1.804   2.153  -5.360  0.00  0.00    -0.082 C 
ATOM     12  C   UNL     1      -0.937   2.440  -4.131  0.00  0.00    -0.010 C 
ATOM     13  H   UNL     1      -3.009   3.208  -6.623  0.00  0.00    -0.086 HD
ATOM     14  H   UNL     1      -1.801   4.104  -5.953  0.00  0.00    -0.086 HD
ENDROOT
BRANCH   5  15
ATOM     15  C   UNL     1      -1.149   4.761  -1.397  0.00  0.00    +0.219 C 
ATOM     16  O   UNL     1      -2.046   5.080  -0.644  0.00  0.00    -0.275 OA
ATOM     17  N   UNL     1      -0.321   5.700  -1.894  0.00  0.00    -0.305 N 
ATOM     18  H   UNL     1       0.396   5.445  -2.495  0.00  0.00    +0.149 HD
BRANCH  17  19
ATOM     19  C   UNL     1      -0.503   7.107  -1.526  0.00  0.00    +0.136 C 
ATOM     20  C   UNL     1       0.214   7.385  -0.203  0.00  0.00    +0.036 C 
BRANCH  19  21
ATOM     21  C   UNL     1       0.075   7.987  -2.604  0.00  0.00    +0.128 A 
ATOM     22  H   UNL     1      -1.005   9.760  -2.389  0.00  0.00    +0.167 HD
ATOM     23  N   UNL     1       1.017   7.634  -3.429  0.00  0.00    -0.231 NA
ATOM     24  C   UNL     1       1.298   8.664  -4.268  0.00  0.00    +0.089 A 
ATOM     25  C   UNL     1       2.200   8.829  -5.322  0.00  0.00    +0.030 A 
ATOM     26  C   UNL     1       2.250  10.017  -5.996  0.00  0.00    +0.005 A 
ATOM     27  C   UNL     1       1.412  11.065  -5.645  0.00  0.00    -0.048 A 
ATOM     28  C   UNL     1       0.513  10.925  -4.608  0.00  0.00    +0.031 A 
ATOM     29  C   UNL     1       0.449   9.725  -3.912  0.00  0.00    +0.067 A 
ATOM     30  N   UNL     1      -0.317   9.264  -2.860  0.00  0.00    -0.340 N 
ATOM     31  C   UNL     1       1.483  12.366  -6.402  0.00  0.00    +0.044 C 
ENDBRANCH  19  21
ENDBRANCH  17  19
ENDBRANCH   5  15
BRANCH   1  32
ATOM     32  C   UNL     1      -1.227  -0.502   0.146  0.00  0.00    +0.105 C 
BRANCH  32  33
ATOM     33  C   UNL     1      -2.088  -0.543   1.383  0.00  0.00    -0.036 A 
ATOM     34  C   UNL     1      -3.194  -1.371   1.427  0.00  0.00    +0.004 A 
ATOM     35  C   UNL     1      -3.984  -1.408   2.561  0.00  0.00    +0.000 A 
ATOM     36  C   UNL     1      -3.667  -0.618   3.650  0.00  0.00    +0.000 A 
ATOM     37  C   UNL     1      -2.561   0.209   3.606  0.00  0.00    +0.000 A 
ATOM     38  C   UNL     1      -1.768   0.243   2.474  0.00  0.00    +0.004 A 
ENDBRANCH  32  33
BRANCH  32  40
ATOM     39  C   UNL     1       0.323  -1.828  -1.297  0.00  0.00    +0.005 C 
ATOM     40  C   UNL     1      -0.662  -1.898  -0.128  0.00  0.00    +0.014 C 
ENDBRANCH  32  40
ENDBRANCH   1  32
TORSDOF 6
