REMARK  Name = ZINC42796109
REMARK  4 active torsions:
REMARK  status: ('A' for Active; 'I' for Inactive)
REMARK    1  A    between atoms: C_4  and  C_11
REMARK    2  A    between atoms: C_5  and  N_6
REMARK    3  A    between atoms: N_13  and  N_14
REMARK    4  A    between atoms: N_14  and  C_15
REMARK                            x       y       z     vdW  Elec       q    Type
REMARK                         _______ _______ _______ _____ _____    ______ ____
ROOT
ATOM      1  C   UNL     1       1.658  -2.009   0.282  0.00  0.00    +0.269 C 
ATOM      2  O   UNL     1       0.799  -2.863   0.402  0.00  0.00    -0.268 OA
ATOM      3  N   UNL     1       2.937  -2.367   0.052  0.00  0.00    -0.232 N 
ATOM      4  H   UNL     1       3.621  -1.686  -0.044  0.00  0.00    +0.173 HD
ENDROOT
BRANCH   1   8
ATOM      5  C   UNL     1       0.040   1.363   0.666  0.00  0.00    +0.036 A 
ATOM      6  C   UNL     1       1.199   2.040   0.489  0.00  0.00    +0.048 A 
ATOM      7  S   UNL     1       2.351   0.841   0.254  0.00  0.00    -0.090 S 
ATOM      8  C   UNL     1       1.303  -0.594   0.388  0.00  0.00    +0.101 A 
ATOM      9  C   UNL     1       0.056  -0.017   0.620  0.00  0.00    +0.088 A 
BRANCH   9  10
ATOM     10  N   UNL     1      -1.102  -0.784   0.794  0.00  0.00    -0.199 N 
ATOM     11  C   UNL     1      -2.357  -0.336   1.018  0.00  0.00    +0.250 A 
ATOM     12  N   UNL     1      -3.131  -1.385   1.119  0.00  0.00    -0.116 NA
ATOM     13  N   UNL     1      -2.451  -2.465   0.975  0.00  0.00    -0.023 NA
ATOM     14  N   UNL     1      -1.210  -2.186   0.768  0.00  0.00    -0.039 NA
ENDBRANCH   9  10
ENDBRANCH   1   8
BRANCH   3  15
ATOM     15  N   UNL     1       3.277  -3.722  -0.050  0.00  0.00    -0.261 N 
ATOM     16  H   UNL     1       2.583  -4.399  -0.037  0.00  0.00    +0.170 HD
BRANCH  15  17
ATOM     17  C   UNL     1       4.619  -4.099  -0.170  0.00  0.00    +0.081 A 
ATOM     18  C   UNL     1       4.969  -5.182  -0.967  0.00  0.00    +0.066 A 
ATOM     19  C   UNL     1       6.296  -5.552  -1.084  0.00  0.00    +0.042 A 
ATOM     20  C   UNL     1       7.275  -4.844  -0.409  0.00  0.00    +0.044 A 
ATOM     21  C   UNL     1       6.930  -3.765   0.385  0.00  0.00    +0.042 A 
ATOM     22  C   UNL     1       5.605  -3.387   0.502  0.00  0.00    +0.066 A 
ATOM     23 CL   UNL     1       5.173  -2.029   1.493  0.00  0.00    -0.081 Cl
ATOM     24 CL   UNL     1       8.940  -5.312  -0.559  0.00  0.00    -0.083 Cl
ATOM     25 CL   UNL     1       3.741  -6.071  -1.813  0.00  0.00    -0.081 Cl
ENDBRANCH  15  17
ENDBRANCH   3  15
TORSDOF 4
