REMARK  Name = ZINC23038660
REMARK  10 active torsions:
REMARK  status: ('A' for Active; 'I' for Inactive)
REMARK    1  A    between atoms: C_1  and  C_2
REMARK    2  A    between atoms: C_5  and  C_8
REMARK    3  A    between atoms: C_8  and  N_9
REMARK    4  A    between atoms: C_10  and  C_12
REMARK    5  A    between atoms: C_12  and  C_14
REMARK    6  A    between atoms: C_12  and  N_15
REMARK    7  A    between atoms: N_15  and  C_16
REMARK    8  A    between atoms: N_15  and  C_17
REMARK    9  A    between atoms: C_17  and  C_18
REMARK   10  A    between atoms: N_20  and  C_21
REMARK                            x       y       z     vdW  Elec       q    Type
REMARK                         _______ _______ _______ _____ _____    ______ ____
ROOT
ATOM      1  N   UNL     1       1.105   7.358   3.076  0.00  0.00    +0.391 N 
ATOM      2  C   UNL     1       2.296   7.896   2.404  0.00  0.00    -0.094 C 
ATOM      3  H   UNL     1       0.220   7.694   2.517  0.00  0.00    -0.080 HD
ENDROOT
BRANCH   1   4
ATOM      4  C   UNL     1       1.114   5.889   3.068  0.00  0.00    +0.016 C 
ATOM      5  C   UNL     1       2.373   5.383   3.774  0.00  0.00    -0.004 C 
BRANCH   4   7
ATOM      6  N   UNL     1       1.108   4.071   1.391  0.00  0.00    -0.313 N 
ATOM      7  C   UNL     1       1.103   5.395   1.645  0.00  0.00    +0.199 C 
ATOM      8  O   UNL     1       1.089   6.188   0.727  0.00  0.00    -0.278 OA
ATOM      9  H   UNL     1       1.121   3.352   2.223  0.00  0.00    +0.149 HD
BRANCH   6  10
ATOM     10  C   UNL     1       1.097   3.591   0.007  0.00  0.00    +0.139 C 
BRANCH  10  15
ATOM     11  C   UNL     1       1.131  -2.188  -0.027  0.00  0.00    +0.044 C 
ATOM     12  C   UNL     1       1.122  -0.681  -0.018  0.00  0.00    -0.050 A 
ATOM     13  C   UNL     1      -0.079   0.003  -0.002  0.00  0.00    +0.003 A 
ATOM     14  C   UNL     1      -0.087   1.385   0.007  0.00  0.00    +0.005 A 
ATOM     15  C   UNL     1       1.106   2.084  -0.001  0.00  0.00    -0.030 A 
ATOM     16  C   UNL     1       2.307   1.400  -0.018  0.00  0.00    +0.005 A 
ATOM     17  C   UNL     1       2.315   0.017  -0.026  0.00  0.00    +0.003 A 
ENDBRANCH  10  15
ENDBRANCH   6  10
ENDBRANCH   4   7
ENDBRANCH   1   4
BRANCH   1  18
ATOM     18  C   UNL     1       0.997   7.876   4.447  0.00  0.00    +0.020 C 
BRANCH  18  19
ATOM     19  C   UNL     1       0.744   9.362   4.404  0.00  0.00    +0.201 C 
ATOM     20  O   UNL     1       0.663   9.932   3.336  0.00  0.00    -0.278 OA
ATOM     21  N   UNL     1       0.609  10.056   5.551  0.00  0.00    -0.286 N 
ATOM     22  H   UNL     1       0.608   9.528   6.516  0.00  0.00    +0.155 HD
BRANCH  21  23
ATOM     23  C   UNL     1       0.469  11.448   5.514  0.00  0.00    +0.047 A 
ATOM     24  C   UNL     1      -0.223  12.050   4.471  0.00  0.00    +0.024 A 
ATOM     25  C   UNL     1      -0.363  13.424   4.440  0.00  0.00    +0.002 A 
ATOM     26  C   UNL     1       0.193  14.200   5.441  0.00  0.00    +0.001 A 
ATOM     27  C   UNL     1       0.886  13.605   6.478  0.00  0.00    +0.017 A 
ATOM     28  C   UNL     1       1.026  12.230   6.518  0.00  0.00    +0.039 A 
ATOM     29 BR   UNL     1       1.975  11.416   7.936  0.00  0.00    -0.048 Br
ENDBRANCH  21  23
ENDBRANCH  18  19
ENDBRANCH   1  18
TORSDOF 7
