REMARK  Name = ZINC37291216
REMARK  4 active torsions:
REMARK  status: ('A' for Active; 'I' for Inactive)
REMARK    1  A    between atoms: C_4  and  N_18
REMARK    2  A    between atoms: C_5  and  N_7
REMARK    3  A    between atoms: C_8  and  N_17
REMARK    4  A    between atoms: C_10  and  C_12
REMARK                            x       y       z     vdW  Elec       q    Type
REMARK                         _______ _______ _______ _____ _____    ______ ____
ROOT
ATOM      1  N   UNL     1       1.580  -2.016   0.464  0.00  0.00    -0.216 N 
ATOM      2  C   UNL     1       0.599  -2.951   0.604  0.00  0.00    +0.120 A 
ATOM      3  C   UNL     1       1.199  -4.153   0.806  0.00  0.00    +0.074 A 
ATOM      4  C   UNL     1       2.594  -3.946   0.790  0.00  0.00    +0.102 A 
ATOM      5  N   UNL     1       2.816  -2.664   0.578  0.00  0.00    -0.164 NA
ENDROOT
BRANCH   1  10
ATOM      6  C   UNL     1       0.932   1.551   1.080  0.00  0.00    +0.002 A 
ATOM      7  C   UNL     1       1.004   2.056  -0.205  0.00  0.00    +0.002 A 
ATOM      8  C   UNL     1       1.266   1.213  -1.269  0.00  0.00    +0.035 A 
ATOM      9  C   UNL     1       1.457  -0.138  -1.051  0.00  0.00    +0.151 A 
ATOM     10  C   UNL     1       1.386  -0.648   0.239  0.00  0.00    +0.098 A 
ATOM     11  C   UNL     1       1.122   0.202   1.305  0.00  0.00    +0.030 A 
BRANCH   9  12
ATOM     12  N   UNL     1       1.737  -1.040  -2.191  0.00  0.00    +0.059 N 
ATOM     13  O   UNL     1       1.896  -0.583  -3.299  0.00  0.00    -0.126 OA
ATOM     14  O   UNL     1       1.807  -2.234  -2.013  0.00  0.00    -0.126 OA
ENDBRANCH   9  12
ENDBRANCH   1  10
BRANCH   4  15
ATOM     15  C   UNL     1       3.627  -4.988   0.972  0.00  0.00    +0.039 A 
ATOM     16  C   UNL     1       4.990  -4.860   0.973  0.00  0.00    +0.018 A 
ATOM     17  C   UNL     1       5.761  -5.986   1.164  0.00  0.00    +0.008 A 
ATOM     18  C   UNL     1       5.149  -7.184   1.345  0.00  0.00    +0.046 A 
ATOM     19  S   UNL     1       3.423  -6.739   1.254  0.00  0.00    -0.095 S 
ENDBRANCH   4  15
BRANCH   2  20
ATOM     20  N   UNL     1      -0.772  -2.717   0.549  0.00  0.00    -0.343 N 
ATOM     21  H   UNL     1      -1.105  -1.834   0.323  0.00  0.00    +0.144 HD
ATOM     22  H   UNL     1      -1.395  -3.436   0.738  0.00  0.00    +0.144 HD
ENDBRANCH   2  20
TORSDOF 4
