REMARK  Name = ZINC13501147
REMARK  12 active torsions:
REMARK  status: ('A' for Active; 'I' for Inactive)
REMARK    1  A    between atoms: C_1  and  C_2
REMARK    2  A    between atoms: C_2  and  C_3
REMARK    3  A    between atoms: C_3  and  C_5
REMARK    4  A    between atoms: C_3  and  N_70
REMARK    5  A    between atoms: N_9  and  C_10
REMARK    6  A    between atoms: C_10  and  C_11
REMARK    7  A    between atoms: C_14  and  O_17
REMARK    8  A    between atoms: O_17  and  C_18
REMARK    9  A    between atoms: C_19  and  C_20
REMARK   10  A    between atoms: C_19  and  N_70
REMARK   11  A    between atoms: C_24  and  C_32
REMARK   12  A    between atoms: C_33  and  N_70
REMARK                            x       y       z     vdW  Elec       q    Type
REMARK                         _______ _______ _______ _____ _____    ______ ____
ROOT
ATOM      1  N   UNL     1       0.810   3.905  -0.829  0.00  0.00    +0.391 N 
ATOM      2  H   UNL     1      -0.068   4.048  -0.317  0.00  0.00    -0.080 HD
ENDROOT
BRANCH   1   3
ATOM      3  C   UNL     1       0.513   3.228  -2.109  0.00  0.00    -0.067 C 
ATOM      4  C   UNL     1      -0.348   4.152  -2.995  0.00  0.00    -0.015 C 
ATOM      5  C   UNL     1      -1.347   3.191  -3.688  0.00  0.00    -0.002 C 
ATOM      6  C   UNL     1      -1.672   2.170  -2.568  0.00  0.00    -0.002 C 
ATOM      7  C   UNL     1      -0.328   1.968  -1.839  0.00  0.00    -0.015 C 
ENDBRANCH   1   3
BRANCH   1   8
ATOM      8  C   UNL     1       1.711   3.066  -0.012  0.00  0.00    +0.003 C 
BRANCH   8   9
ATOM      9  C   UNL     1       1.393   3.297   1.443  0.00  0.00    +0.138 A 
ATOM     10  N   UNL     1       0.960   4.411   1.982  0.00  0.00    -0.115 NA
ATOM     11  N   UNL     1       0.806   4.209   3.245  0.00  0.00    -0.023 NA
ATOM     12  N   UNL     1       1.131   2.995   3.526  0.00  0.00    -0.044 NA
ATOM     13  N   UNL     1       1.498   2.401   2.441  0.00  0.00    -0.226 N 
BRANCH  13  14
ATOM     14  C   UNL     1       1.944   1.011   2.319  0.00  0.00    +0.182 C 
BRANCH  14  15
ATOM     15  C   UNL     1       0.745   0.107   2.196  0.00  0.00    -0.026 A 
ATOM     16  C   UNL     1       0.087  -0.325   3.333  0.00  0.00    +0.009 A 
ATOM     17  C   UNL     1      -1.017  -1.149   3.224  0.00  0.00    +0.046 A 
ATOM     18  C   UNL     1      -1.458  -1.552   1.972  0.00  0.00    +0.120 A 
ATOM     19  C   UNL     1      -0.792  -1.123   0.833  0.00  0.00    +0.046 A 
ATOM     20  C   UNL     1       0.307  -0.294   0.948  0.00  0.00    +0.009 A 
BRANCH  18  21
ATOM     21  O   UNL     1      -2.540  -2.367   1.861  0.00  0.00    -0.495 OA
ATOM     22  C   UNL     1      -3.175  -2.770   3.076  0.00  0.00    +0.277 C 
ENDBRANCH  18  21
ENDBRANCH  14  15
ENDBRANCH  13  14
ENDBRANCH   8   9
BRANCH   8  24
ATOM     23  C   UNL     1       3.523   3.107  -1.732  0.00  0.00    +0.002 C 
ATOM     24  C   UNL     1       3.172   3.436  -0.279  0.00  0.00    -0.011 C 
ENDBRANCH   8  24
ENDBRANCH   1   8
BRANCH   1  25
ATOM     25  C   UNL     1       1.436   5.219  -1.085  0.00  0.00    -0.036 C 
BRANCH  25  26
ATOM     26  C   UNL     1       1.258   6.084   0.135  0.00  0.00    +0.001 A 
ATOM     27  C   UNL     1       2.303   6.295   0.973  0.00  0.00    +0.017 A 
ATOM     28  C   UNL     1       2.098   7.146   2.147  0.00  0.00    -0.001 A 
ATOM     29  C   UNL     1       3.140   7.406   3.043  0.00  0.00    +0.013 A 
ATOM     30  C   UNL     1       2.915   8.200   4.131  0.00  0.00    -0.050 A 
ATOM     31  C   UNL     1       1.661   8.752   4.355  0.00  0.00    +0.005 A 
ATOM     32  C   UNL     1       0.620   8.510   3.486  0.00  0.00    +0.026 A 
ATOM     33  C   UNL     1       0.825   7.704   2.371  0.00  0.00    +0.049 A 
ATOM     34  N   UNL     1      -0.198   7.446   1.484  0.00  0.00    -0.322 N 
ATOM     35  H   UNL     1      -1.074   7.831   1.640  0.00  0.00    +0.169 HD
ATOM     36  C   UNL     1       0.001   6.668   0.405  0.00  0.00    +0.251 A 
ATOM     37  O   UNL     1      -0.926   6.461  -0.358  0.00  0.00    -0.268 OA
ATOM     38  C   UNL     1       4.038   8.479   5.097  0.00  0.00    +0.044 C 
ENDBRANCH  25  26
ENDBRANCH   1  25
TORSDOF 9
