REMARK  Name = ZINC20086171
REMARK  3 active torsions:
REMARK  status: ('A' for Active; 'I' for Inactive)
REMARK    1  A    between atoms: C_5  and  C_7
REMARK    2  A    between atoms: C_9  and  C_22
REMARK    3  A    between atoms: C_10  and  N_21
REMARK                            x       y       z     vdW  Elec       q    Type
REMARK                         _______ _______ _______ _____ _____    ______ ____
ROOT
ATOM      1  C   UNL     1      -0.013   1.086   0.008  0.00  0.00    +0.148 C 
ATOM      2  C   UNL     1       1.401   1.603  -0.003  0.00  0.00    +0.092 C 
ATOM      3  C   UNL     1       1.730   2.773  -0.623  0.00  0.00    +0.119 C 
ATOM      4  N   UNL     1       0.733   3.461  -1.292  0.00  0.00    -0.267 N 
ATOM      5  C   UNL     1       0.689   4.732  -1.790  0.00  0.00    +0.076 A 
ATOM      6  C   UNL     1       1.603   5.778  -1.796  0.00  0.00    +0.028 A 
ATOM      7  C   UNL     1       1.210   6.957  -2.409  0.00  0.00    +0.002 A 
ATOM      8  C   UNL     1      -0.036   7.100  -2.994  0.00  0.00    +0.002 A 
ATOM      9  C   UNL     1      -0.964   6.074  -3.000  0.00  0.00    +0.030 A 
ATOM     10  C   UNL     1      -0.589   4.874  -2.386  0.00  0.00    +0.091 A 
ATOM     11  N   UNL     1      -1.247   3.707  -2.220  0.00  0.00    -0.214 NA
ATOM     12  C   UNL     1      -0.488   2.869  -1.577  0.00  0.00    +0.203 A 
ATOM     13  N   UNL     1      -0.746   1.569  -1.173  0.00  0.00    -0.303 N 
ATOM     14  H   UNL     1      -1.457   0.907  -1.689  0.00  0.00    +0.150 HD
ENDROOT
BRANCH   1  19
ATOM     15  C   UNL     1      -2.207   3.093   2.334  0.00  0.00    +0.000 A 
ATOM     16  C   UNL     1      -1.990   2.452   3.540  0.00  0.00    +0.001 A 
ATOM     17  C   UNL     1      -1.133   1.370   3.603  0.00  0.00    +0.015 A 
ATOM     18  C   UNL     1      -0.493   0.927   2.460  0.00  0.00    +0.023 A 
ATOM     19  C   UNL     1      -0.710   1.568   1.254  0.00  0.00    -0.008 A 
ATOM     20  C   UNL     1      -1.563   2.654   1.192  0.00  0.00    +0.007 A 
ATOM     21 BR   UNL     1       0.679  -0.555   2.546  0.00  0.00    -0.050 Br
ENDBRANCH   1  19
BRANCH   3  22
ATOM     22  N   UNL     1       3.016   3.254  -0.585  0.00  0.00    -0.343 N 
ATOM     23  H   UNL     1       3.265   4.199  -1.091  0.00  0.00    +0.144 HD
ATOM     24  H   UNL     1       3.797   2.695  -0.049  0.00  0.00    +0.144 HD
ENDBRANCH   3  22
BRANCH   2  25
ATOM     25  C   UNL     1       2.425   0.849   0.655  0.00  0.00    +0.100 C 
ATOM     26  N   UNL     1       3.238   0.251   1.177  0.00  0.00    -0.191 NA
ENDBRANCH   2  25
TORSDOF 3
