REMARK  Name = ZINC39673521
REMARK  7 active torsions:
REMARK  status: ('A' for Active; 'I' for Inactive)
REMARK    1  A    between atoms: C_1  and  C_2
REMARK    2  A    between atoms: C_2  and  C_3
REMARK    3  A    between atoms: C_3  and  C_4
REMARK    4  A    between atoms: C_4  and  C_6
REMARK    5  A    between atoms: C_4  and  N_7
REMARK    6  A    between atoms: C_8  and  C_10
REMARK    7  A    between atoms: C_21  and  C_23
REMARK                            x       y       z     vdW  Elec       q    Type
REMARK                         _______ _______ _______ _____ _____    ______ ____
ROOT
ATOM      1  C   UNL     1      -2.607  -4.239  -1.088  0.00  0.00    +0.100 C 
ATOM      2  C   UNL     1      -2.976  -4.302  -2.587  0.00  0.00    +0.121 C 
ATOM      3  N   UNL     1      -2.601  -5.672  -3.008  0.00  0.00    -0.296 N 
ATOM      4  C   UNL     1      -2.993  -6.529  -1.864  0.00  0.00    +0.115 C 
ATOM      5  C   UNL     1      -2.623  -5.703  -0.616  0.00  0.00    -0.004 C 
ATOM      6  C   UNL     1      -1.243  -6.109  -0.106  0.00  0.00    -0.010 C 
ATOM      7  C   UNL     1      -1.299  -7.549   0.410  0.00  0.00    -0.082 C 
ATOM      8  N   UNL     1      -2.289  -7.647   1.488  0.00  0.00    +0.379 N 
ATOM      9  C   UNL     1      -3.628  -7.345   0.968  0.00  0.00    -0.082 C 
ATOM     10  C   UNL     1      -3.671  -5.896   0.475  0.00  0.00    -0.010 C 
ATOM     11  C   UNL     1      -2.033  -6.053  -4.169  0.00  0.00    +0.247 C 
ATOM     12  O   UNL     1      -1.865  -7.234  -4.405  0.00  0.00    -0.270 OA
ATOM     13  H   UNL     1      -2.281  -8.582   1.868  0.00  0.00    -0.086 HD
ATOM     14  H   UNL     1      -2.057  -6.989   2.217  0.00  0.00    -0.086 HD
ENDROOT
BRANCH  11  15
ATOM     15  C   UNL     1      -1.614  -5.037  -5.155  0.00  0.00    +0.045 A 
ATOM     16  C   UNL     1      -2.506  -4.035  -5.555  0.00  0.00    +0.014 A 
ATOM     17  C   UNL     1      -2.118  -3.085  -6.474  0.00  0.00    +0.001 A 
ATOM     18  C   UNL     1      -0.841  -3.110  -7.013  0.00  0.00    +0.012 A 
ATOM     19  C   UNL     1       0.060  -4.096  -6.631  0.00  0.00    +0.031 A 
ATOM     20  C   UNL     1      -0.320  -5.067  -5.691  0.00  0.00    +0.006 A 
ATOM     21  C   UNL     1       0.826  -5.983  -5.462  0.00  0.00    -0.006 A 
ATOM     22  C   UNL     1       0.974  -7.097  -4.646  0.00  0.00    +0.009 A 
ATOM     23  C   UNL     1       2.177  -7.785  -4.622  0.00  0.00    +0.001 A 
ATOM     24  C   UNL     1       3.235  -7.370  -5.407  0.00  0.00    +0.001 A 
ATOM     25  C   UNL     1       3.104  -6.261  -6.227  0.00  0.00    +0.012 A 
ATOM     26  C   UNL     1       1.903  -5.563  -6.261  0.00  0.00    +0.030 A 
ATOM     27  C   UNL     1       1.462  -4.374  -7.028  0.00  0.00    +0.194 C 
ATOM     28  O   UNL     1       2.126  -3.738  -7.821  0.00  0.00    -0.287 OA
ENDBRANCH  11  15
BRANCH   1  30
ATOM     29  N   UNL     1      -0.939  -2.954   0.209  0.00  0.00    -0.312 N 
ATOM     30  C   UNL     1      -1.234  -3.645  -0.910  0.00  0.00    +0.218 C 
ATOM     31  O   UNL     1      -0.394  -3.789  -1.773  0.00  0.00    -0.275 OA
ATOM     32  H   UNL     1      -1.610  -2.838   0.899  0.00  0.00    +0.149 HD
BRANCH  29  33
ATOM     33  C   UNL     1       0.397  -2.376   0.382  0.00  0.00    +0.070 C 
ATOM     34  C   UNL     1       0.454  -1.009  -0.302  0.00  0.00    +0.028 C 
BRANCH  33  35
ATOM     35  C   UNL     1       0.691  -2.212   1.875  0.00  0.00    +0.022 C 
BRANCH  35  37
ATOM     36  C   UNL     1       1.052  -3.427   4.028  0.00  0.00    +0.004 C 
ATOM     37  C   UNL     1       0.758  -3.591   2.536  0.00  0.00    -0.002 C 
ENDBRANCH  35  37
ENDBRANCH  33  35
ENDBRANCH  29  33
ENDBRANCH   1  30
TORSDOF 5
