REMARK  Name = ZINC36597497
REMARK  14 active torsions:
REMARK  status: ('A' for Active; 'I' for Inactive)
REMARK    1  A    between atoms: C_1  and  C_2
REMARK    2  A    between atoms: C_2  and  C_3
REMARK    3  A    between atoms: C_3  and  C_4
REMARK    4  A    between atoms: C_4  and  N_5
REMARK    5  A    between atoms: C_6  and  C_8
REMARK    6  A    between atoms: C_8  and  C_10
REMARK    7  A    between atoms: C_8  and  N_17
REMARK    8  A    between atoms: C_15  and  O_16
REMARK    9  A    between atoms: N_17  and  C_18
REMARK   10  A    between atoms: C_18  and  C_19
REMARK   11  A    between atoms: C_22  and  C_24
REMARK   12  A    between atoms: C_25  and  C_27
REMARK   13  A    between atoms: C_28  and  O_34
REMARK   14  A    between atoms: C_32  and  O_33
REMARK                            x       y       z     vdW  Elec       q    Type
REMARK                         _______ _______ _______ _____ _____    ______ ____
ROOT
ATOM      1  N   UNL     1       2.240  -5.785  -4.072  0.00  0.00    -0.274 N 
ATOM      2  C   UNL     1       1.067  -6.377  -4.372  0.00  0.00    +0.255 C 
ATOM      3  O   UNL     1       0.025  -5.767  -4.232  0.00  0.00    -0.270 OA
ENDROOT
BRANCH   2   4
ATOM      4  C   UNL     1       1.048  -7.763  -4.869  0.00  0.00    +0.119 A 
ATOM      5  C   UNL     1       0.948  -8.834  -3.969  0.00  0.00    +0.133 A 
ATOM      6  C   UNL     1       0.931 -10.134  -4.447  0.00  0.00    +0.046 A 
ATOM      7  C   UNL     1       1.012 -10.377  -5.806  0.00  0.00    +0.007 A 
ATOM      8  C   UNL     1       1.111  -9.329  -6.701  0.00  0.00    +0.046 A 
ATOM      9  C   UNL     1       1.125  -8.021  -6.245  0.00  0.00    +0.133 A 
BRANCH   9  10
ATOM     10  O   UNL     1       1.216  -6.993  -7.126  0.00  0.00    -0.506 OA
ATOM     11  H   UNL     1       2.124  -6.727  -7.327  0.00  0.00    +0.292 HD
ENDBRANCH   9  10
BRANCH   5  12
ATOM     12  O   UNL     1       0.869  -8.598  -2.635  0.00  0.00    -0.506 OA
ATOM     13  H   UNL     1      -0.035  -8.497  -2.307  0.00  0.00    +0.292 HD
ENDBRANCH   5  12
ENDBRANCH   2   4
BRANCH   1  14
ATOM     14  C   UNL     1       2.267  -4.378  -3.662  0.00  0.00    +0.196 C 
BRANCH  14  15
ATOM     15  C   UNL     1       1.881  -3.507  -4.829  0.00  0.00    +0.023 A 
ATOM     16  C   UNL     1       1.164  -4.041  -5.883  0.00  0.00    +0.009 A 
ATOM     17  C   UNL     1       0.809  -3.242  -6.954  0.00  0.00    +0.001 A 
ATOM     18  C   UNL     1       1.170  -1.908  -6.974  0.00  0.00    +0.004 A 
ATOM     19  C   UNL     1       1.886  -1.369  -5.923  0.00  0.00    +0.046 A 
ATOM     20  C   UNL     1       2.239  -2.167  -4.844  0.00  0.00    +0.122 A 
BRANCH  20  21
ATOM     21  O   UNL     1       2.939  -1.638  -3.806  0.00  0.00    -0.506 OA
ATOM     22  H   UNL     1       3.898  -1.692  -3.910  0.00  0.00    +0.292 HD
ENDBRANCH  20  21
ENDBRANCH  14  15
BRANCH  14  24
ATOM     23  N   UNL     1       1.146  -2.941  -1.990  0.00  0.00    -0.313 N 
ATOM     24  C   UNL     1       1.293  -4.166  -2.532  0.00  0.00    +0.238 C 
ATOM     25  O   UNL     1       0.640  -5.098  -2.111  0.00  0.00    -0.273 OA
ATOM     26  H   UNL     1       1.668  -2.196  -2.326  0.00  0.00    +0.149 HD
BRANCH  23  27
ATOM     27  C   UNL     1       0.199  -2.735  -0.891  0.00  0.00    +0.104 C 
BRANCH  27  28
ATOM     28  C   UNL     1       0.227  -1.266  -0.463  0.00  0.00    +0.018 C 
BRANCH  28  30
ATOM     29  C   UNL     1      -0.735   0.417   1.113  0.00  0.00    +0.004 C 
ATOM     30  C   UNL     1      -0.763  -1.051   0.684  0.00  0.00    -0.002 C 
ENDBRANCH  28  30
ENDBRANCH  27  28
ENDBRANCH  23  27
ENDBRANCH  14  24
ENDBRANCH   1  14
BRANCH   1  31
ATOM     31  C   UNL     1       3.489  -6.547  -4.157  0.00  0.00    +0.183 C 
BRANCH  31  32
ATOM     32  C   UNL     1       3.853  -7.067  -2.790  0.00  0.00    +0.122 A 
ATOM     33  C   UNL     1       3.589  -8.300  -2.321  0.00  0.00    +0.046 A 
ATOM     34  C   UNL     1       4.103  -8.357  -1.006  0.00  0.00    +0.045 A 
ATOM     35  C   UNL     1       4.652  -7.156  -0.750  0.00  0.00    +0.102 A 
ATOM     36  O   UNL     1       4.503  -6.380  -1.836  0.00  0.00    -0.463 OA
ATOM     37  C   UNL     1       5.325  -6.751   0.537  0.00  0.00    +0.086 C 
ENDBRANCH  31  32
ENDBRANCH   1  31
TORSDOF 12
