REMARK  Name = ZINC02930714
REMARK  7 active torsions:
REMARK  status: ('A' for Active; 'I' for Inactive)
REMARK    1  A    between atoms: C_6  and  C_7
REMARK    2  A    between atoms: C_7  and  C_8
REMARK    3  A    between atoms: C_8  and  N_9
REMARK    4  A    between atoms: C_10  and  C_12
REMARK    5  A    between atoms: C_12  and  N_13
REMARK    6  A    between atoms: C_17  and  S_23
REMARK    7  A    between atoms: S_23  and  N_26
REMARK                            x       y       z     vdW  Elec       q    Type
REMARK                         _______ _______ _______ _____ _____    ______ ____
ROOT
ATOM      1  N   UNL     1       2.407   1.043  -0.015  0.00  0.00    -0.265 N 
ATOM      2  C   UNL     1       3.055   0.514   1.100  0.00  0.00    +0.091 A 
ATOM      3  C   UNL     1       2.880   0.672   2.466  0.00  0.00    +0.031 A 
ATOM      4  C   UNL     1       3.703  -0.004   3.347  0.00  0.00    +0.031 A 
ATOM      5  C   UNL     1       4.699  -0.837   2.868  0.00  0.00    +0.109 A 
ATOM      6  C   UNL     1       4.874  -1.005   1.508  0.00  0.00    +0.077 A 
ATOM      7  C   UNL     1       4.056  -0.328   0.617  0.00  0.00    +0.159 A 
ATOM      8  O   UNL     1       4.001  -0.284  -0.737  0.00  0.00    -0.407 OA
ATOM      9  C   UNL     1       3.009   0.540  -1.111  0.00  0.00    +0.422 A 
ATOM     10  O   UNL     1       2.702   0.792  -2.260  0.00  0.00    -0.223 OA
ENDROOT
BRANCH   5  11
ATOM     11  S   UNL     1       5.744  -1.694   3.999  0.00  0.00    +0.061 S 
ATOM     12  O   UNL     1       6.947  -1.984   3.301  0.00  0.00    -0.153 OA
ATOM     13  O   UNL     1       5.727  -0.951   5.211  0.00  0.00    -0.153 OA
BRANCH  11  14
ATOM     14  N   UNL     1       5.024  -3.149   4.325  0.00  0.00    -0.177 NA
ATOM     15  C   UNL     1       4.105  -3.233   5.438  0.00  0.00    +0.109 C 
ATOM     16  C   UNL     1       4.873  -3.589   6.728  0.00  0.00    +0.017 C 
ATOM     17  C   UNL     1       5.327  -4.988   6.681  0.00  0.00    +0.001 C 
ATOM     18  C   UNL     1       6.313  -5.291   5.557  0.00  0.00    +0.001 C 
ATOM     19  C   UNL     1       5.550  -5.595   4.291  0.00  0.00    +0.017 C 
ATOM     20  C   UNL     1       5.351  -4.307   3.471  0.00  0.00    +0.109 C 
ENDBRANCH  11  14
ENDBRANCH   5  11
BRANCH   1  21
ATOM     21  C   UNL     1       1.280   1.980   0.001  0.00  0.00    +0.224 C 
BRANCH  21  23
ATOM     22  N   UNL     1      -1.191   1.867   0.018  0.00  0.00    -0.314 N 
ATOM     23  C   UNL     1      -0.014   1.209   0.009  0.00  0.00    +0.233 C 
ATOM     24  O   UNL     1       0.002  -0.004   0.002  0.00  0.00    -0.274 OA
ATOM     25  H   UNL     1      -1.204   2.837   0.023  0.00  0.00    +0.149 HD
BRANCH  22  26
ATOM     26  C   UNL     1      -2.449   1.117   0.020  0.00  0.00    +0.109 C 
BRANCH  26  27
ATOM     27  C   UNL     1      -3.626   2.095   0.031  0.00  0.00    +0.054 C 
BRANCH  27  33
ATOM     28  C   UNL     1      -5.522   0.982  -1.164  0.00  0.00    +0.005 A 
ATOM     29  C   UNL     1      -6.707   0.270  -1.163  0.00  0.00    +0.020 A 
ATOM     30  C   UNL     1      -7.296  -0.091   0.036  0.00  0.00    +0.041 A 
ATOM     31  C   UNL     1      -6.696   0.257   1.233  0.00  0.00    +0.020 A 
ATOM     32  C   UNL     1      -5.508   0.964   1.231  0.00  0.00    +0.005 A 
ATOM     33  C   UNL     1      -4.920   1.324   0.033  0.00  0.00    -0.046 A 
ATOM     34 CL   UNL     1      -8.787  -0.980   0.038  0.00  0.00    -0.084 Cl
ENDBRANCH  27  33
ENDBRANCH  26  27
ENDBRANCH  22  26
ENDBRANCH  21  23
ENDBRANCH   1  21
TORSDOF 7
