REMARK  Name = ZINC35992204
REMARK  11 active torsions:
REMARK  status: ('A' for Active; 'I' for Inactive)
REMARK    1  A    between atoms: C_1  and  C_2
REMARK    2  A    between atoms: C_2  and  N_3
REMARK    3  A    between atoms: C_4  and  C_23
REMARK    4  A    between atoms: C_5  and  C_18
REMARK    5  A    between atoms: C_6  and  C_11
REMARK    6  A    between atoms: C_18  and  O_20
REMARK    7  A    between atoms: O_20  and  C_21
REMARK    8  A    between atoms: C_21  and  C_22
REMARK    9  A    between atoms: C_23  and  N_24
REMARK   10  A    between atoms: C_28  and  C_31
REMARK   11  A    between atoms: C_32  and  C_34
REMARK                            x       y       z     vdW  Elec       q    Type
REMARK                         _______ _______ _______ _____ _____    ______ ____
ROOT
ATOM      1  N   UNL     1      -2.586   0.306   1.936  0.00  0.00    -0.258 N 
ATOM      2  C   UNL     1      -2.942   0.166   3.246  0.00  0.00    +0.041 C 
ATOM      3  C   UNL     1      -4.213  -0.128   3.596  0.00  0.00    +0.080 C 
ATOM      4  C   UNL     1      -5.229  -0.295   2.485  0.00  0.00    +0.144 C 
ATOM      5  N   UNL     1      -4.744  -0.122   1.105  0.00  0.00    -0.288 N 
ATOM      6  C   UNL     1      -3.443   0.175   0.915  0.00  0.00    +0.307 C 
ATOM      7  O   UNL     1      -3.033   0.323  -0.220  0.00  0.00    -0.252 OA
ATOM      8  H   UNL     1      -5.347  -0.217   0.351  0.00  0.00    +0.151 HD
ENDROOT
BRANCH   4   9
ATOM      9  C   UNL     1      -6.337   0.700   2.715  0.00  0.00    -0.020 A 
ATOM     10  C   UNL     1      -6.170   2.019   2.336  0.00  0.00    +0.006 A 
ATOM     11  C   UNL     1      -7.186   2.933   2.547  0.00  0.00    +0.003 A 
ATOM     12  C   UNL     1      -8.369   2.529   3.136  0.00  0.00    +0.038 A 
ATOM     13  C   UNL     1      -8.537   1.208   3.516  0.00  0.00    +0.124 A 
ATOM     14  C   UNL     1      -7.521   0.292   3.299  0.00  0.00    +0.044 A 
ATOM     15  F   UNL     1      -9.692   0.812   4.093  0.00  0.00    -0.205 F 
ENDBRANCH   4   9
BRANCH   1  17
ATOM     16  C   UNL     1      -1.009   2.145   1.597  0.00  0.00    +0.025 C 
ATOM     17  C   UNL     1      -1.189   0.626   1.629  0.00  0.00    +0.111 C 
ENDBRANCH   1  17
BRANCH   3  18
ATOM     18  C   UNL     1      -4.582  -0.276   4.953  0.00  0.00    +0.339 C 
ATOM     19  O   UNL     1      -4.671  -1.386   5.443  0.00  0.00    -0.245 OA
BRANCH  18  20
ATOM     20  O   UNL     1      -4.836   0.816   5.706  0.00  0.00    -0.462 OA
BRANCH  20  21
ATOM     21  C   UNL     1      -5.204   0.593   7.068  0.00  0.00    +0.229 C 
ATOM     22  C   UNL     1      -5.451   1.937   7.756  0.00  0.00    +0.048 C 
ENDBRANCH  20  21
ENDBRANCH  18  20
ENDBRANCH   3  18
BRANCH   2  23
ATOM     23  C   UNL     1      -1.899   0.340   4.320  0.00  0.00    +0.136 C 
BRANCH  23  24
ATOM     24  N   UNL     1      -0.914  -0.746   4.228  0.00  0.00    -0.294 NA
ATOM     25  C   UNL     1      -1.530  -2.043   4.537  0.00  0.00    +0.104 C 
ATOM     26  C   UNL     1      -0.524  -3.163   4.255  0.00  0.00    +0.124 C 
ATOM     27  N   UNL     1       0.717  -2.873   4.990  0.00  0.00    -0.292 N 
ATOM     28  C   UNL     1       1.321  -1.541   4.838  0.00  0.00    +0.087 C 
ATOM     29  C   UNL     1       0.241  -0.484   5.097  0.00  0.00    +0.107 C 
ATOM     30  C   UNL     1       2.460  -1.375   5.845  0.00  0.00    +0.029 C 
ATOM     31  C   UNL     1       1.285  -3.803   5.783  0.00  0.00    +0.250 C 
ATOM     32  O   UNL     1       2.262  -3.520   6.449  0.00  0.00    -0.270 OA
BRANCH  31  33
ATOM     33  C   UNL     1       0.720  -5.167   5.843  0.00  0.00    +0.072 A 
ATOM     34  C   UNL     1       0.062  -5.704   4.734  0.00  0.00    +0.016 A 
ATOM     35  C   UNL     1      -0.462  -6.977   4.796  0.00  0.00    +0.001 A 
ATOM     36  C   UNL     1      -0.339  -7.725   5.955  0.00  0.00    +0.003 A 
ATOM     37  C   UNL     1       0.309  -7.202   7.058  0.00  0.00    +0.039 A 
ATOM     38  C   UNL     1       0.846  -5.929   7.009  0.00  0.00    +0.135 A 
ATOM     39  F   UNL     1       1.484  -5.420   8.085  0.00  0.00    -0.205 F 
ENDBRANCH  31  33
ENDBRANCH  23  24
ENDBRANCH   2  23
TORSDOF 8
