REMARK  Name = ZINC34910276
REMARK  9 active torsions:
REMARK  status: ('A' for Active; 'I' for Inactive)
REMARK    1  A    between atoms: C_1  and  C_2
REMARK    2  A    between atoms: C_3  and  C_33
REMARK    3  A    between atoms: C_11  and  C_13
REMARK    4  A    between atoms: C_13  and  S_14
REMARK    5  A    between atoms: S_14  and  C_15
REMARK    6  A    between atoms: N_28  and  C_29
REMARK    7  A    between atoms: C_29  and  C_30
REMARK    8  A    between atoms: C_30  and  O_31
REMARK    9  A    between atoms: O_31  and  C_32
REMARK                            x       y       z     vdW  Elec       q    Type
REMARK                         _______ _______ _______ _____ _____    ______ ____
ROOT
ATOM      1  C   UNL     1       0.134  -6.118   5.400  0.00  0.00    +0.173 A 
ATOM      2  N   UNL     1       0.131  -5.525   6.577  0.00  0.00    -0.216 NA
ATOM      3  C   UNL     1       0.150  -6.238   7.697  0.00  0.00    +0.117 A 
ATOM      4  C   UNL     1       0.174  -7.643   7.688  0.00  0.00    +0.076 A 
ATOM      5  C   UNL     1       0.195  -8.290   9.002  0.00  0.00    -0.023 A 
ATOM      6  C   UNL     1       0.187  -7.483  10.082  0.00  0.00    -0.004 A 
ATOM      7  S   UNL     1       0.154  -5.837   9.426  0.00  0.00    -0.073 S 
ATOM      8  C   UNL     1       0.204  -7.895  11.522  0.00  0.00    +0.043 C 
ATOM      9  C   UNL     1      -0.143  -9.388  11.604  0.00  0.00    +0.005 C 
ATOM     10  C   UNL     1       0.701 -10.146  10.575  0.00  0.00    +0.005 C 
ATOM     11  C   UNL     1       0.224  -9.808   9.162  0.00  0.00    +0.037 C 
ATOM     12  C   UNL     1       0.177  -8.259   6.397  0.00  0.00    +0.263 A 
ATOM     13  O   UNL     1       0.197  -9.473   6.291  0.00  0.00    -0.267 OA
ATOM     14  N   UNL     1       0.151  -7.479   5.300  0.00  0.00    -0.285 N 
ENDROOT
BRANCH   1  15
ATOM     15  S   UNL     1       0.108  -5.139   3.935  0.00  0.00    -0.080 S 
BRANCH  15  16
ATOM     16  C   UNL     1       0.090  -3.432   4.547  0.00  0.00    +0.151 C 
BRANCH  16  27
ATOM     17  C   UNL     1      -0.018   1.503   0.010  0.00  0.00    +0.045 C 
ATOM     18  C   UNL     1       0.002  -0.004   0.002  0.00  0.00    -0.026 A 
ATOM     19  C   UNL     1       0.006  -0.677  -1.160  0.00  0.00    -0.008 A 
ATOM     20  S   UNL     1       0.032  -2.385  -0.648  0.00  0.00    -0.073 S 
ATOM     21  C   UNL     1       0.037  -2.144   1.110  0.00  0.00    +0.116 A 
ATOM     22  C   UNL     1       0.024  -0.745   1.250  0.00  0.00    +0.075 A 
ATOM     23  C   UNL     1       0.029  -0.257   2.597  0.00  0.00    +0.260 A 
ATOM     24  O   UNL     1       0.014   0.942   2.821  0.00  0.00    -0.267 OA
ATOM     25  N   UNL     1       0.051  -1.142   3.611  0.00  0.00    -0.310 N 
ATOM     26  H   UNL     1       0.054  -0.817   4.525  0.00  0.00    +0.170 HD
ATOM     27  C   UNL     1       0.067  -2.480   3.380  0.00  0.00    +0.121 A 
ATOM     28  N   UNL     1       0.053  -2.956   2.163  0.00  0.00    -0.226 NA
ATOM     29  C   UNL     1      -0.009  -0.122  -2.561  0.00  0.00    +0.052 C 
ENDBRANCH  16  27
ENDBRANCH  15  16
ENDBRANCH   1  15
BRANCH  14  30
ATOM     30  C   UNL     1       0.148  -8.102   3.975  0.00  0.00    +0.155 C 
BRANCH  30  31
ATOM     31  C   UNL     1       1.589  -8.300   3.500  0.00  0.00    +0.181 C 
BRANCH  31  32
ATOM     32  O   UNL     1       2.249  -9.235   4.356  0.00  0.00    -0.381 OA
ATOM     33  C   UNL     1       3.608  -9.492   3.999  0.00  0.00    +0.194 C 
ENDBRANCH  31  32
ENDBRANCH  30  31
ENDBRANCH  14  30
TORSDOF 6
