REMARK  Name = ZINC12559152
REMARK  12 active torsions:
REMARK  status: ('A' for Active; 'I' for Inactive)
REMARK    1  A    between atoms: C_1  and  C_2
REMARK    2  A    between atoms: C_2  and  N_72
REMARK    3  A    between atoms: N_5  and  P_8
REMARK    4  A    between atoms: P_8  and  C_17
REMARK    5  A    between atoms: P_8  and  C_30
REMARK    6  A    between atoms: N_9  and  C_10
REMARK    7  A    between atoms: C_18  and  C_29
REMARK    8  A    between atoms: N_20  and  C_23
REMARK    9  A    between atoms: C_21  and  C_22
REMARK   10  A    between atoms: C_30  and  C_31
REMARK   11  A    between atoms: C_30  and  C_32
REMARK   12  A    between atoms: C_30  and  C_33
REMARK                            x       y       z     vdW  Elec       q    Type
REMARK                         _______ _______ _______ _____ _____    ______ ____
ROOT
ATOM      1  P   UNL     1       5.888   4.024  -1.204  0.00  0.00    +0.075 P 
ATOM      2  N   UNL     1       5.309   3.909  -2.640  0.00  0.00    -0.244 NA
ENDROOT
BRANCH   1   5
ATOM      3  C   UNL     1       4.746   6.391   1.768  0.00  0.00    -0.063 C 
ATOM      4  C   UNL     1       5.566   5.340   1.016  0.00  0.00    +0.072 C 
ATOM      5  N   UNL     1       5.072   5.231  -0.363  0.00  0.00    -0.268 NA
ATOM      6  C   UNL     1       5.176   6.521  -1.061  0.00  0.00    +0.072 C 
ATOM      7  C   UNL     1       4.356   7.572  -0.309  0.00  0.00    -0.063 C 
ATOM      8  N   UNL     1       4.878   7.688   1.069  0.00  0.00    +0.381 N 
ATOM      9  H   UNL     1       5.871   7.946   1.030  0.00  0.00    -0.082 HD
BRANCH   8  11
ATOM     10  C   UNL     1       4.472  10.097   1.192  0.00  0.00    -0.017 C 
ATOM     11  C   UNL     1       4.138   8.735   1.804  0.00  0.00    -0.082 C 
ENDBRANCH   8  11
ENDBRANCH   1   5
BRANCH   2  12
ATOM     12  C   UNL     1       4.034   4.193  -2.865  0.00  0.00    +0.082 A 
ATOM     13  C   UNL     1       3.093   4.148  -1.806  0.00  0.00    +0.029 A 
ATOM     14  C   UNL     1       1.785   4.444  -2.053  0.00  0.00    +0.002 A 
ATOM     15  C   UNL     1       1.372   4.788  -3.334  0.00  0.00    +0.002 A 
ATOM     16  C   UNL     1       2.280   4.838  -4.383  0.00  0.00    +0.022 A 
ATOM     17  C   UNL     1       3.598   4.552  -4.168  0.00  0.00    +0.066 A 
ATOM     18 CL   UNL     1       4.732   4.621  -5.480  0.00  0.00    -0.081 Cl
ENDBRANCH   2  12
BRANCH   1  19
ATOM     19  C   UNL     1       5.682   2.441  -0.341  0.00  0.00    +0.030 A 
ATOM     20  C   UNL     1       6.194   2.112   0.931  0.00  0.00    -0.022 A 
ATOM     21  C   UNL     1       5.817   0.847   1.204  0.00  0.00    +0.095 A 
ATOM     22  N   UNL     1       5.090   0.381   0.146  0.00  0.00    -0.319 N 
ATOM     23  C   UNL     1       5.016   1.363  -0.800  0.00  0.00    +0.031 A 
ATOM     24  C   UNL     1       4.309   1.261  -2.127  0.00  0.00    +0.064 C 
ATOM     25  C   UNL     1       7.013   3.010   1.822  0.00  0.00    +0.046 C 
BRANCH  22  26
ATOM     26  C   UNL     1       4.519  -0.896   0.045  0.00  0.00    +0.046 A 
ATOM     27  C   UNL     1       3.184  -1.035  -0.310  0.00  0.00    +0.026 A 
ATOM     28  C   UNL     1       2.624  -2.294  -0.408  0.00  0.00    +0.002 A 
ATOM     29  C   UNL     1       3.393  -3.415  -0.153  0.00  0.00    +0.000 A 
ATOM     30  C   UNL     1       4.722  -3.280   0.200  0.00  0.00    +0.002 A 
ATOM     31  C   UNL     1       5.288  -2.023   0.300  0.00  0.00    +0.026 A 
ENDBRANCH  22  26
ENDBRANCH   1  19
BRANCH   1  32
ATOM     32  C   UNL     1       7.661   4.439  -1.295  0.00  0.00    +0.014 C 
ATOM     33  C   UNL     1       8.331   3.582  -2.370  0.00  0.00    +0.018 C 
ATOM     34  C   UNL     1       7.820   5.919  -1.651  0.00  0.00    +0.018 C 
ATOM     35  C   UNL     1       8.319   4.166   0.059  0.00  0.00    +0.018 C 
ENDBRANCH   1  32
TORSDOF 6
