REMARK  Name = ZINC35666361
REMARK  9 active torsions:
REMARK  status: ('A' for Active; 'I' for Inactive)
REMARK    1  A    between atoms: C_1  and  C_2
REMARK    2  A    between atoms: C_11  and  C_33
REMARK    3  A    between atoms: C_13  and  S_15
REMARK    4  A    between atoms: S_15  and  C_16
REMARK    5  A    between atoms: C_16  and  C_17
REMARK    6  A    between atoms: C_20  and  C_22
REMARK    7  A    between atoms: N_24  and  C_25
REMARK    8  A    between atoms: C_25  and  C_26
REMARK    9  A    between atoms: C_26  and  C_27
REMARK                            x       y       z     vdW  Elec       q    Type
REMARK                         _______ _______ _______ _____ _____    ______ ____
ROOT
ATOM      1  C   UNL     1       2.802   0.135   0.082  0.00  0.00    +0.028 C 
ATOM      2  C   UNL     1       1.496  -0.653  -0.039  0.00  0.00    +0.072 C 
ATOM      3  C   UNL     1       1.808  -2.117  -0.365  0.00  0.00    +0.022 C 
ATOM      4  C   UNL     1       0.510  -2.927  -0.346  0.00  0.00    +0.003 C 
ATOM      5  C   UNL     1      -0.113  -2.865   1.050  0.00  0.00    +0.019 C 
ATOM      6  C   UNL     1      -0.446  -1.409   1.392  0.00  0.00    +0.107 C 
ATOM      7  N   UNL     1       0.766  -0.594   1.235  0.00  0.00    -0.312 N 
ATOM      8  C   UNL     1       1.215   0.212   2.269  0.00  0.00    +0.126 A 
ATOM      9  C   UNL     1       0.769   1.529   2.383  0.00  0.00    +0.072 A 
ATOM     10  C   UNL     1       1.247   2.301   3.438  0.00  0.00    +0.077 A 
ATOM     11  N   UNL     1       2.109   1.759   4.299  0.00  0.00    -0.222 NA
ATOM     12  C   UNL     1       2.510   0.505   4.158  0.00  0.00    +0.191 A 
ATOM     13  N   UNL     1       2.071  -0.261   3.169  0.00  0.00    -0.207 NA
ENDROOT
BRANCH  10  14
ATOM     14  C   UNL     1       0.804   3.707   3.603  0.00  0.00    +0.001 A 
ATOM     15  C   UNL     1      -0.101   4.265   2.702  0.00  0.00    +0.010 A 
ATOM     16  C   UNL     1      -0.511   5.573   2.861  0.00  0.00    +0.001 A 
ATOM     17  C   UNL     1      -0.023   6.331   3.910  0.00  0.00    +0.000 A 
ATOM     18  C   UNL     1       0.876   5.782   4.807  0.00  0.00    +0.001 A 
ATOM     19  C   UNL     1       1.287   4.473   4.662  0.00  0.00    +0.010 A 
ENDBRANCH  10  14
BRANCH  12  20
ATOM     20  S   UNL     1       3.651  -0.167   5.321  0.00  0.00    -0.078 S 
BRANCH  20  21
ATOM     21  C   UNL     1       3.961   1.201   6.472  0.00  0.00    +0.151 C 
BRANCH  21  22
ATOM     22  C   UNL     1       4.934   0.755   7.532  0.00  0.00    +0.116 A 
ATOM     23  C   UNL     1       6.279   0.864   7.461  0.00  0.00    +0.046 A 
ATOM     24  C   UNL     1       6.800   0.332   8.651  0.00  0.00    +0.055 A 
ATOM     25  C   UNL     1       5.733  -0.080   9.397  0.00  0.00    +0.189 A 
ATOM     26  O   UNL     1       4.608   0.190   8.702  0.00  0.00    -0.454 OA
BRANCH  25  27
ATOM     27  C   UNL     1       5.797  -0.703  10.723  0.00  0.00    +0.279 C 
ATOM     28  O   UNL     1       6.875  -0.894  11.254  0.00  0.00    -0.267 OA
ATOM     29  N   UNL     1       4.662  -1.065  11.353  0.00  0.00    -0.308 N 
ATOM     30  H   UNL     1       3.803  -0.913  10.930  0.00  0.00    +0.149 HD
BRANCH  29  31
ATOM     31  C   UNL     1       4.727  -1.687  12.678  0.00  0.00    +0.111 C 
BRANCH  31  32
ATOM     32  C   UNL     1       3.310  -1.997  13.165  0.00  0.00    +0.074 C 
BRANCH  32  33
ATOM     33  C   UNL     1       3.376  -2.638  14.528  0.00  0.00    +0.043 A 
ATOM     34  C   UNL     1       2.664  -2.087  15.577  0.00  0.00    +0.023 A 
ATOM     35  C   UNL     1       2.732  -2.683  16.826  0.00  0.00    +0.003 A 
ATOM     36  C   UNL     1       3.517  -3.817  16.975  0.00  0.00    +0.020 A 
ATOM     37  C   UNL     1       4.200  -4.311  15.880  0.00  0.00    +0.111 A 
ATOM     38  N   UNL     1       4.108  -3.720  14.705  0.00  0.00    -0.260 NA
ENDBRANCH  32  33
ENDBRANCH  31  32
ENDBRANCH  29  31
ENDBRANCH  25  27
ENDBRANCH  21  22
ENDBRANCH  20  21
ENDBRANCH  12  20
TORSDOF 8
