REMARK  Name = ZINC09762208
REMARK  11 active torsions:
REMARK  status: ('A' for Active; 'I' for Inactive)
REMARK    1  A    between atoms: C_1  and  C_2
REMARK    2  A    between atoms: C_6  and  O_8
REMARK    3  A    between atoms: O_8  and  C_9
REMARK    4  A    between atoms: C_9  and  C_11
REMARK    5  A    between atoms: C_9  and  C_14
REMARK    6  A    between atoms: C_14  and  C_15
REMARK    7  A    between atoms: C_14  and  C_21
REMARK    8  A    between atoms: C_14  and  O_31
REMARK    9  A    between atoms: C_24  and  C_27
REMARK   10  A    between atoms: O_31  and  C_32
REMARK   11  A    between atoms: C_32  and  C_33
REMARK                            x       y       z     vdW  Elec       q    Type
REMARK                         _______ _______ _______ _____ _____    ______ ____
ROOT
ATOM      1  C   UNL     1      -0.525  -4.673   3.357  0.00  0.00    +0.167 C 
ENDROOT
BRANCH   1   2
ATOM      2  C   UNL     1       0.521  -3.683   3.801  0.00  0.00    -0.007 A 
ATOM      3  C   UNL     1       1.452  -4.043   4.758  0.00  0.00    +0.007 A 
ATOM      4  C   UNL     1       2.411  -3.135   5.165  0.00  0.00    +0.000 A 
ATOM      5  C   UNL     1       2.441  -1.867   4.614  0.00  0.00    +0.000 A 
ATOM      6  C   UNL     1       1.511  -1.507   3.656  0.00  0.00    +0.000 A 
ATOM      7  C   UNL     1       0.554  -2.417   3.246  0.00  0.00    +0.007 A 
ENDBRANCH   1   2
BRANCH   1   8
ATOM      8  C   UNL     1      -1.883  -4.020   3.397  0.00  0.00    -0.007 A 
ATOM      9  C   UNL     1      -2.357  -3.482   4.578  0.00  0.00    +0.007 A 
ATOM     10  C   UNL     1      -3.602  -2.884   4.614  0.00  0.00    +0.013 A 
ATOM     11  C   UNL     1      -4.373  -2.822   3.469  0.00  0.00    +0.055 A 
ATOM     12  C   UNL     1      -3.898  -3.359   2.287  0.00  0.00    +0.013 A 
ATOM     13  C   UNL     1      -2.651  -3.954   2.249  0.00  0.00    +0.007 A 
BRANCH  11  14
ATOM     14  C   UNL     1      -5.731  -2.171   3.508  0.00  0.00    +0.417 C 
ATOM     15  F   UNL     1      -5.604  -0.809   3.214  0.00  0.00    -0.166 F 
ATOM     16  F   UNL     1      -6.567  -2.776   2.563  0.00  0.00    -0.166 F 
ATOM     17  F   UNL     1      -6.285  -2.322   4.784  0.00  0.00    -0.166 F 
ENDBRANCH  11  14
ENDBRANCH   1   8
BRANCH   1  18
ATOM     18  C   UNL     1      -0.220  -5.131   1.930  0.00  0.00    +0.329 C 
BRANCH  18  19
ATOM     19  C   UNL     1       1.109  -5.840   1.902  0.00  0.00    +0.399 C 
ATOM     20  O   UNL     1       2.042  -5.362   1.279  0.00  0.00    -0.242 OA
ATOM     21  O   UNL     1       1.252  -6.891   2.503  0.00  0.00    -0.242 OA
ENDBRANCH  18  19
BRANCH  18  22
ATOM     22  O   UNL     1      -0.172  -3.995   1.064  0.00  0.00    -0.444 OA
BRANCH  22  28
ATOM     23  C   UNL     1      -0.819  -2.150  -3.281  0.00  0.00    +0.066 C 
ATOM     24  C   UNL     1      -0.854  -3.320  -2.332  0.00  0.00    +0.045 A 
ATOM     25  C   UNL     1      -1.251  -4.572  -2.776  0.00  0.00    +0.043 A 
ATOM     26  C   UNL     1      -1.268  -5.620  -1.871  0.00  0.00    +0.118 A 
ATOM     27  N   UNL     1      -0.908  -5.396  -0.617  0.00  0.00    -0.203 NA
ATOM     28  C   UNL     1      -0.534  -4.189  -0.226  0.00  0.00    +0.319 A 
ATOM     29  N   UNL     1      -0.501  -3.167  -1.067  0.00  0.00    -0.200 NA
ENDBRANCH  22  28
ENDBRANCH  18  22
ENDBRANCH   1  18
BRANCH   1  30
ATOM     30  O   UNL     1      -0.513  -5.802   4.233  0.00  0.00    -0.355 OA
BRANCH  30  31
ATOM     31  C   UNL     1      -1.532  -6.764   3.953  0.00  0.00    +0.197 C 
BRANCH  31  32
ATOM     32  C   UNL     1      -1.382  -7.939   4.885  0.00  0.00    -0.022 A 
ATOM     33  C   UNL     1      -0.587  -9.011   4.523  0.00  0.00    +0.006 A 
ATOM     34  C   UNL     1      -0.450 -10.089   5.377  0.00  0.00    +0.000 A 
ATOM     35  C   UNL     1      -1.107 -10.095   6.593  0.00  0.00    +0.000 A 
ATOM     36  C   UNL     1      -1.901  -9.024   6.955  0.00  0.00    +0.000 A 
ATOM     37  C   UNL     1      -2.035  -7.944   6.103  0.00  0.00    +0.006 A 
ENDBRANCH  31  32
ENDBRANCH  30  31
ENDBRANCH   1  30
TORSDOF 10
