REMARK  Name = ZINC28158042
REMARK  5 active torsions:
REMARK  status: ('A' for Active; 'I' for Inactive)
REMARK    1  A    between atoms: C_3  and  C_6
REMARK    2  A    between atoms: C_9  and  C_31
REMARK    3  A    between atoms: C_16  and  C_19
REMARK    4  A    between atoms: C_19  and  C_20
REMARK    5  A    between atoms: N_22  and  C_23
REMARK                            x       y       z     vdW  Elec       q    Type
REMARK                         _______ _______ _______ _____ _____    ______ ____
ROOT
ATOM      1  C   UNL     1      -0.653  -2.347  -0.015  0.00  0.00    +0.142 C 
ATOM      2  C   UNL     1      -1.239  -0.922  -0.010  0.00  0.00    +0.087 C 
ATOM      3  C   UNL     1      -0.021  -0.026  -0.022  0.00  0.00    +0.069 C 
ATOM      4  N   UNL     1       1.045  -0.750  -0.038  0.00  0.00    -0.182 NA
ATOM      5  N   UNL     1       0.802  -2.122  -0.030  0.00  0.00    -0.195 N 
ATOM      6  C   UNL     1       1.756  -3.098  -0.039  0.00  0.00    +0.170 C 
ATOM      7  N   UNL     1       1.584  -4.413  -0.031  0.00  0.00    -0.157 NA
ATOM      8  C   UNL     1       2.556  -5.283  -0.044  0.00  0.00    +0.252 C 
ATOM      9  O   UNL     1       2.356  -6.482  -0.042  0.00  0.00    -0.272 OA
ATOM     10  C   UNL     1       3.960  -4.692  -0.059  0.00  0.00    +0.150 C 
ATOM     11  S   UNL     1       3.533  -2.904  -0.056  0.00  0.00    -0.078 S 
ENDROOT
BRANCH   3  12
ATOM     12  C   UNL     1      -0.049   1.448  -0.022  0.00  0.00    -0.002 A 
ATOM     13  C   UNL     1      -1.270   2.126  -0.016  0.00  0.00    +0.012 A 
ATOM     14  C   UNL     1      -1.289   3.505  -0.011  0.00  0.00    +0.039 A 
ATOM     15  C   UNL     1      -0.100   4.218  -0.022  0.00  0.00    +0.123 A 
ATOM     16  C   UNL     1       1.114   3.550  -0.034  0.00  0.00    +0.039 A 
ATOM     17  C   UNL     1       1.147   2.171  -0.034  0.00  0.00    +0.012 A 
ATOM     18  F   UNL     1      -0.125   5.568  -0.023  0.00  0.00    -0.205 F 
ENDBRANCH   3  12
BRANCH   1  21
ATOM     19  C   UNL     1      -2.245  -4.571   2.636  0.00  0.00    +0.008 A 
ATOM     20  C   UNL     1      -2.051  -4.006   1.390  0.00  0.00    +0.013 A 
ATOM     21  C   UNL     1      -1.061  -3.094   1.228  0.00  0.00    +0.012 A 
ATOM     22  S   UNL     1      -0.373  -3.000   2.873  0.00  0.00    -0.100 S 
ATOM     23  C   UNL     1      -1.446  -4.189   3.663  0.00  0.00    +0.045 A 
ENDBRANCH   1  21
BRANCH  10  24
ATOM     24  C   UNL     1       4.720  -5.083  -1.328  0.00  0.00    +0.120 C 
BRANCH  24  25
ATOM     25  C   UNL     1       6.066  -4.407  -1.336  0.00  0.00    +0.219 C 
ATOM     26  O   UNL     1       6.387  -3.683  -0.417  0.00  0.00    -0.275 OA
ATOM     27  N   UNL     1       6.914  -4.606  -2.365  0.00  0.00    -0.285 N 
ATOM     28  H   UNL     1       6.655  -5.321  -3.160  0.00  0.00    +0.155 HD
BRANCH  27  29
ATOM     29  C   UNL     1       8.124  -3.903  -2.421  0.00  0.00    +0.036 A 
ATOM     30  C   UNL     1       8.641  -3.506  -3.647  0.00  0.00    +0.026 A 
ATOM     31  C   UNL     1       9.832  -2.809  -3.701  0.00  0.00    +0.043 A 
ATOM     32  C   UNL     1      10.517  -2.514  -2.535  0.00  0.00    +0.159 A 
ATOM     33  C   UNL     1      10.006  -2.914  -1.309  0.00  0.00    +0.160 A 
ATOM     34  C   UNL     1       8.811  -3.608  -1.251  0.00  0.00    +0.064 A 
ATOM     35  F   UNL     1      10.676  -2.626  -0.172  0.00  0.00    -0.202 F 
ATOM     36  F   UNL     1      11.684  -1.836  -2.591  0.00  0.00    -0.202 F 
ENDBRANCH  27  29
ENDBRANCH  24  25
ENDBRANCH  10  24
TORSDOF 5
