REMARK  Name = ZINC40392133
REMARK  11 active torsions:
REMARK  status: ('A' for Active; 'I' for Inactive)
REMARK    1  A    between atoms: C_1  and  C_2
REMARK    2  A    between atoms: C_2  and  O_3
REMARK    3  A    between atoms: O_3  and  C_4
REMARK    4  A    between atoms: C_4  and  C_6
REMARK    5  A    between atoms: C_7  and  C_23
REMARK    6  A    between atoms: N_8  and  C_22
REMARK    7  A    between atoms: C_12  and  C_14
REMARK    8  A    between atoms: C_16  and  C_21
REMARK    9  A    between atoms: C_19  and  C_20
REMARK   10  A    between atoms: C_23  and  N_24
REMARK   11  A    between atoms: C_30  and  C_32
REMARK                            x       y       z     vdW  Elec       q    Type
REMARK                         _______ _______ _______ _____ _____    ______ ____
ROOT
ATOM      1  C   UNL     1      -2.713  -3.996  -0.207  0.00  0.00    +0.080 C 
ATOM      2  C   UNL     1      -2.792  -5.268   0.239  0.00  0.00    +0.041 C 
ATOM      3  N   UNL     1      -3.950  -5.759   0.770  0.00  0.00    -0.260 N 
ATOM      4  C   UNL     1      -5.074  -5.041   0.891  0.00  0.00    +0.307 C 
ATOM      5  O   UNL     1      -6.057  -5.565   1.378  0.00  0.00    -0.252 OA
ATOM      6  N   UNL     1      -5.151  -3.756   0.491  0.00  0.00    -0.288 N 
ATOM      7  C   UNL     1      -3.951  -3.130  -0.091  0.00  0.00    +0.144 C 
ATOM      8  C   UNL     1      -3.964  -7.148   1.234  0.00  0.00    +0.139 C 
ATOM      9  H   UNL     1      -5.975  -3.255   0.588  0.00  0.00    +0.151 HD
ENDROOT
BRANCH   7  10
ATOM     10  C   UNL     1      -4.310  -2.646  -1.472  0.00  0.00    -0.019 A 
ATOM     11  C   UNL     1      -5.287  -3.299  -2.202  0.00  0.00    +0.009 A 
ATOM     12  C   UNL     1      -5.616  -2.854  -3.468  0.00  0.00    -0.050 A 
ATOM     13  C   UNL     1      -4.969  -1.757  -4.006  0.00  0.00    +0.003 A 
ATOM     14  C   UNL     1      -3.993  -1.104  -3.276  0.00  0.00    +0.004 A 
ATOM     15  C   UNL     1      -3.667  -1.546  -2.007  0.00  0.00    -0.045 A 
ATOM     16  C   UNL     1      -2.607  -0.831  -1.210  0.00  0.00    +0.044 C 
ATOM     17  C   UNL     1      -6.679  -3.566  -4.264  0.00  0.00    +0.044 C 
ENDBRANCH   7  10
BRANCH   1  18
ATOM     18  C   UNL     1      -1.514  -3.486  -0.757  0.00  0.00    +0.339 C 
ATOM     19  O   UNL     1      -0.785  -2.784  -0.082  0.00  0.00    -0.245 OA
BRANCH  18  20
ATOM     20  O   UNL     1      -1.178  -3.780  -2.031  0.00  0.00    -0.462 OA
BRANCH  20  22
ATOM     21  C   UNL     1       0.335  -3.807  -3.915  0.00  0.00    +0.048 C 
ATOM     22  C   UNL     1       0.073  -3.277  -2.504  0.00  0.00    +0.229 C 
ENDBRANCH  20  22
ENDBRANCH  18  20
ENDBRANCH   1  18
BRANCH   2  23
ATOM     23  C   UNL     1      -1.581  -6.162   0.147  0.00  0.00    +0.136 C 
BRANCH  23  24
ATOM     24  N   UNL     1      -1.195  -6.603   1.494  0.00  0.00    -0.294 NA
ATOM     25  C   UNL     1      -0.740  -5.468   2.309  0.00  0.00    +0.104 C 
ATOM     26  C   UNL     1      -0.521  -5.936   3.752  0.00  0.00    +0.123 C 
ATOM     27  N   UNL     1       0.387  -7.093   3.735  0.00  0.00    -0.295 N 
ATOM     28  C   UNL     1       0.069  -8.214   2.837  0.00  0.00    +0.123 C 
ATOM     29  C   UNL     1      -0.174  -7.657   1.431  0.00  0.00    +0.104 C 
ATOM     30  C   UNL     1       1.480  -7.126   4.522  0.00  0.00    +0.253 C 
ATOM     31  O   UNL     1       1.649  -6.265   5.366  0.00  0.00    -0.269 OA
BRANCH  30  32
ATOM     32  C   UNL     1       2.467  -8.198   4.362  0.00  0.00    +0.074 A 
ATOM     33  C   UNL     1       3.448  -8.623   5.244  0.00  0.00    +0.021 A 
ATOM     34  C   UNL     1       4.232  -9.664   4.810  0.00  0.00    +0.008 A 
ATOM     35  C   UNL     1       4.004 -10.194   3.583  0.00  0.00    +0.046 A 
ATOM     36  S   UNL     1       2.713  -9.302   2.983  0.00  0.00    -0.092 S 
ENDBRANCH  30  32
ENDBRANCH  23  24
ENDBRANCH   2  23
TORSDOF 7
