REMARK  Name = ZINC14478267
REMARK  5 active torsions:
REMARK  status: ('A' for Active; 'I' for Inactive)
REMARK    1  A    between atoms: C_2  and  C_3
REMARK    2  A    between atoms: C_3  and  O_4
REMARK    3  A    between atoms: O_4  and  C_5
REMARK    4  A    between atoms: C_12  and  C_21
REMARK    5  A    between atoms: C_26  and  N_27
REMARK                            x       y       z     vdW  Elec       q    Type
REMARK                         _______ _______ _______ _____ _____    ______ ____
ROOT
ATOM      1  C   UNL     1      -0.077   1.481   7.817  0.00  0.00    +0.142 A 
ATOM      2  C   UNL     1       1.057   1.306   8.589  0.00  0.00    +0.047 A 
ATOM      3  C   UNL     1       1.563   2.368   9.315  0.00  0.00    +0.004 A 
ATOM      4  C   UNL     1       0.932   3.594   9.276  0.00  0.00    +0.006 A 
ATOM      5  C   UNL     1      -0.211   3.781   8.507  0.00  0.00    -0.016 A 
ATOM      6  C   UNL     1      -0.718   2.723   7.777  0.00  0.00    +0.074 A 
ATOM      7  N   UNL     1      -1.865   2.844   6.988  0.00  0.00    -0.334 N 
ATOM      8  C   UNL     1      -2.086   4.220   6.542  0.00  0.00    +0.107 C 
ATOM      9  C   UNL     1      -2.194   5.139   7.760  0.00  0.00    +0.029 C 
ATOM     10  C   UNL     1      -0.843   5.142   8.507  0.00  0.00    +0.049 C 
ATOM     11  C   UNL     1       0.005   6.124   7.732  0.00  0.00    -0.023 C 
ATOM     12  C   UNL     1      -0.752   6.931   7.033  0.00  0.00    -0.030 C 
ATOM     13  C   UNL     1      -2.217   6.607   7.248  0.00  0.00    +0.033 C 
ATOM     14  H   UNL     1      -1.833   2.210   6.204  0.00  0.00    +0.147 HD
ENDROOT
BRANCH   8  15
ATOM     15  C   UNL     1      -0.930   4.660   5.680  0.00  0.00    +0.003 A 
ATOM     16  C   UNL     1       0.340   4.173   5.926  0.00  0.00    +0.008 A 
ATOM     17  C   UNL     1       1.400   4.577   5.136  0.00  0.00    +0.000 A 
ATOM     18  C   UNL     1       1.189   5.468   4.100  0.00  0.00    +0.002 A 
ATOM     19  C   UNL     1      -0.081   5.955   3.854  0.00  0.00    +0.033 A 
ATOM     20  C   UNL     1      -1.141   5.548   4.642  0.00  0.00    +0.131 A 
BRANCH  20  21
ATOM     21  N   UNL     1      -2.502   6.066   4.376  0.00  0.00    +0.057 N 
ATOM     22  O   UNL     1      -2.672   7.253   4.165  0.00  0.00    -0.126 OA
ATOM     23  O   UNL     1      -3.453   5.304   4.368  0.00  0.00    -0.126 OA
ENDBRANCH  20  21
ENDBRANCH   8  15
BRANCH   1  24
ATOM     24  O   UNL     1      -0.575   0.438   7.099  0.00  0.00    -0.486 OA
BRANCH  24  25
ATOM     25  C   UNL     1       0.128  -0.803   7.185  0.00  0.00    +0.256 C 
BRANCH  25  27
ATOM     26  C   UNL     1       0.138  -2.611   5.544  0.00  0.00    +0.007 C 
ATOM     27  C   UNL     1      -0.564  -1.832   6.329  0.00  0.00    +0.006 C 
ENDBRANCH  25  27
ENDBRANCH  24  25
ENDBRANCH   1  24
TORSDOF 5
