REMARK  Name = ZINC36578433
REMARK  15 active torsions:
REMARK  status: ('A' for Active; 'I' for Inactive)
REMARK    1  A    between atoms: C_1  and  C_2
REMARK    2  A    between atoms: C_2  and  C_3
REMARK    3  A    between atoms: C_3  and  N_4
REMARK    4  A    between atoms: N_4  and  C_5
REMARK    5  A    between atoms: C_5  and  C_7
REMARK    6  A    between atoms: C_5  and  C_16
REMARK    7  A    between atoms: C_10  and  N_13
REMARK    8  A    between atoms: N_13  and  C_14
REMARK    9  A    between atoms: N_13  and  C_15
REMARK   10  A    between atoms: N_18  and  C_19
REMARK   11  A    between atoms: C_19  and  S_20
REMARK   12  A    between atoms: S_20  and  C_23
REMARK   13  A    between atoms: C_26  and  C_29
REMARK   14  A    between atoms: C_30  and  C_32
REMARK   15  A    between atoms: C_32  and  C_33
REMARK                            x       y       z     vdW  Elec       q    Type
REMARK                         _______ _______ _______ _____ _____    ______ ____
ROOT
ATOM      1  C   UNL     1      -1.291  -2.821   1.087  0.00  0.00    +0.192 C 
ENDROOT
BRANCH   1   2
ATOM      2  C   UNL     1      -0.283  -3.603   1.891  0.00  0.00    -0.018 A 
ATOM      3  C   UNL     1       0.516  -2.954   2.813  0.00  0.00    +0.008 A 
ATOM      4  C   UNL     1       1.441  -3.667   3.551  0.00  0.00    +0.023 A 
ATOM      5  C   UNL     1       1.566  -5.038   3.365  0.00  0.00    +0.029 A 
ATOM      6  C   UNL     1       0.761  -5.686   2.438  0.00  0.00    +0.023 A 
ATOM      7  C   UNL     1      -0.165  -4.968   1.707  0.00  0.00    +0.008 A 
BRANCH   5   8
ATOM      8  N   UNL     1       2.500  -5.762   4.110  0.00  0.00    -0.336 N 
ATOM      9  C   UNL     1       3.349  -5.076   5.087  0.00  0.00    +0.129 C 
ATOM     10  C   UNL     1       2.631  -7.208   3.913  0.00  0.00    +0.129 C 
ENDBRANCH   5   8
ENDBRANCH   1   2
BRANCH   1  11
ATOM     11  C   UNL     1      -2.550  -2.644   1.896  0.00  0.00    +0.239 C 
ATOM     12  O   UNL     1      -3.462  -1.975   1.460  0.00  0.00    -0.273 OA
ATOM     13  N   UNL     1      -2.662  -3.228   3.106  0.00  0.00    -0.294 N 
ATOM     14  H   UNL     1      -1.932  -3.764   3.455  0.00  0.00    +0.150 HD
BRANCH  13  15
ATOM     15  C   UNL     1      -3.886  -3.056   3.892  0.00  0.00    +0.278 C 
BRANCH  15  16
ATOM     16  S   UNL     1      -4.999  -4.457   3.592  0.00  0.00    +0.013 S 
ATOM     17  O   UNL     1      -6.165  -4.336   4.396  0.00  0.00    -0.168 OA
ATOM     18  O   UNL     1      -5.104  -4.709   2.198  0.00  0.00    -0.168 OA
BRANCH  16  19
ATOM     19  C   UNL     1      -4.149  -5.858   4.239  0.00  0.00    +0.090 A 
ATOM     20  C   UNL     1      -3.297  -6.585   3.429  0.00  0.00    +0.027 A 
ATOM     21  C   UNL     1      -2.630  -7.684   3.937  0.00  0.00    +0.005 A 
ATOM     22  C   UNL     1      -2.814  -8.056   5.255  0.00  0.00    -0.050 A 
ATOM     23  C   UNL     1      -3.666  -7.329   6.066  0.00  0.00    +0.005 A 
ATOM     24  C   UNL     1      -4.330  -6.227   5.559  0.00  0.00    +0.027 A 
ATOM     25  C   UNL     1      -2.088  -9.255   5.809  0.00  0.00    +0.044 C 
ENDBRANCH  16  19
ENDBRANCH  15  16
ENDBRANCH  13  15
ENDBRANCH   1  11
BRANCH   1  26
ATOM     26  N   UNL     1      -0.736  -1.507   0.754  0.00  0.00    -0.286 N 
ATOM     27  C   UNL     1       0.400  -1.418   0.034  0.00  0.00    +0.221 C 
ATOM     28  O   UNL     1       0.963  -2.426  -0.338  0.00  0.00    -0.275 OA
BRANCH  26  29
ATOM     29  C   UNL     1      -1.415  -0.289   1.203  0.00  0.00    +0.108 C 
BRANCH  29  31
ATOM     30  C   UNL     1      -1.950   1.132   3.187  0.00  0.00    +0.005 C 
ATOM     31  C   UNL     1      -1.169  -0.090   2.700  0.00  0.00    +0.016 C 
ENDBRANCH  29  31
ENDBRANCH  26  29
BRANCH  27  32
ATOM     32  C   UNL     1       0.971  -0.066  -0.309  0.00  0.00    +0.131 C 
BRANCH  32  33
ATOM     33  C   UNL     1       2.234  -0.243  -1.113  0.00  0.00    -0.039 A 
ATOM     34  C   UNL     1       3.454  -0.345  -0.471  0.00  0.00    +0.004 A 
ATOM     35  C   UNL     1       4.611  -0.507  -1.208  0.00  0.00    +0.000 A 
ATOM     36  C   UNL     1       4.549  -0.569  -2.588  0.00  0.00    +0.000 A 
ATOM     37  C   UNL     1       3.329  -0.468  -3.230  0.00  0.00    +0.000 A 
ATOM     38  C   UNL     1       2.171  -0.310  -2.492  0.00  0.00    +0.004 A 
ENDBRANCH  32  33
ENDBRANCH  27  32
ENDBRANCH   1  26
TORSDOF 11
