REMARK  Name = ZINC20612962
REMARK  8 active torsions:
REMARK  status: ('A' for Active; 'I' for Inactive)
REMARK    1  A    between atoms: C_1  and  C_2
REMARK    2  A    between atoms: C_2  and  C_3
REMARK    3  A    between atoms: C_2  and  S_4
REMARK    4  A    between atoms: S_4  and  C_5
REMARK    5  A    between atoms: C_10  and  C_11
REMARK    6  A    between atoms: N_13  and  C_14
REMARK    7  A    between atoms: C_17  and  S_20
REMARK    8  A    between atoms: S_20  and  N_23
REMARK                            x       y       z     vdW  Elec       q    Type
REMARK                         _______ _______ _______ _____ _____    ______ ____
ROOT
ATOM      1  C   UNL     1       4.016  -3.557  -2.800  0.00  0.00    +0.034 A 
ATOM      2  C   UNL     1       4.691  -2.362  -2.586  0.00  0.00    +0.025 A 
ATOM      3  C   UNL     1       4.626  -1.744  -1.353  0.00  0.00    +0.030 A 
ATOM      4  C   UNL     1       3.889  -2.313  -0.331  0.00  0.00    +0.109 A 
ATOM      5  C   UNL     1       3.219  -3.506  -0.538  0.00  0.00    +0.030 A 
ATOM      6  C   UNL     1       3.276  -4.126  -1.771  0.00  0.00    +0.025 A 
ENDROOT
BRANCH   1   9
ATOM      7  C   UNL     1       3.012  -4.860  -4.518  0.00  0.00    +0.249 C 
ATOM      8  O   UNL     1       1.964  -4.845  -3.901  0.00  0.00    -0.270 OA
ATOM      9  N   UNL     1       4.080  -4.185  -4.047  0.00  0.00    -0.281 N 
ATOM     10  H   UNL     1       5.001  -4.128  -4.645  0.00  0.00    +0.155 HD
BRANCH   7  16
ATOM     11  C   UNL     1       2.006  -6.321  -6.272  0.00  0.00    +0.020 A 
ATOM     12  C   UNL     1       2.116  -7.030  -7.463  0.00  0.00    +0.015 A 
ATOM     13  C   UNL     1       3.311  -7.040  -8.153  0.00  0.00    +0.001 A 
ATOM     14  C   UNL     1       4.407  -6.344  -7.668  0.00  0.00    +0.001 A 
ATOM     15  C   UNL     1       4.316  -5.631  -6.493  0.00  0.00    +0.014 A 
ATOM     16  C   UNL     1       3.115  -5.616  -5.778  0.00  0.00    +0.050 A 
BRANCH  11  17
ATOM     17  S   UNL     1       0.482  -6.306  -5.388  0.00  0.00    -0.122 S 
BRANCH  17  19
ATOM     18  C   UNL     1      -0.272  -8.762  -6.328  0.00  0.00    +0.019 C 
ATOM     19  C   UNL     1      -0.639  -7.280  -6.430  0.00  0.00    +0.045 C 
ATOM     20  C   UNL     1      -2.080  -7.079  -5.957  0.00  0.00    +0.019 C 
ENDBRANCH  17  19
ENDBRANCH  11  17
ENDBRANCH   7  16
ENDBRANCH   1   9
BRANCH   4  21
ATOM     21  S   UNL     1       3.808  -1.522   1.241  0.00  0.00    +0.075 S 
ATOM     22  O   UNL     1       4.967  -0.706   1.345  0.00  0.00    -0.150 OA
ATOM     23  O   UNL     1       3.500  -2.534   2.190  0.00  0.00    -0.150 OA
BRANCH  21  24
ATOM     24  N   UNL     1       2.508  -0.495   1.206  0.00  0.00    -0.203 N 
ATOM     25  C   UNL     1       2.687   0.924   0.869  0.00  0.00    +0.132 C 
ATOM     26  C   UNL     1       1.867   1.749   1.869  0.00  0.00    +0.025 C 
ATOM     27  C   UNL     1       0.387   1.408   1.695  0.00  0.00    +0.038 C 
ATOM     28  C   UNL     1       0.181  -0.083   1.739  0.00  0.00    -0.025 A 
ATOM     29  C   UNL     1       1.223  -0.966   1.496  0.00  0.00    +0.054 A 
ATOM     30  C   UNL     1       0.997  -2.337   1.540  0.00  0.00    +0.025 A 
ATOM     31  C   UNL     1      -0.263  -2.821   1.827  0.00  0.00    +0.002 A 
ATOM     32  C   UNL     1      -1.301  -1.940   2.072  0.00  0.00    +0.000 A 
ATOM     33  C   UNL     1      -1.079  -0.577   2.028  0.00  0.00    +0.005 A 
ENDBRANCH  21  24
ENDBRANCH   4  21
TORSDOF 6
