REMARK  Name = ZINC39668788
REMARK  7 active torsions:
REMARK  status: ('A' for Active; 'I' for Inactive)
REMARK    1  A    between atoms: C_1  and  C_2
REMARK    2  A    between atoms: C_2  and  C_4
REMARK    3  A    between atoms: C_2  and  O_31
REMARK    4  A    between atoms: C_4  and  N_5
REMARK    5  A    between atoms: C_6  and  C_8
REMARK    6  A    between atoms: C_19  and  C_21
REMARK    7  A    between atoms: O_31  and  C_32
REMARK                            x       y       z     vdW  Elec       q    Type
REMARK                         _______ _______ _______ _____ _____    ______ ____
ROOT
ATOM      1  C   UNL     1       1.534  -4.872   2.909  0.00  0.00    +0.100 C 
ATOM      2  C   UNL     1       0.150  -5.556   2.828  0.00  0.00    +0.121 C 
ATOM      3  N   UNL     1       0.258  -6.726   3.730  0.00  0.00    -0.295 N 
ATOM      4  C   UNL     1       1.041  -6.229   4.887  0.00  0.00    +0.115 C 
ATOM      5  C   UNL     1       2.115  -5.316   4.262  0.00  0.00    -0.004 C 
ATOM      6  C   UNL     1       3.411  -6.092   4.051  0.00  0.00    -0.010 C 
ATOM      7  C   UNL     1       3.999  -6.474   5.412  0.00  0.00    -0.082 C 
ATOM      8  N   UNL     1       4.255  -5.259   6.195  0.00  0.00    +0.379 N 
ATOM      9  C   UNL     1       2.991  -4.566   6.472  0.00  0.00    -0.082 C 
ATOM     10  C   UNL     1       2.360  -4.104   5.156  0.00  0.00    -0.010 C 
ATOM     11  C   UNL     1      -0.244  -7.963   3.542  0.00  0.00    +0.265 C 
ATOM     12  O   UNL     1      -0.132  -8.803   4.413  0.00  0.00    -0.268 OA
ATOM     13  H   UNL     1       4.699  -5.509   7.066  0.00  0.00    -0.086 HD
ATOM     14  H   UNL     1       4.865  -4.647   5.673  0.00  0.00    -0.086 HD
ENDROOT
BRANCH  11  15
ATOM     15  C   UNL     1      -0.932  -8.299   2.272  0.00  0.00    +0.126 A 
ATOM     16  C   UNL     1      -1.343  -9.620   2.045  0.00  0.00    +0.033 A 
ATOM     17  C   UNL     1      -1.978  -9.943   0.880  0.00  0.00    +0.012 A 
ATOM     18  C   UNL     1      -2.199  -8.921  -0.062  0.00  0.00    +0.000 A 
ATOM     19  C   UNL     1      -2.847  -9.181  -1.281  0.00  0.00    +0.010 A 
ATOM     20  C   UNL     1      -3.044  -8.168  -2.169  0.00  0.00    +0.001 A 
ATOM     21  C   UNL     1      -2.611  -6.873  -1.885  0.00  0.00    +0.002 A 
ATOM     22  C   UNL     1      -1.981  -6.583  -0.716  0.00  0.00    +0.028 A 
ATOM     23  C   UNL     1      -1.758  -7.604   0.229  0.00  0.00    +0.072 A 
ATOM     24  N   UNL     1      -1.148  -7.347   1.386  0.00  0.00    -0.242 NA
ENDBRANCH  11  15
BRANCH   1  26
ATOM     25  N   UNL     1       2.353  -2.610   2.332  0.00  0.00    -0.312 N 
ATOM     26  C   UNL     1       1.381  -3.373   2.871  0.00  0.00    +0.218 C 
ATOM     27  O   UNL     1       0.383  -2.853   3.324  0.00  0.00    -0.275 OA
ATOM     28  H   UNL     1       3.151  -3.026   1.969  0.00  0.00    +0.149 HD
BRANCH  25  29
ATOM     29  C   UNL     1       2.204  -1.153   2.294  0.00  0.00    +0.148 C 
BRANCH  29  31
ATOM     30  C   UNL     1       3.341   0.994   1.709  0.00  0.00    +0.053 C 
ATOM     31  C   UNL     1       3.438  -0.531   1.637  0.00  0.00    +0.187 C 
BRANCH  31  32
ATOM     32  O   UNL     1       3.506  -0.940   0.269  0.00  0.00    -0.486 OA
BRANCH  32  33
ATOM     33  C   UNL     1       4.731  -0.927  -0.319  0.00  0.00    +0.139 A 
ATOM     34  C   UNL     1       5.868  -0.629   0.426  0.00  0.00    +0.049 A 
ATOM     35  C   UNL     1       7.095  -0.628  -0.217  0.00  0.00    +0.023 A 
ATOM     36  C   UNL     1       7.150  -0.922  -1.567  0.00  0.00    +0.111 A 
ATOM     37  N   UNL     1       6.053  -1.201  -2.244  0.00  0.00    -0.260 NA
ATOM     38  C   UNL     1       4.867  -1.218  -1.668  0.00  0.00    +0.156 A 
ENDBRANCH  32  33
ENDBRANCH  31  32
ENDBRANCH  29  31
ENDBRANCH  25  29
ENDBRANCH   1  26
TORSDOF 6
