REMARK  Name = ZINC39999280
REMARK  10 active torsions:
REMARK  status: ('A' for Active; 'I' for Inactive)
REMARK    1  A    between atoms: C_1  and  C_2
REMARK    2  A    between atoms: C_7  and  O_27
REMARK    3  A    between atoms: C_8  and  C_13
REMARK    4  A    between atoms: N_17  and  C_21
REMARK    5  A    between atoms: C_21  and  C_22
REMARK    6  A    between atoms: C_22  and  C_23
REMARK    7  A    between atoms: C_23  and  C_24
REMARK    8  A    between atoms: O_27  and  C_28
REMARK    9  A    between atoms: C_30  and  C_35
REMARK   10  A    between atoms: C_32  and  C_34
REMARK                            x       y       z     vdW  Elec       q    Type
REMARK                         _______ _______ _______ _____ _____    ______ ____
ROOT
ATOM      1  C   UNL     1      -0.221   2.066   1.250  0.00  0.00    +0.045 C 
ATOM      2  C   UNL     1      -0.227   0.584   0.975  0.00  0.00    -0.034 A 
ATOM      3  C   UNL     1      -0.336   0.117  -0.342  0.00  0.00    +0.008 A 
ATOM      4  C   UNL     1      -0.341  -1.225  -0.582  0.00  0.00    +0.047 A 
ATOM      5  C   UNL     1      -0.235  -2.122   0.495  0.00  0.00    +0.144 A 
ATOM      6  N   UNL     1      -0.241  -3.433   0.252  0.00  0.00    -0.194 NA
ATOM      7  C   UNL     1      -0.145  -4.322   1.227  0.00  0.00    +0.235 A 
ATOM      8  C   UNL     1      -0.034  -3.881   2.564  0.00  0.00    +0.103 A 
ATOM      9  C   UNL     1      -0.029  -2.487   2.814  0.00  0.00    +0.269 A 
ATOM     10  O   UNL     1       0.065  -2.061   3.953  0.00  0.00    -0.266 OA
ATOM     11  N   UNL     1      -0.130  -1.637   1.769  0.00  0.00    -0.267 N 
ATOM     12  C   UNL     1      -0.122  -0.293   1.998  0.00  0.00    +0.099 A 
ENDROOT
BRANCH   8  13
ATOM     13  C   UNL     1       0.070  -4.808   3.628  0.00  0.00    +0.039 C 
ATOM     14  C   UNL     1       1.072  -5.734   3.630  0.00  0.00    +0.077 C 
ATOM     15  C   UNL     1       1.298  -6.823   4.522  0.00  0.00    +0.258 C 
ATOM     16  O   UNL     1       0.539  -7.040   5.450  0.00  0.00    -0.269 OA
ATOM     17  N   UNL     1       2.354  -7.590   4.312  0.00  0.00    -0.255 N 
ATOM     18  C   UNL     1       3.195  -7.348   3.283  0.00  0.00    +0.121 C 
ATOM     19  S   UNL     1       4.608  -8.201   2.828  0.00  0.00    -0.027 S 
ATOM     20  S   UNL     1       2.454  -5.917   2.511  0.00  0.00    -0.061 S 
BRANCH  17  21
ATOM     21  C   UNL     1       2.616  -8.717   5.210  0.00  0.00    +0.115 C 
BRANCH  21  22
ATOM     22  C   UNL     1       1.916  -9.968   4.675  0.00  0.00    +0.031 C 
BRANCH  22  23
ATOM     23  C   UNL     1       2.190 -11.146   5.613  0.00  0.00    +0.126 C 
BRANCH  23  24
ATOM     24  C   UNL     1       1.501 -12.378   5.086  0.00  0.00    +0.356 C 
ATOM     25  O   UNL     1       0.850 -12.320   4.056  0.00  0.00    -0.246 OA
ATOM     26  O   UNL     1       1.593 -13.434   5.689  0.00  0.00    -0.246 OA
ENDBRANCH  23  24
ENDBRANCH  22  23
ENDBRANCH  21  22
ENDBRANCH  17  21
ENDBRANCH   8  13
BRANCH   7  27
ATOM     27  O   UNL     1      -0.153  -5.645   0.946  0.00  0.00    -0.437 OA
BRANCH  27  28
ATOM     28  C   UNL     1      -0.364  -6.022  -0.343  0.00  0.00    +0.131 A 
ATOM     29  C   UNL     1       0.583  -5.731  -1.315  0.00  0.00    +0.049 A 
ATOM     30  C   UNL     1       0.366  -6.116  -2.624  0.00  0.00    -0.047 A 
ATOM     31  C   UNL     1      -0.792  -6.789  -2.966  0.00  0.00    +0.007 A 
ATOM     32  C   UNL     1      -1.737  -7.079  -1.999  0.00  0.00    -0.047 A 
ATOM     33  C   UNL     1      -1.522  -6.703  -0.687  0.00  0.00    +0.049 A 
ATOM     34  C   UNL     1      -2.998  -7.812  -2.375  0.00  0.00    +0.044 C 
ATOM     35  C   UNL     1       1.393  -5.800  -3.681  0.00  0.00    +0.044 C 
ENDBRANCH  27  28
ENDBRANCH   7  27
TORSDOF 7
