REMARK  Name = ZINC09224418
REMARK  8 active torsions:
REMARK  status: ('A' for Active; 'I' for Inactive)
REMARK    1  A    between atoms: C_1  and  C_2
REMARK    2  A    between atoms: C_5  and  N_8
REMARK    3  A    between atoms: C_9  and  C_36
REMARK    4  A    between atoms: C_11  and  C_35
REMARK    5  A    between atoms: C_21  and  C_24
REMARK    6  A    between atoms: N_26  and  C_27
REMARK    7  A    between atoms: C_27  and  C_28
REMARK    8  A    between atoms: C_28  and  C_29
REMARK                            x       y       z     vdW  Elec       q    Type
REMARK                         _______ _______ _______ _____ _____    ______ ____
ROOT
ATOM      1  N   UNL     1      -2.322  -3.537   1.879  0.00  0.00    -0.236 N 
ATOM      2  C   UNL     1      -1.419  -4.520   2.044  0.00  0.00    +0.051 A 
ATOM      3  C   UNL     1      -0.165  -3.965   1.926  0.00  0.00    +0.049 A 
ATOM      4  C   UNL     1       1.171  -4.420   1.989  0.00  0.00    +0.072 A 
ATOM      5  N   UNL     1       2.151  -3.570   1.822  0.00  0.00    -0.152 NA
ATOM      6  N   UNL     1       2.008  -2.320   1.598  0.00  0.00    -0.132 NA
ATOM      7  C   UNL     1       0.838  -1.716   1.505  0.00  0.00    +0.172 A 
ATOM      8  C   UNL     1      -0.369  -2.524   1.674  0.00  0.00    +0.137 A 
ATOM      9  N   UNL     1      -1.666  -2.321   1.649  0.00  0.00    -0.163 NA
ATOM     10  N   UNL     1       0.756  -0.355   1.260  0.00  0.00    -0.311 N 
ATOM     11  C   UNL     1      -0.055  -0.083   0.066  0.00  0.00    +0.106 C 
ATOM     12  C   UNL     1      -0.245   1.427  -0.090  0.00  0.00    +0.020 C 
ATOM     13  C   UNL     1       1.125   2.099  -0.218  0.00  0.00    +0.016 C 
ATOM     14  C   UNL     1       1.968   1.760   1.015  0.00  0.00    +0.092 C 
ATOM     15  C   UNL     1       2.093   0.240   1.139  0.00  0.00    +0.119 C 
ATOM     16  C   UNL     1       1.464  -5.875   2.249  0.00  0.00    +0.068 C 
ATOM     17  C   UNL     1      -1.726  -5.971   2.311  0.00  0.00    +0.066 C 
ENDROOT
BRANCH   1  22
ATOM     18  C   UNL     1      -7.953  -4.213   2.084  0.00  0.00    +0.044 C 
ATOM     19  C   UNL     1      -6.457  -4.034   2.029  0.00  0.00    -0.050 A 
ATOM     20  C   UNL     1      -5.652  -4.667   2.958  0.00  0.00    +0.005 A 
ATOM     21  C   UNL     1      -4.282  -4.504   2.911  0.00  0.00    +0.028 A 
ATOM     22  C   UNL     1      -3.712  -3.704   1.929  0.00  0.00    +0.066 A 
ATOM     23  C   UNL     1      -4.524  -3.066   1.001  0.00  0.00    +0.028 A 
ATOM     24  C   UNL     1      -5.894  -3.236   1.050  0.00  0.00    +0.005 A 
ENDBRANCH   1  22
BRANCH  14  25
ATOM     25  C   UNL     1       3.339   2.368   0.870  0.00  0.00    +0.218 C 
ATOM     26  O   UNL     1       4.321   1.656   0.866  0.00  0.00    -0.275 OA
ATOM     27  N   UNL     1       3.474   3.703   0.744  0.00  0.00    -0.315 N 
ATOM     28  H   UNL     1       2.689   4.272   0.747  0.00  0.00    +0.149 HD
BRANCH  27  29
ATOM     29  C   UNL     1       4.808   4.294   0.603  0.00  0.00    +0.108 C 
BRANCH  29  30
ATOM     30  C   UNL     1       4.681   5.814   0.479  0.00  0.00    +0.049 C 
BRANCH  30  31
ATOM     31  C   UNL     1       6.052   6.421   0.334  0.00  0.00    -0.072 C 
ATOM     32  C   UNL     1       6.490   6.653  -0.862  0.00  0.00    -0.028 C 
ATOM     33  C   UNL     1       7.834   7.249  -1.165  0.00  0.00    +0.027 C 
ATOM     34  C   UNL     1       8.414   7.908   0.088  0.00  0.00    +0.004 C 
ATOM     35  C   UNL     1       8.308   6.915   1.252  0.00  0.00    +0.005 C 
ATOM     36  C   UNL     1       6.828   6.715   1.584  0.00  0.00    +0.030 C 
ENDBRANCH  30  31
ENDBRANCH  29  30
ENDBRANCH  27  29
ENDBRANCH  14  25
TORSDOF 5
