REMARK  Name = ZINC40044441
REMARK  5 active torsions:
REMARK  status: ('A' for Active; 'I' for Inactive)
REMARK    1  A    between atoms: C_1  and  C_2
REMARK    2  A    between atoms: C_9  and  C_26
REMARK    3  A    between atoms: C_16  and  C_25
REMARK    4  A    between atoms: C_18  and  C_24
REMARK    5  A    between atoms: C_29  and  O_32
REMARK                            x       y       z     vdW  Elec       q    Type
REMARK                         _______ _______ _______ _____ _____    ______ ____
ROOT
ATOM      1  C   UNL     1      -0.018   1.503   0.010  0.00  0.00    +0.044 C 
ATOM      2  C   UNL     1       0.002  -0.004   0.002  0.00  0.00    -0.046 A 
ATOM      3  C   UNL     1       0.006  -0.707  -1.195  0.00  0.00    +0.023 A 
ATOM      4  C   UNL     1       0.025  -2.088  -1.168  0.00  0.00    +0.113 A 
ATOM      5  N   UNL     1       0.040  -2.742  -0.022  0.00  0.00    -0.240 NA
ATOM      6  C   UNL     1       0.037  -2.108   1.139  0.00  0.00    +0.129 A 
ATOM      7  C   UNL     1       0.023  -0.718   1.187  0.00  0.00    +0.047 A 
ATOM      8  N   UNL     1       0.052  -2.839   2.325  0.00  0.00    -0.238 N 
ATOM      9  C   UNL     1       0.182  -4.301   2.438  0.00  0.00    +0.151 C 
ATOM     10  C   UNL     1       0.144  -4.601   3.900  0.00  0.00    +0.072 A 
ATOM     11  C   UNL     1       0.219  -5.872   4.628  0.00  0.00    +0.199 A 
ATOM     12  O   UNL     1       0.508  -6.929   4.096  0.00  0.00    -0.287 OA
ATOM     13  C   UNL     1      -0.090  -5.747   6.075  0.00  0.00    +0.065 A 
ATOM     14  C   UNL     1      -0.256  -6.887   6.862  0.00  0.00    +0.018 A 
ATOM     15  C   UNL     1      -0.546  -6.755   8.192  0.00  0.00    -0.049 A 
ATOM     16  C   UNL     1      -0.676  -5.495   8.757  0.00  0.00    +0.010 A 
ATOM     17  C   UNL     1      -0.514  -4.359   7.995  0.00  0.00    -0.007 A 
ATOM     18  C   UNL     1      -0.215  -4.467   6.637  0.00  0.00    +0.142 A 
ATOM     19  O   UNL     1      -0.051  -3.338   5.909  0.00  0.00    -0.449 OA
ATOM     20  C   UNL     1       0.009  -3.415   4.565  0.00  0.00    +0.199 A 
ATOM     21  C   UNL     1      -0.044  -2.331   3.570  0.00  0.00    +0.288 C 
ATOM     22  O   UNL     1      -0.160  -1.150   3.833  0.00  0.00    -0.266 OA
ATOM     23  C   UNL     1      -0.660  -3.000   8.629  0.00  0.00    +0.047 C 
ATOM     24  C   UNL     1      -0.726  -7.984   9.046  0.00  0.00    +0.044 C 
ENDROOT
BRANCH   9  25
ATOM     25  C   UNL     1      -0.965  -4.981   1.735  0.00  0.00    -0.022 A 
ATOM     26  C   UNL     1      -2.235  -4.439   1.805  0.00  0.00    +0.009 A 
ATOM     27  C   UNL     1      -3.288  -5.061   1.162  0.00  0.00    +0.046 A 
ATOM     28  C   UNL     1      -3.070  -6.229   0.446  0.00  0.00    +0.117 A 
ATOM     29  C   UNL     1      -1.795  -6.770   0.378  0.00  0.00    +0.046 A 
ATOM     30  C   UNL     1      -0.744  -6.142   1.018  0.00  0.00    +0.009 A 
BRANCH  28  31
ATOM     31  O   UNL     1      -4.105  -6.842  -0.186  0.00  0.00    -0.507 OA
ATOM     32  H   UNL     1      -4.242  -6.544  -1.096  0.00  0.00    +0.292 HD
ENDBRANCH  28  31
ENDBRANCH   9  25
TORSDOF 2
