REMARK  Name = ZINC65031263
REMARK  8 active torsions:
REMARK  status: ('A' for Active; 'I' for Inactive)
REMARK    1  A    between atoms: C_1  and  C_2
REMARK    2  A    between atoms: C_3  and  C_28
REMARK    3  A    between atoms: C_9  and  C_12
REMARK    4  A    between atoms: C_12  and  N_13
REMARK    5  A    between atoms: C_22  and  C_24
REMARK    6  A    between atoms: C_24  and  C_25
REMARK    7  A    between atoms: C_24  and  C_26
REMARK    8  A    between atoms: C_24  and  C_27
REMARK                            x       y       z     vdW  Elec       q    Type
REMARK                         _______ _______ _______ _____ _____    ______ ____
ROOT
ATOM      1  N   UNL     1      -0.521  -1.869   6.532  0.00  0.00    -0.295 N 
ATOM      2  C   UNL     1      -0.994  -1.699   7.782  0.00  0.00    +0.303 C 
ATOM      3  O   UNL     1      -0.247  -1.808   8.735  0.00  0.00    -0.253 OA
ATOM      4  N   UNL     1      -2.296  -1.408   7.976  0.00  0.00    -0.283 N 
ATOM      5  C   UNL     1      -3.236  -1.397   6.847  0.00  0.00    +0.128 C 
ATOM      6  C   UNL     1      -4.398  -2.346   7.168  0.00  0.00    +0.127 C 
ATOM      7  N   UNL     1      -4.902  -2.034   8.512  0.00  0.00    -0.298 N 
ATOM      8  C   UNL     1      -3.961  -2.045   9.642  0.00  0.00    +0.127 C 
ATOM      9  C   UNL     1      -2.801  -1.101   9.322  0.00  0.00    +0.128 C 
ATOM     10  C   UNL     1      -6.203  -1.743   8.707  0.00  0.00    +0.221 C 
ATOM     11  O   UNL     1      -6.986  -1.818   7.783  0.00  0.00    -0.275 OA
ATOM     12  H   UNL     1      -1.130  -1.854   5.777  0.00  0.00    +0.151 HD
ENDROOT
BRANCH  10  13
ATOM     13  C   UNL     1      -6.686  -1.323  10.071  0.00  0.00    +0.039 C 
ATOM     14  C   UNL     1      -8.176  -0.981  10.002  0.00  0.00    +0.020 C 
ATOM     15  C   UNL     1      -6.471  -2.469  11.063  0.00  0.00    +0.020 C 
ATOM     16  C   UNL     1      -5.901  -0.094  10.534  0.00  0.00    +0.020 C 
ENDBRANCH  10  13
BRANCH   1  17
ATOM     17  C   UNL     1       0.912  -2.077   6.313  0.00  0.00    +0.141 C 
BRANCH  17  26
ATOM     18  C   UNL     1       2.161   1.136   1.738  0.00  0.00    +0.046 C 
ATOM     19  C   UNL     1       2.012  -0.359   1.622  0.00  0.00    -0.022 A 
ATOM     20  C   UNL     1       2.148  -1.090   0.504  0.00  0.00    +0.017 A 
ATOM     21  N   UNL     1       1.940  -2.413   0.785  0.00  0.00    -0.358 N 
ATOM     22  H   UNL     1       1.984  -3.134   0.137  0.00  0.00    +0.166 HD
ATOM     23  C   UNL     1       1.657  -2.569   2.123  0.00  0.00    +0.047 A 
ATOM     24  C   UNL     1       1.696  -1.290   2.708  0.00  0.00    +0.003 A 
ATOM     25  C   UNL     1       1.451  -1.140   4.074  0.00  0.00    +0.015 A 
ATOM     26  C   UNL     1       1.177  -2.240   4.838  0.00  0.00    -0.030 A 
ATOM     27  C   UNL     1       1.142  -3.504   4.267  0.00  0.00    +0.007 A 
ATOM     28  C   UNL     1       1.372  -3.674   2.919  0.00  0.00    +0.026 A 
ATOM     29  C   UNL     1       2.480  -0.536  -0.857  0.00  0.00    +0.063 C 
ENDBRANCH  17  26
ENDBRANCH   1  17
TORSDOF 3
