REMARK  Name = ZINC40379676
REMARK  3 active torsions:
REMARK  status: ('A' for Active; 'I' for Inactive)
REMARK    1  A    between atoms: C_1  and  N_2
REMARK    2  A    between atoms: N_12  and  C_13
REMARK    3  A    between atoms: N_14  and  C_17
REMARK                            x       y       z     vdW  Elec       q    Type
REMARK                         _______ _______ _______ _____ _____    ______ ____
ROOT
ATOM      1  C   UNL     1      -0.018   1.461   0.010  0.00  0.00    +0.127 C 
ATOM      2  N   UNL     1       0.002  -0.004   0.002  0.00  0.00    -0.330 N 
ATOM      3  C   UNL     1       0.604  -0.685  -1.050  0.00  0.00    +0.148 A 
ATOM      4  C   UNL     1       0.620  -2.093  -1.064  0.00  0.00    +0.131 A 
ATOM      5  C   UNL     1       1.227  -2.766  -2.127  0.00  0.00    +0.100 A 
ATOM      6  C   UNL     1       1.821  -2.022  -3.181  0.00  0.00    +0.124 A 
ATOM      7  C   UNL     1       1.743  -0.622  -3.056  0.00  0.00    +0.134 A 
ATOM      8  N   UNL     1       1.159  -0.014  -2.046  0.00  0.00    -0.221 NA
ATOM      9  S   UNL     1       2.575  -0.069  -4.528  0.00  0.00    -0.033 S 
ATOM     10  C   UNL     1       2.961  -1.683  -5.190  0.00  0.00    +0.160 A 
ATOM     11  N   UNL     1       2.451  -2.484  -4.285  0.00  0.00    -0.221 NA
ATOM     12  N   UNL     1       3.626  -2.005  -6.359  0.00  0.00    -0.326 N 
ATOM     13  C   UNL     1       4.120  -0.942  -7.238  0.00  0.00    +0.127 C 
ATOM     14  N   UNL     1       1.088  -4.107  -1.870  0.00  0.00    -0.331 N 
ATOM     15  C   UNL     1       0.417  -4.224  -0.689  0.00  0.00    +0.200 A 
ATOM     16  N   UNL     1       0.143  -3.042  -0.217  0.00  0.00    -0.232 NA
ATOM     17  C   UNL     1       1.569  -5.208  -2.708  0.00  0.00    +0.150 C 
ATOM     18  H   UNL     1      -0.404  -0.499   0.731  0.00  0.00    +0.147 HD
ATOM     19  H   UNL     1       3.766  -2.935  -6.596  0.00  0.00    +0.148 HD
ENDROOT
TORSDOF 0
