REMARK  Name = ZINC37123751
REMARK  12 active torsions:
REMARK  status: ('A' for Active; 'I' for Inactive)
REMARK    1  A    between atoms: C_1  and  C_2
REMARK    2  A    between atoms: C_2  and  C_3
REMARK    3  A    between atoms: C_2  and  O_4
REMARK    4  A    between atoms: O_4  and  C_5
REMARK    5  A    between atoms: C_5  and  C_7
REMARK    6  A    between atoms: C_7  and  C_8
REMARK    7  A    between atoms: C_8  and  C_10
REMARK    8  A    between atoms: C_8  and  N_19
REMARK    9  A    between atoms: C_15  and  N_16
REMARK   10  A    between atoms: N_19  and  S_20
REMARK   11  A    between atoms: S_20  and  C_23
REMARK   12  A    between atoms: C_28  and  C_29
REMARK                            x       y       z     vdW  Elec       q    Type
REMARK                         _______ _______ _______ _____ _____    ______ ____
ROOT
ATOM      1  C   UNL     1       4.251  -1.262  -1.922  0.00  0.00    -0.056 C 
ENDROOT
BRANCH   1   2
ATOM      2  C   UNL     1       5.004  -1.862  -3.081  0.00  0.00    -0.036 A 
ATOM      3  C   UNL     1       5.729  -1.047  -3.930  0.00  0.00    +0.004 A 
ATOM      4  C   UNL     1       6.420  -1.597  -4.993  0.00  0.00    +0.000 A 
ATOM      5  C   UNL     1       6.387  -2.963  -5.207  0.00  0.00    +0.002 A 
ATOM      6  C   UNL     1       5.663  -3.778  -4.357  0.00  0.00    +0.033 A 
ATOM      7  C   UNL     1       4.975  -3.228  -3.291  0.00  0.00    +0.128 A 
BRANCH   7   8
ATOM      8  N   UNL     1       4.204  -4.101  -2.378  0.00  0.00    +0.057 N 
ATOM      9  O   UNL     1       4.178  -5.295  -2.562  0.00  0.00    -0.126 OA
ATOM     10  O   UNL     1       3.599  -3.619  -1.448  0.00  0.00    -0.126 OA
ENDBRANCH   7   8
ENDBRANCH   1   2
BRANCH   1  11
ATOM     11  C   UNL     1       2.771  -1.135  -2.286  0.00  0.00    +0.104 C 
BRANCH  11  12
ATOM     12  C   UNL     1       1.998  -0.651  -1.087  0.00  0.00    +0.306 C 
ATOM     13  O   UNL     1       2.572  -0.429  -0.047  0.00  0.00    -0.251 OA
BRANCH  12  14
ATOM     14  O   UNL     1       0.671  -0.465  -1.174  0.00  0.00    -0.462 OA
BRANCH  14  16
ATOM     15  C   UNL     1      -0.019   1.526   0.010  0.00  0.00    +0.052 C 
ATOM     16  C   UNL     1       0.002  -0.004   0.002  0.00  0.00    +0.170 C 
ATOM     17  C   UNL     1      -1.433  -0.534   0.013  0.00  0.00    +0.052 C 
ENDBRANCH  14  16
ENDBRANCH  12  14
ENDBRANCH  11  12
ENDBRANCH   1  11
BRANCH   1  18
ATOM     18  N   UNL     1       4.795   0.065  -1.620  0.00  0.00    +0.474 NA
BRANCH  18  19
ATOM     19  S   UNL     1       6.386   0.230  -1.192  0.00  0.00    -0.059 S 
ATOM     20  O   UNL     1       6.538  -0.420   0.063  0.00  0.00    -0.191 OA
ATOM     21  O   UNL     1       7.153  -0.128  -2.333  0.00  0.00    -0.191 OA
BRANCH  19  22
ATOM     22  C   UNL     1       6.674   1.945  -0.908  0.00  0.00    +0.077 A 
ATOM     23  C   UNL     1       7.008   2.390   0.357  0.00  0.00    +0.025 A 
ATOM     24  C   UNL     1       7.234   3.735   0.580  0.00  0.00    +0.002 A 
ATOM     25  C   UNL     1       7.127   4.636  -0.464  0.00  0.00    +0.001 A 
ATOM     26  C   UNL     1       6.794   4.191  -1.729  0.00  0.00    +0.014 A 
ATOM     27  C   UNL     1       6.572   2.844  -1.953  0.00  0.00    +0.077 A 
BRANCH  27  28
ATOM     28  C   UNL     1       6.214   2.358  -3.333  0.00  0.00    +0.419 C 
ATOM     29  F   UNL     1       6.171   3.445  -4.214  0.00  0.00    -0.166 F 
ATOM     30  F   UNL     1       7.177   1.442  -3.770  0.00  0.00    -0.166 F 
ATOM     31  F   UNL     1       4.961   1.737  -3.299  0.00  0.00    -0.166 F 
ENDBRANCH  27  28
ENDBRANCH  19  22
ENDBRANCH  18  19
ENDBRANCH   1  18
TORSDOF 10
