REMARK  Name = ZINC05799655
REMARK  11 active torsions:
REMARK  status: ('A' for Active; 'I' for Inactive)
REMARK    1  A    between atoms: C_1  and  C_2
REMARK    2  A    between atoms: C_2  and  O_3
REMARK    3  A    between atoms: O_3  and  C_4
REMARK    4  A    between atoms: C_7  and  C_11
REMARK    5  A    between atoms: C_11  and  O_29
REMARK    6  A    between atoms: C_13  and  C_24
REMARK    7  A    between atoms: N_15  and  C_20
REMARK    8  A    between atoms: C_20  and  C_21
REMARK    9  A    between atoms: C_21  and  N_52
REMARK   10  A    between atoms: C_22  and  N_52
REMARK   11  A    between atoms: C_23  and  N_52
REMARK                            x       y       z     vdW  Elec       q    Type
REMARK                         _______ _______ _______ _____ _____    ______ ____
ROOT
ATOM      1  C   UNL     1       3.924   0.623   2.533  0.00  0.00    +0.133 C 
ATOM      2  C   UNL     1       4.040   1.295   1.331  0.00  0.00    +0.074 C 
ATOM      3  C   UNL     1       3.434   0.895   0.005  0.00  0.00    +0.180 C 
ATOM      4  N   UNL     1       3.836   1.919  -0.965  0.00  0.00    -0.282 N 
ATOM      5  C   UNL     1       4.591   2.839  -0.341  0.00  0.00    +0.288 C 
ATOM      6  O   UNL     1       5.077   3.816  -0.873  0.00  0.00    -0.266 OA
ATOM      7  C   UNL     1       4.743   2.486   1.096  0.00  0.00    +0.249 C 
ATOM      8  O   UNL     1       5.369   3.121   1.925  0.00  0.00    -0.282 OA
ENDROOT
BRANCH   1  12
ATOM      9  C   UNL     1       2.018  -3.166   2.668  0.00  0.00    +0.139 A 
ATOM     10  C   UNL     1       2.993  -2.914   1.709  0.00  0.00    +0.048 A 
ATOM     11  C   UNL     1       3.614  -1.687   1.661  0.00  0.00    +0.015 A 
ATOM     12  C   UNL     1       3.263  -0.690   2.580  0.00  0.00    +0.019 A 
ATOM     13  C   UNL     1       2.285  -0.950   3.548  0.00  0.00    +0.035 A 
ATOM     14  C   UNL     1       1.666  -2.179   3.584  0.00  0.00    +0.083 A 
ATOM     15 CL   UNL     1       0.448  -2.501   4.779  0.00  0.00    -0.080 Cl
BRANCH   9  16
ATOM     16  O   UNL     1       1.409  -4.378   2.711  0.00  0.00    -0.491 OA
BRANCH  16  18
ATOM     17  C   UNL     1       1.028  -6.638   1.946  0.00  0.00    +0.048 C 
ATOM     18  C   UNL     1       1.819  -5.345   1.742  0.00  0.00    +0.226 C 
ENDBRANCH  16  18
ENDBRANCH   9  16
ENDBRANCH   1  12
BRANCH   3  19
ATOM     19  C   UNL     1       1.932   0.851   0.117  0.00  0.00    +0.130 A 
ATOM     20  C   UNL     1       1.173  -0.259   0.081  0.00  0.00    +0.047 A 
ATOM     21  C   UNL     1      -0.170   0.159   0.219  0.00  0.00    +0.041 A 
ATOM     22  C   UNL     1      -0.152   1.499   0.330  0.00  0.00    +0.195 A 
ATOM     23  O   UNL     1       1.124   1.913   0.268  0.00  0.00    -0.466 OA
ENDBRANCH   3  19
BRANCH   1  24
ATOM     24  O   UNL     1       4.418   1.172   3.663  0.00  0.00    -0.506 OA
ATOM     25  H   UNL     1       4.830   2.058   3.451  0.00  0.00    +0.292 HD
ENDBRANCH   1  24
BRANCH   4  26
ATOM     26  C   UNL     1       3.472   1.935  -2.384  0.00  0.00    +0.091 C 
BRANCH  26  27
ATOM     27  C   UNL     1       2.161   2.702  -2.565  0.00  0.00    -0.060 C 
BRANCH  27  30
ATOM     28  C   UNL     1       0.434   3.235  -4.177  0.00  0.00    -0.097 C 
ATOM     29  C   UNL     1       2.767   3.495  -4.771  0.00  0.00    -0.097 C 
ATOM     30  N   UNL     1       1.797   2.692  -3.998  0.00  0.00    +0.377 N 
ATOM     31  H   UNL     1       1.818   1.724  -4.340  0.00  0.00    -0.083 HD
ENDBRANCH  27  30
ENDBRANCH  26  27
ENDBRANCH   4  26
TORSDOF 8
