REMARK  Name = ZINC37452590
REMARK  2 active torsions:
REMARK  status: ('A' for Active; 'I' for Inactive)
REMARK    1  A    between atoms: C_7  and  C_8
REMARK    2  A    between atoms: C_20  and  C_22
REMARK                            x       y       z     vdW  Elec       q    Type
REMARK                         _______ _______ _______ _____ _____    ______ ____
ROOT
ATOM      1  C   UNL     1      -1.267  -0.764   0.011  0.00  0.00    +0.268 C 
ATOM      2  O   UNL     1      -2.329  -0.172   0.024  0.00  0.00    -0.268 OA
ATOM      3  N   UNL     1      -1.246  -2.111   0.003  0.00  0.00    -0.279 N 
ATOM      4  C   UNL     1      -2.418  -2.991   0.004  0.00  0.00    +0.080 C 
ATOM      5  C   UNL     1      -3.604  -2.395   0.727  0.00  0.00    +0.023 C 
ATOM      6  C   UNL     1      -3.326  -2.250   2.223  0.00  0.00    +0.002 C 
ATOM      7  C   UNL     1      -3.015  -3.637   2.794  0.00  0.00    +0.000 C 
ATOM      8  C   UNL     1      -1.743  -4.164   2.134  0.00  0.00    +0.005 C 
ATOM      9  C   UNL     1      -1.945  -4.312   0.639  0.00  0.00    +0.012 C 
ATOM     10  C   UNL     1      -0.517  -4.429   0.024  0.00  0.00    +0.039 C 
ATOM     11  C   UNL     1      -0.041  -2.959  -0.014  0.00  0.00    +0.190 C 
ENDROOT
BRANCH   1  18
ATOM     12  C   UNL     1      -0.017   1.395   0.010  0.00  0.00    +0.040 A 
ATOM     13  C   UNL     1       1.197   2.061   0.002  0.00  0.00    +0.076 A 
ATOM     14  C   UNL     1       2.362   1.298  -0.013  0.00  0.00    +0.288 A 
ATOM     15  O   UNL     1       3.572   1.909  -0.021  0.00  0.00    -0.264 OA
ATOM     16  N   UNL     1       2.287  -0.027  -0.020  0.00  0.00    -0.106 NA
ATOM     17  N   UNL     1       1.163  -0.647  -0.013  0.00  0.00    -0.141 NA
ATOM     18  C   UNL     1       0.002  -0.004   0.002  0.00  0.00    +0.148 A 
ENDBRANCH   1  18
BRANCH  11  19
ATOM     19  C   UNL     1       0.809  -2.667   1.196  0.00  0.00    +0.376 C 
ATOM     20  O   UNL     1       0.381  -1.947   2.082  0.00  0.00    -0.244 OA
ATOM     21  O   UNL     1       1.925  -3.151   1.288  0.00  0.00    -0.244 OA
ENDBRANCH  11  19
TORSDOF 2
