REMARK  Name = ZINC32944105
REMARK  7 active torsions:
REMARK  status: ('A' for Active; 'I' for Inactive)
REMARK    1  A    between atoms: C_1  and  C_2
REMARK    2  A    between atoms: C_3  and  S_16
REMARK    3  A    between atoms: C_4  and  C_7
REMARK    4  A    between atoms: C_8  and  C_9
REMARK    5  A    between atoms: S_16  and  N_19
REMARK    6  A    between atoms: C_23  and  C_26
REMARK    7  A    between atoms: N_28  and  C_29
REMARK                            x       y       z     vdW  Elec       q    Type
REMARK                         _______ _______ _______ _____ _____    ______ ____
ROOT
ATOM      1  S   UNL     1      -8.740  -3.641   0.129  0.00  0.00    +0.066 S 
ATOM      2  O   UNL     1      -9.969  -3.539   0.835  0.00  0.00    -0.153 OA
ATOM      3  O   UNL     1      -8.546  -3.056  -1.151  0.00  0.00    -0.153 OA
ENDROOT
BRANCH   1   6
ATOM      4  C   UNL     1      -9.776  -6.319   1.948  0.00  0.00    +0.071 C 
ATOM      5  C   UNL     1      -8.869  -6.424   0.750  0.00  0.00    +0.107 A 
ATOM      6  C   UNL     1      -8.402  -5.362  -0.047  0.00  0.00    +0.174 A 
ATOM      7  C   UNL     1      -7.625  -5.980  -0.997  0.00  0.00    +0.187 A 
ATOM      8  O   UNL     1      -7.670  -7.296  -0.715  0.00  0.00    -0.353 OA
ATOM      9  N   UNL     1      -8.364  -7.517   0.250  0.00  0.00    -0.081 NA
BRANCH   7  10
ATOM     10  C   UNL     1      -6.894  -5.337  -2.093  0.00  0.00    +0.052 C 
ATOM     11  C   UNL     1      -6.171  -6.084  -2.950  0.00  0.00    +0.014 C 
BRANCH  11  12
ATOM     12  C   UNL     1      -5.437  -5.439  -4.050  0.00  0.00    +0.010 A 
ATOM     13  C   UNL     1      -5.488  -4.051  -4.210  0.00  0.00    +0.011 A 
ATOM     14  C   UNL     1      -4.798  -3.453  -5.243  0.00  0.00    +0.001 A 
ATOM     15  C   UNL     1      -4.055  -4.223  -6.122  0.00  0.00    +0.003 A 
ATOM     16  C   UNL     1      -3.999  -5.597  -5.973  0.00  0.00    +0.039 A 
ATOM     17  C   UNL     1      -4.680  -6.211  -4.939  0.00  0.00    +0.131 A 
ATOM     18  F   UNL     1      -4.620  -7.552  -4.791  0.00  0.00    -0.205 F 
ENDBRANCH  11  12
ENDBRANCH   7  10
ENDBRANCH   1   6
BRANCH   1  19
ATOM     19  N   UNL     1      -7.572  -3.011   1.119  0.00  0.00    -0.176 NA
ATOM     20  C   UNL     1      -7.766  -2.972   2.575  0.00  0.00    +0.109 C 
ATOM     21  C   UNL     1      -7.548  -1.536   3.063  0.00  0.00    +0.018 C 
ATOM     22  C   UNL     1      -6.174  -1.048   2.599  0.00  0.00    +0.015 C 
ATOM     23  C   UNL     1      -6.119  -1.051   1.069  0.00  0.00    +0.091 C 
ATOM     24  C   UNL     1      -6.321  -2.481   0.559  0.00  0.00    +0.122 C 
BRANCH  23  25
ATOM     25  C   UNL     1      -4.777  -0.539   0.613  0.00  0.00    +0.218 C 
ATOM     26  O   UNL     1      -4.053  -1.247  -0.055  0.00  0.00    -0.275 OA
ATOM     27  N   UNL     1      -4.382   0.705   0.947  0.00  0.00    -0.312 N 
ATOM     28  H   UNL     1      -5.039   1.347   1.552  0.00  0.00    +0.149 HD
BRANCH  27  29
ATOM     29  C   UNL     1      -3.078   1.203   0.503  0.00  0.00    +0.073 C 
ATOM     30  C   UNL     1      -1.998   0.753   1.488  0.00  0.00    +0.022 C 
ATOM     31  C   UNL     1      -0.729   1.579   1.267  0.00  0.00    +0.002 C 
ATOM     32  C   UNL     1      -0.013   1.086   0.008  0.00  0.00    +0.000 C 
ATOM     33  C   UNL     1      -0.753   1.593  -1.231  0.00  0.00    +0.000 C 
ATOM     34  C   UNL     1      -1.125   3.064  -1.038  0.00  0.00    +0.000 C 
ATOM     35  C   UNL     1      -2.646   3.197  -0.940  0.00  0.00    +0.002 C 
ATOM     36  C   UNL     1      -3.109   2.732   0.442  0.00  0.00    +0.022 C 
ENDBRANCH  27  29
ENDBRANCH  23  25
ENDBRANCH   1  19
TORSDOF 6
