REMARK  Name = ZINC50441528
REMARK  9 active torsions:
REMARK  status: ('A' for Active; 'I' for Inactive)
REMARK    1  A    between atoms: C_1  and  C_2
REMARK    2  A    between atoms: C_2  and  C_3
REMARK    3  A    between atoms: C_2  and  C_17
REMARK    4  A    between atoms: C_2  and  N_20
REMARK    5  A    between atoms: C_3  and  C_4
REMARK    6  A    between atoms: C_4  and  O_5
REMARK    7  A    between atoms: O_5  and  C_6
REMARK    8  A    between atoms: C_9  and  N_13
REMARK    9  A    between atoms: N_20  and  C_21
REMARK                            x       y       z     vdW  Elec       q    Type
REMARK                         _______ _______ _______ _____ _____    ______ ____
ROOT
ATOM      1  C   UNL     1       2.178   0.019   1.231  0.00  0.00    +0.228 C 
ENDROOT
BRANCH   1   2
ATOM      2  C   UNL     1       0.742  -0.511   1.242  0.00  0.00    +0.037 C 
BRANCH   2   4
ATOM      3  C   UNL     1      -0.019   1.526   0.010  0.00  0.00    -0.001 C 
ATOM      4  C   UNL     1       0.002  -0.004   0.002  0.00  0.00    +0.010 C 
BRANCH   4   5
ATOM      5  C   UNL     1       0.707  -0.490  -1.238  0.00  0.00    +0.199 C 
ATOM      6  O   UNL     1       1.522   0.219  -1.790  0.00  0.00    -0.278 OA
ATOM      7  N   UNL     1       0.433  -1.713  -1.733  0.00  0.00    -0.330 N 
ATOM      8  H   UNL     1      -0.218  -2.281  -1.292  0.00  0.00    +0.145 HD
ATOM      9  H   UNL     1       0.888  -2.026  -2.531  0.00  0.00    +0.145 HD
ENDBRANCH   4   5
BRANCH   4  10
ATOM     10  N   UNL     1      -1.376  -0.512   0.012  0.00  0.00    +0.387 N 
ATOM     11  C   UNL     1      -2.087  -0.026  -1.178  0.00  0.00    -0.099 C 
ATOM     12  H   UNL     1      -1.362  -1.521   0.007  0.00  0.00    -0.085 HD
ATOM     13  H   UNL     1      -1.848  -0.187   0.843  0.00  0.00    -0.085 HD
ENDBRANCH   4  10
ENDBRANCH   2   4
ENDBRANCH   1   2
BRANCH   1  14
ATOM     14  O   UNL     1       2.869  -0.455   2.388  0.00  0.00    -0.490 OA
BRANCH  14  15
ATOM     15  C   UNL     1       4.165  -0.073   2.532  0.00  0.00    +0.148 A 
ATOM     16  C   UNL     1       5.182  -0.847   1.992  0.00  0.00    +0.063 A 
ATOM     17  C   UNL     1       6.500  -0.456   2.139  0.00  0.00    +0.051 A 
ATOM     18  C   UNL     1       6.805   0.706   2.825  0.00  0.00    +0.129 A 
ATOM     19  C   UNL     1       5.794   1.479   3.365  0.00  0.00    +0.051 A 
ATOM     20  C   UNL     1       4.474   1.095   3.215  0.00  0.00    +0.063 A 
ATOM     21 BR   UNL     1       3.091   2.158   3.947  0.00  0.00    -0.046 Br
ATOM     22 BR   UNL     1       4.766  -2.436   1.055  0.00  0.00    -0.046 Br
BRANCH  18  23
ATOM     23  N   UNL     1       8.217   1.121   2.982  0.00  0.00    +0.056 N 
ATOM     24  O   UNL     1       9.102   0.446   2.511  0.00  0.00    -0.126 OA
ATOM     25  O   UNL     1       8.485   2.136   3.581  0.00  0.00    -0.126 OA
ENDBRANCH  18  23
ENDBRANCH  14  15
ENDBRANCH   1  14
TORSDOF 7
