REMARK  Name = ZINC12218218
REMARK  7 active torsions:
REMARK  status: ('A' for Active; 'I' for Inactive)
REMARK    1  A    between atoms: C_1  and  C_2
REMARK    2  A    between atoms: C_2  and  C_3
REMARK    3  A    between atoms: C_2  and  N_64
REMARK    4  A    between atoms: C_5  and  S_28
REMARK    5  A    between atoms: C_8  and  C_10
REMARK    6  A    between atoms: N_12  and  C_13
REMARK    7  A    between atoms: S_28  and  C_29
REMARK                            x       y       z     vdW  Elec       q    Type
REMARK                         _______ _______ _______ _____ _____    ______ ____
ROOT
ATOM      1  C   UNL     1      -2.383   1.406  -0.110  0.00  0.00    +0.204 C 
ATOM      2  O   UNL     1      -2.366   0.193  -0.117  0.00  0.00    -0.277 OA
ATOM      3  N   UNL     1      -1.229   2.095  -0.016  0.00  0.00    -0.287 N 
ATOM      4  H   UNL     1      -1.246   3.062   0.057  0.00  0.00    +0.155 HD
ENDROOT
BRANCH   3   5
ATOM      5  C   UNL     1      -0.006   1.416  -0.023  0.00  0.00    +0.035 A 
ATOM      6  C   UNL     1       1.105   1.987  -0.633  0.00  0.00    +0.024 A 
ATOM      7  C   UNL     1       2.315   1.321  -0.646  0.00  0.00    +0.007 A 
ATOM      8  C   UNL     1       2.421   0.078  -0.040  0.00  0.00    -0.026 A 
ATOM      9  C   UNL     1       1.329  -0.479   0.573  0.00  0.00    +0.036 A 
ATOM     10  C   UNL     1       0.104   0.171   0.584  0.00  0.00    +0.046 A 
ATOM     11  N   UNL     1       1.500  -1.711   1.198  0.00  0.00    -0.314 N 
ATOM     12  C   UNL     1       1.801  -2.880   0.510  0.00  0.00    +0.035 A 
ATOM     13  C   UNL     1       1.048  -4.006   0.862  0.00  0.00    +0.023 A 
ATOM     14  C   UNL     1       1.215  -5.202   0.203  0.00  0.00    +0.002 A 
ATOM     15  C   UNL     1       2.143  -5.288  -0.820  0.00  0.00    +0.000 A 
ATOM     16  C   UNL     1       2.895  -4.187  -1.157  0.00  0.00    +0.005 A 
ATOM     17  C   UNL     1       2.743  -2.967  -0.490  0.00  0.00    -0.026 A 
ATOM     18  C   UNL     1       3.668  -1.877  -0.969  0.00  0.00    +0.041 C 
ATOM     19  C   UNL     1       3.723  -0.664  -0.073  0.00  0.00    +0.041 C 
ATOM     20  H   UNL     1       1.405  -1.755   2.162  0.00  0.00    +0.152 HD
ENDBRANCH   3   5
BRANCH   1  24
ATOM     21  C   UNL     1      -5.937   1.791   0.457  0.00  0.00    -0.063 C 
ATOM     22  C   UNL     1      -5.239   2.452   1.672  0.00  0.00    +0.034 C 
ATOM     23  C   UNL     1      -3.917   2.986   1.063  0.00  0.00    +0.006 C 
ATOM     24  C   UNL     1      -3.695   2.142  -0.206  0.00  0.00    +0.021 C 
ATOM     25  N   UNL     1      -4.810   1.190  -0.266  0.00  0.00    +0.390 N 
ATOM     26  H   UNL     1      -4.539   0.309   0.186  0.00  0.00    -0.080 HD
BRANCH  25  28
ATOM     27  C   UNL     1      -4.020   0.230  -2.405  0.00  0.00    -0.013 C 
ATOM     28  C   UNL     1      -5.182   0.918  -1.687  0.00  0.00    -0.074 C 
ATOM     29  C   UNL     1      -6.415   0.013  -1.729  0.00  0.00    -0.013 C 
ENDBRANCH  25  28
BRANCH  22  30
ATOM     30  S   UNL     1      -6.242   3.814   2.326  0.00  0.00    -0.124 S 
BRANCH  30  31
ATOM     31  C   UNL     1      -5.451   4.237   3.842  0.00  0.00    +0.008 A 
ATOM     32  C   UNL     1      -4.266   3.611   4.207  0.00  0.00    +0.017 A 
ATOM     33  C   UNL     1      -3.644   3.948   5.393  0.00  0.00    +0.039 A 
ATOM     34  C   UNL     1      -4.208   4.900   6.225  0.00  0.00    +0.123 A 
ATOM     35  C   UNL     1      -5.393   5.522   5.867  0.00  0.00    +0.039 A 
ATOM     36  C   UNL     1      -6.015   5.192   4.679  0.00  0.00    +0.017 A 
ATOM     37  F   UNL     1      -3.602   5.224   7.388  0.00  0.00    -0.205 F 
ENDBRANCH  30  31
ENDBRANCH  22  30
ENDBRANCH   1  24
TORSDOF 5
