REMARK  Name = ZINC36621397
REMARK  5 active torsions:
REMARK  status: ('A' for Active; 'I' for Inactive)
REMARK    1  A    between atoms: C_1  and  C_2
REMARK    2  A    between atoms: C_2  and  N_3
REMARK    3  A    between atoms: C_4  and  C_30
REMARK    4  A    between atoms: C_5  and  C_8
REMARK    5  A    between atoms: C_11  and  C_20
REMARK                            x       y       z     vdW  Elec       q    Type
REMARK                         _______ _______ _______ _____ _____    ______ ____
ROOT
ATOM      1  C   UNL     1       0.944  -1.533  -4.551  0.00  0.00    +0.110 C 
ATOM      2  C   UNL     1       0.762  -0.298  -5.416  0.00  0.00    +0.083 C 
ATOM      3  C   UNL     1       1.922   0.627  -5.302  0.00  0.00    +0.061 C 
ATOM      4  N   UNL     1       3.142   0.341  -5.172  0.00  0.00    -0.249 NA
ATOM      5  C   UNL     1       3.877  -0.775  -5.016  0.00  0.00    +0.085 A 
ATOM      6  C   UNL     1       5.271  -0.596  -4.915  0.00  0.00    +0.029 A 
ATOM      7  C   UNL     1       6.113  -1.669  -4.749  0.00  0.00    +0.002 A 
ATOM      8  C   UNL     1       5.597  -2.952  -4.677  0.00  0.00    +0.002 A 
ATOM      9  C   UNL     1       4.236  -3.149  -4.775  0.00  0.00    +0.025 A 
ATOM     10  C   UNL     1       3.366  -2.072  -4.946  0.00  0.00    +0.053 A 
ATOM     11  N   UNL     1       2.015  -2.365  -5.048  0.00  0.00    -0.335 N 
ATOM     12  H   UNL     1       1.770  -3.195  -5.485  0.00  0.00    +0.147 HD
ENDROOT
BRANCH   3  13
ATOM     13  C   UNL     1       1.604   2.055  -5.347  0.00  0.00    +0.114 A 
ATOM     14  C   UNL     1       1.629   2.813  -4.187  0.00  0.00    +0.265 A 
ATOM     15  N   UNL     1       1.383   4.135  -4.103  0.00  0.00    -0.283 N 
ATOM     16  H   UNL     1       1.672   4.588  -3.296  0.00  0.00    +0.172 HD
ATOM     17  C   UNL     1       0.773   4.882  -5.037  0.00  0.00    +0.294 A 
ATOM     18  O   UNL     1       0.624   6.076  -4.868  0.00  0.00    -0.259 OA
ATOM     19  S   UNL     1       0.186   4.111  -6.518  0.00  0.00    +0.014 S 
ATOM     20  C   UNL     1       1.261   2.700  -6.627  0.00  0.00    +0.235 A 
ATOM     21  O   UNL     1       1.685   2.288  -7.691  0.00  0.00    -0.279 OA
ATOM     22  O   UNL     1       1.927   2.171  -3.042  0.00  0.00    -0.267 OA
ENDBRANCH   3  13
BRANCH   1  25
ATOM     23  N   UNL     1       1.058  -0.356  -1.102  0.00  0.00    -0.269 N 
ATOM     24  C   UNL     1       0.381  -0.615  -2.240  0.00  0.00    +0.041 A 
ATOM     25  C   UNL     1       1.262  -1.106  -3.142  0.00  0.00    +0.013 A 
ATOM     26  C   UNL     1       2.521  -1.150  -2.533  0.00  0.00    +0.140 A 
ATOM     27  N   UNL     1       2.401  -0.694  -1.312  0.00  0.00    -0.179 NA
ATOM     28  C   UNL     1      -1.093  -0.396  -2.467  0.00  0.00    +0.065 C 
BRANCH  23  30
ATOM     29  C   UNL     1       0.556   1.717   0.095  0.00  0.00    +0.029 C 
ATOM     30  C   UNL     1       0.489   0.189   0.134  0.00  0.00    +0.140 C 
ENDBRANCH  23  30
ENDBRANCH   1  25
TORSDOF 3
