REMARK  Name = ZINC51621646
REMARK  4 active torsions:
REMARK  status: ('A' for Active; 'I' for Inactive)
REMARK    1  A    between atoms: C_3  and  N_18
REMARK    2  A    between atoms: C_6  and  N_7
REMARK    3  A    between atoms: N_7  and  C_8
REMARK    4  A    between atoms: N_11  and  C_14
REMARK                            x       y       z     vdW  Elec       q    Type
REMARK                         _______ _______ _______ _____ _____    ______ ____
ROOT
ATOM      1  N   UNL     1      -1.197  -0.720   0.010  0.00  0.00    -0.341 N 
ATOM      2  H   UNL     1      -2.044  -0.248   0.021  0.00  0.00    +0.146 HD
ENDROOT
BRANCH   1   8
ATOM      3  C   UNL     1      -0.017   1.385   0.010  0.00  0.00    +0.025 A 
ATOM      4  C   UNL     1       1.171   2.090   0.002  0.00  0.00    +0.035 A 
ATOM      5  C   UNL     1       2.377   1.416  -0.013  0.00  0.00    +0.139 A 
ATOM      6  C   UNL     1       2.400   0.032  -0.021  0.00  0.00    +0.045 A 
ATOM      7  C   UNL     1       1.216  -0.679  -0.014  0.00  0.00    +0.039 A 
ATOM      8  C   UNL     1       0.002  -0.004   0.002  0.00  0.00    +0.028 A 
ATOM      9  I   UNL     1       4.232  -0.984  -0.045  0.00  0.00    -0.041 I 
BRANCH   5  10
ATOM     10  N   UNL     1       3.648   2.175  -0.022  0.00  0.00    +0.057 N 
ATOM     11  O   UNL     1       3.630   3.384  -0.016  0.00  0.00    -0.126 OA
ATOM     12  O   UNL     1       4.704   1.587  -0.036  0.00  0.00    -0.126 OA
ENDBRANCH   5  10
ENDBRANCH   1   8
BRANCH   1  13
ATOM     13  C   UNL     1      -1.175  -2.185   0.002  0.00  0.00    +0.067 C 
ATOM     14  C   UNL     1      -1.066  -2.688  -1.440  0.00  0.00    +0.003 C 
ATOM     15  C   UNL     1      -1.124  -4.217  -1.448  0.00  0.00    -0.077 C 
ATOM     16  N   UNL     1      -2.396  -4.665  -0.867  0.00  0.00    +0.382 N 
ATOM     17  C   UNL     1      -2.475  -4.248   0.538  0.00  0.00    -0.077 C 
ATOM     18  C   UNL     1      -2.470  -2.720   0.622  0.00  0.00    +0.003 C 
ATOM     19  H   UNL     1      -3.162  -4.257  -1.382  0.00  0.00    -0.081 HD
BRANCH  16  20
ATOM     20  C   UNL     1      -2.480  -6.129  -0.947  0.00  0.00    -0.069 C 
ATOM     21  C   UNL     1      -3.516  -6.726  -1.902  0.00  0.00    -0.017 C 
ATOM     22  C   UNL     1      -3.740  -6.796  -0.390  0.00  0.00    -0.017 C 
ENDBRANCH  16  20
ENDBRANCH   1  13
TORSDOF 4
