REMARK  Name = ZINC14542905
REMARK  9 active torsions:
REMARK  status: ('A' for Active; 'I' for Inactive)
REMARK    1  A    between atoms: C_1  and  C_2
REMARK    2  A    between atoms: C_2  and  C_3
REMARK    3  A    between atoms: C_2  and  C_4
REMARK    4  A    between atoms: C_4  and  N_5
REMARK    5  A    between atoms: C_8  and  C_10
REMARK    6  A    between atoms: C_19  and  N_74
REMARK    7  A    between atoms: C_23  and  C_24
REMARK    8  A    between atoms: C_23  and  N_74
REMARK    9  A    between atoms: C_24  and  C_30
REMARK                            x       y       z     vdW  Elec       q    Type
REMARK                         _______ _______ _______ _____ _____    ______ ____
ROOT
ATOM      1  N   UNL     1       2.126   1.013   1.133  0.00  0.00    -0.267 N 
ATOM      2  C   UNL     1       2.844  -0.120   1.074  0.00  0.00    +0.043 A 
ATOM      3  C   UNL     1       3.405  -0.303   2.295  0.00  0.00    +0.004 A 
ATOM      4  C   UNL     1       2.979   0.780   3.082  0.00  0.00    +0.151 A 
ATOM      5  N   UNL     1       2.215   1.533   2.308  0.00  0.00    -0.166 NA
ATOM      6  C   UNL     1       4.296  -1.458   2.662  0.00  0.00    +0.023 C 
ATOM      7  C   UNL     1       4.777  -2.125   1.366  0.00  0.00    -0.067 C 
ATOM      8  C   UNL     1       3.577  -2.390   0.452  0.00  0.00    -0.009 C 
ATOM      9  C   UNL     1       3.036  -1.061  -0.088  0.00  0.00    +0.054 C 
ENDROOT
BRANCH   4  10
ATOM     10  C   UNL     1       3.323   1.033   4.496  0.00  0.00    +0.267 C 
ATOM     11  O   UNL     1       3.955   0.206   5.125  0.00  0.00    -0.268 OA
ATOM     12  N   UNL     1       2.936   2.179   5.089  0.00  0.00    -0.292 N 
ATOM     13  C   UNL     1       3.342   2.493   6.468  0.00  0.00    +0.136 C 
ATOM     14  C   UNL     1       3.935   3.911   6.482  0.00  0.00    +0.179 C 
ATOM     15  O   UNL     1       3.008   4.813   5.873  0.00  0.00    -0.377 OA
ATOM     16  C   UNL     1       2.739   4.535   4.497  0.00  0.00    +0.179 C 
ATOM     17  C   UNL     1       2.089   3.151   4.379  0.00  0.00    +0.136 C 
ENDBRANCH   4  10
BRANCH   7  18
ATOM     18  N   UNL     1       5.436  -3.403   1.696  0.00  0.00    +0.382 N 
ATOM     19  H   UNL     1       4.726  -4.139   1.778  0.00  0.00    -0.085 HD
ATOM     20  H   UNL     1       5.934  -3.306   2.588  0.00  0.00    -0.085 HD
BRANCH  18  21
ATOM     21  C   UNL     1       6.398  -3.770   0.639  0.00  0.00    -0.071 C 
BRANCH  21  22
ATOM     22  C   UNL     1       7.065  -5.096   1.008  0.00  0.00    -0.015 C 
ATOM     23  C   UNL     1       7.810  -4.943   2.337  0.00  0.00    +0.038 C 
ATOM     24  C   UNL     1       8.924  -3.906   2.173  0.00  0.00    +0.160 C 
ATOM     25  O   UNL     1       9.802  -4.315   1.122  0.00  0.00    -0.380 OA
ATOM     26  C   UNL     1       9.171  -4.429  -0.155  0.00  0.00    +0.160 C 
ATOM     27  C   UNL     1       8.067  -5.487  -0.084  0.00  0.00    +0.038 C 
BRANCH  22  28
ATOM     28  C   UNL     1       6.016  -6.170   1.137  0.00  0.00    -0.043 A 
ATOM     29  C   UNL     1       4.684  -5.863   0.932  0.00  0.00    +0.004 A 
ATOM     30  C   UNL     1       3.721  -6.849   1.046  0.00  0.00    +0.000 A 
ATOM     31  C   UNL     1       4.090  -8.140   1.374  0.00  0.00    +0.000 A 
ATOM     32  C   UNL     1       5.422  -8.446   1.584  0.00  0.00    +0.000 A 
ATOM     33  C   UNL     1       6.385  -7.461   1.466  0.00  0.00    +0.004 A 
ENDBRANCH  22  28
ENDBRANCH  21  22
ENDBRANCH  18  21
ENDBRANCH   7  18
BRANCH   1  34
ATOM     34  C   UNL     1       1.357   1.579   0.021  0.00  0.00    +0.146 C 
BRANCH  34  36
ATOM     35  C   UNL     1      -0.832   1.513  -1.182  0.00  0.00    +0.009 C 
ATOM     36  C   UNL     1      -0.067   1.020   0.048  0.00  0.00    +0.004 C 
ATOM     37  C   UNL     1      -0.777   1.499   1.316  0.00  0.00    +0.009 C 
ENDBRANCH  34  36
ENDBRANCH   1  34
TORSDOF 7
