REMARK  Name = ZINC22607037
REMARK  4 active torsions:
REMARK  status: ('A' for Active; 'I' for Inactive)
REMARK    1  A    between atoms: C_1  and  O_2
REMARK    2  A    between atoms: O_2  and  C_3
REMARK    3  A    between atoms: C_6  and  C_10
REMARK    4  A    between atoms: C_8  and  O_9
REMARK                            x       y       z     vdW  Elec       q    Type
REMARK                         _______ _______ _______ _____ _____    ______ ____
ROOT
ATOM      1  C   UNL     1       2.590  -2.547   4.316  0.00  0.00    +0.093 C 
ATOM      2  C   UNL     1       4.030  -2.129   4.339  0.00  0.00    +0.069 A 
ATOM      3  C   UNL     1       4.479  -1.217   5.242  0.00  0.00    +0.112 A 
ATOM      4  N   UNL     1       5.800  -0.854   5.228  0.00  0.00    -0.315 N 
ATOM      5  H   UNL     1       6.130  -0.203   5.867  0.00  0.00    +0.170 HD
ATOM      6  C   UNL     1       6.651  -1.406   4.319  0.00  0.00    +0.200 A 
ATOM      7  N   UNL     1       6.229  -2.292   3.443  0.00  0.00    -0.177 NA
ATOM      8  C   UNL     1       4.945  -2.680   3.416  0.00  0.00    +0.280 A 
ATOM      9  O   UNL     1       4.569  -3.507   2.597  0.00  0.00    -0.265 OA
ATOM     10  N   UNL     1       7.968  -1.031   4.317  0.00  0.00    -0.301 N 
ATOM     11  C   UNL     1       8.933  -1.692   3.428  0.00  0.00    +0.108 C 
ATOM     12  C   UNL     1       9.658  -0.623   2.605  0.00  0.00    +0.019 C 
ATOM     13  C   UNL     1      10.279   0.408   3.551  0.00  0.00    +0.003 C 
ATOM     14  C   UNL     1       9.175   1.089   4.362  0.00  0.00    +0.019 C 
ATOM     15  C   UNL     1       8.442   0.043   5.200  0.00  0.00    +0.108 C 
ATOM     16  N   UNL     1       3.615  -0.668   6.160  0.00  0.00    -0.304 N 
ATOM     17  C   UNL     1       2.424  -1.277   6.448  0.00  0.00    +0.017 C 
ATOM     18  C   UNL     1       1.895  -2.187   5.604  0.00  0.00    +0.024 C 
ATOM     19  C   UNL     1       0.679  -2.827   5.901  0.00  0.00    +0.162 C 
ATOM     20  O   UNL     1       0.226  -3.637   5.117  0.00  0.00    -0.292 OA
ATOM     21  C   UNL     1      -0.071  -2.527   7.170  0.00  0.00    +0.080 C 
ATOM     22  C   UNL     1       0.927  -2.098   8.250  0.00  0.00    +0.014 C 
ATOM     23  C   UNL     1       1.718  -0.901   7.728  0.00  0.00    +0.051 C 
ATOM     24  H   UNL     1       3.852   0.159   6.608  0.00  0.00    +0.153 HD
ENDROOT
BRANCH   1  28
ATOM     25  C   UNL     1       0.617  -0.586   1.068  0.00  0.00    +0.161 A 
ATOM     26  C   UNL     1       1.196   0.160   2.083  0.00  0.00    +0.050 A 
ATOM     27  C   UNL     1       1.832  -0.477   3.131  0.00  0.00    +0.008 A 
ATOM     28  C   UNL     1       1.894  -1.858   3.170  0.00  0.00    -0.032 A 
ATOM     29  C   UNL     1       1.319  -2.607   2.161  0.00  0.00    +0.053 A 
ATOM     30  C   UNL     1       0.674  -1.975   1.110  0.00  0.00    +0.159 A 
BRANCH  25  32
ATOM     31  C   UNL     1      -0.030   1.468   0.058  0.00  0.00    +0.277 C 
ATOM     32  O   UNL     1      -0.010   0.040   0.036  0.00  0.00    -0.491 OA
ENDBRANCH  25  32
BRANCH  30  33
ATOM     33  O   UNL     1       0.102  -2.711   0.119  0.00  0.00    -0.503 OA
ATOM     34  H   UNL     1       0.697  -2.907  -0.618  0.00  0.00    +0.292 HD
ENDBRANCH  30  33
ENDBRANCH   1  28
TORSDOF 3
