REMARK  Name = ZINC09835543
REMARK  12 active torsions:
REMARK  status: ('A' for Active; 'I' for Inactive)
REMARK    1  A    between atoms: C_1  and  C_2
REMARK    2  A    between atoms: C_6  and  N_9
REMARK    3  A    between atoms: C_7  and  C_8
REMARK    4  A    between atoms: C_10  and  C_25
REMARK    5  A    between atoms: C_12  and  O_16
REMARK    6  A    between atoms: O_16  and  C_17
REMARK    7  A    between atoms: C_25  and  N_54
REMARK    8  A    between atoms: C_26  and  C_27
REMARK    9  A    between atoms: C_26  and  N_54
REMARK   10  A    between atoms: C_27  and  C_28
REMARK   11  A    between atoms: C_28  and  O_29
REMARK   12  A    between atoms: O_29  and  C_30
REMARK                            x       y       z     vdW  Elec       q    Type
REMARK                         _______ _______ _______ _____ _____    ______ ____
ROOT
ATOM      1  N   UNL     1      -0.727  -2.953  -2.472  0.00  0.00    -0.263 N 
ATOM      2  C   UNL     1       0.581  -2.928  -3.113  0.00  0.00    +0.114 C 
ATOM      3  C   UNL     1      -0.003  -3.801  -4.217  0.00  0.00    +0.278 C 
ATOM      4  C   UNL     1      -1.275  -3.716  -3.426  0.00  0.00    +0.263 C 
ATOM      5  O   UNL     1      -2.388  -4.169  -3.591  0.00  0.00    -0.271 OA
ENDROOT
BRANCH   1  11
ATOM      6  C   UNL     1      -2.892   0.821  -0.184  0.00  0.00    +0.044 C 
ATOM      7  C   UNL     1      -2.283  -0.556  -0.158  0.00  0.00    -0.046 A 
ATOM      8  C   UNL     1      -2.218  -1.261   1.031  0.00  0.00    +0.004 A 
ATOM      9  C   UNL     1      -1.660  -2.526   1.059  0.00  0.00    +0.002 A 
ATOM     10  C   UNL     1      -1.165  -3.090  -0.101  0.00  0.00    +0.024 A 
ATOM     11  C   UNL     1      -1.228  -2.385  -1.296  0.00  0.00    +0.040 A 
ATOM     12  C   UNL     1      -1.794  -1.117  -1.322  0.00  0.00    -0.026 A 
ATOM     13  C   UNL     1      -1.870  -0.351  -2.617  0.00  0.00    +0.046 C 
ENDBRANCH   1  11
BRANCH   3  14
ATOM     14  O   UNL     1      -0.067  -3.155  -5.490  0.00  0.00    -0.476 OA
BRANCH  14  15
ATOM     15  C   UNL     1      -0.502  -3.901  -6.540  0.00  0.00    +0.140 A 
ATOM     16  C   UNL     1      -0.962  -5.192  -6.330  0.00  0.00    +0.048 A 
ATOM     17  C   UNL     1      -1.404  -5.949  -7.399  0.00  0.00    +0.023 A 
ATOM     18  C   UNL     1      -1.387  -5.420  -8.677  0.00  0.00    +0.043 A 
ATOM     19  C   UNL     1      -0.928  -4.132  -8.889  0.00  0.00    +0.043 A 
ATOM     20  C   UNL     1      -0.491  -3.369  -7.822  0.00  0.00    +0.084 A 
ATOM     21 CL   UNL     1       0.077  -1.750  -8.086  0.00  0.00    -0.080 Cl
ATOM     22 CL   UNL     1      -1.943  -6.373 -10.017  0.00  0.00    -0.083 Cl
ENDBRANCH  14  15
ENDBRANCH   3  14
BRANCH   2  23
ATOM     23  C   UNL     1       1.673  -3.625  -2.299  0.00  0.00    -0.055 C 
BRANCH  23  24
ATOM     24  N   UNL     1       2.048  -2.766  -1.160  0.00  0.00    +0.380 N 
ATOM     25  H   UNL     1       1.223  -2.604  -0.571  0.00  0.00    -0.086 HD
ATOM     26  H   UNL     1       2.397  -1.868  -1.514  0.00  0.00    -0.086 HD
BRANCH  24  27
ATOM     27  C   UNL     1       3.101  -3.414  -0.355  0.00  0.00    -0.080 C 
BRANCH  27  28
ATOM     28  C   UNL     1       3.470  -2.502   0.817  0.00  0.00    +0.009 C 
BRANCH  28  29
ATOM     29  C   UNL     1       4.561  -3.167   1.657  0.00  0.00    +0.157 C 
BRANCH  29  30
ATOM     30  O   UNL     1       4.906  -2.315   2.752  0.00  0.00    -0.383 OA
ATOM     31  C   UNL     1       5.923  -2.845   3.604  0.00  0.00    +0.193 C 
ENDBRANCH  29  30
ENDBRANCH  28  29
ENDBRANCH  27  28
ENDBRANCH  24  27
ENDBRANCH  23  24
ENDBRANCH   2  23
TORSDOF 9
