REMARK  Name = ZINC52841622
REMARK  4 active torsions:
REMARK  status: ('A' for Active; 'I' for Inactive)
REMARK    1  A    between atoms: C_6  and  O_7
REMARK    2  A    between atoms: O_7  and  C_8
REMARK    3  A    between atoms: C_11  and  N_15
REMARK    4  A    between atoms: C_13  and  N_14
REMARK                            x       y       z     vdW  Elec       q    Type
REMARK                         _______ _______ _______ _____ _____    ______ ____
ROOT
ATOM      1  C   UNL     1      -1.101  -2.054  -0.103  0.00  0.00    +0.149 A 
ATOM      2  C   UNL     1       0.129  -2.693  -0.111  0.00  0.00    +0.050 A 
ATOM      3  C   UNL     1       0.192  -4.069  -0.226  0.00  0.00    +0.036 A 
ATOM      4  C   UNL     1      -0.969  -4.812  -0.333  0.00  0.00    +0.128 A 
ATOM      5  C   UNL     1      -2.199  -4.183  -0.326  0.00  0.00    +0.059 A 
ATOM      6  C   UNL     1      -2.271  -2.803  -0.204  0.00  0.00    +0.070 A 
ENDROOT
BRANCH   6   7
ATOM      7  N   UNL     1      -3.516  -2.164  -0.191  0.00  0.00    -0.355 N 
ATOM      8  H   UNL     1      -3.565  -1.198  -0.110  0.00  0.00    +0.142 HD
ATOM      9  H   UNL     1      -4.330  -2.686  -0.261  0.00  0.00    +0.142 HD
ENDBRANCH   6   7
BRANCH   4  10
ATOM     10  N   UNL     1      -0.894  -6.285  -0.456  0.00  0.00    +0.056 N 
ATOM     11  O   UNL     1       0.182  -6.838  -0.463  0.00  0.00    -0.126 OA
ATOM     12  O   UNL     1      -1.908  -6.937  -0.550  0.00  0.00    -0.126 OA
ENDBRANCH   4  10
BRANCH   1  13
ATOM     13  O   UNL     1      -1.165  -0.701   0.010  0.00  0.00    -0.454 OA
BRANCH  13  19
ATOM     14  C   UNL     1       0.750   0.053  -1.184  0.00  0.00    +0.047 A 
ATOM     15  C   UNL     1       1.934   0.764  -1.210  0.00  0.00    +0.019 A 
ATOM     16  C   UNL     1       2.373   1.421  -0.074  0.00  0.00    +0.018 A 
ATOM     17  C   UNL     1       1.627   1.367   1.090  0.00  0.00    +0.019 A 
ATOM     18  C   UNL     1       0.443   0.657   1.121  0.00  0.00    +0.047 A 
ATOM     19  C   UNL     1       0.001  -0.002  -0.018  0.00  0.00    +0.129 A 
ATOM     20 BR   UNL     1       3.995   2.393  -0.112  0.00  0.00    -0.050 Br
ENDBRANCH  13  19
ENDBRANCH   1  13
TORSDOF 4
