REMARK  Name = ZINC02342230
REMARK  5 active torsions:
REMARK  status: ('A' for Active; 'I' for Inactive)
REMARK    1  A    between atoms: C_1  and  C_2
REMARK    2  A    between atoms: C_13  and  C_14
REMARK    3  A    between atoms: C_13  and  C_20
REMARK    4  A    between atoms: C_13  and  N_66
REMARK    5  A    between atoms: C_27  and  C_32
REMARK                            x       y       z     vdW  Elec       q    Type
REMARK                         _______ _______ _______ _____ _____    ______ ____
ROOT
ATOM      1  C   UNL     1       0.089   1.841   0.325  0.00  0.00    +0.066 C 
ATOM      2  C   UNL     1      -0.718   2.390   1.474  0.00  0.00    +0.054 A 
ATOM      3  C   UNL     1      -0.085   2.862   2.631  0.00  0.00    +0.060 A 
ATOM      4  C   UNL     1      -0.867   3.368   3.675  0.00  0.00    +0.058 A 
ATOM      5  N   UNL     1      -2.181   3.376   3.532  0.00  0.00    -0.219 NA
ATOM      6  C   UNL     1      -2.747   2.920   2.422  0.00  0.00    +0.218 A 
ATOM      7  N   UNL     1      -2.036   2.441   1.409  0.00  0.00    -0.219 NA
ATOM      8  N   UNL     1      -4.121   2.947   2.316  0.00  0.00    -0.303 N 
ATOM      9  C   UNL     1      -4.750   2.224   3.430  0.00  0.00    +0.089 C 
ATOM     10  C   UNL     1      -6.271   2.346   3.319  0.00  0.00    -0.058 C 
ATOM     11  C   UNL     1      -6.082   2.525   0.913  0.00  0.00    -0.058 C 
ATOM     12  C   UNL     1      -4.560   2.404   1.024  0.00  0.00    +0.089 C 
ATOM     13  C   UNL     1      -0.248   3.900   4.937  0.00  0.00    +0.065 C 
ATOM     14  C   UNL     1       1.151   3.325   5.149  0.00  0.00    +0.039 C 
ATOM     15  C   UNL     1       2.007   3.586   3.903  0.00  0.00    +0.088 C 
ATOM     16  C   UNL     1       1.379   2.824   2.753  0.00  0.00    +0.167 C 
ATOM     17  O   UNL     1       2.060   2.205   1.962  0.00  0.00    -0.292 OA
ATOM     18  N   UNL     1      -6.702   1.775   2.025  0.00  0.00    +0.389 N 
ATOM     19  H   UNL     1      -6.401   0.795   1.976  0.00  0.00    -0.080 HD
ENDROOT
BRANCH  14  20
ATOM     20  C   UNL     1       1.789   3.986   6.344  0.00  0.00    -0.006 A 
ATOM     21  C   UNL     1       2.230   3.424   7.496  0.00  0.00    +0.011 A 
ATOM     22  C   UNL     1       2.792   4.234   8.465  0.00  0.00    +0.008 A 
ATOM     23  C   UNL     1       2.875   5.568   8.239  0.00  0.00    +0.045 A 
ATOM     24  S   UNL     1       2.153   5.713   6.613  0.00  0.00    -0.101 S 
ENDBRANCH  14  20
BRANCH  18  25
ATOM     25  C   UNL     1      -8.175   1.831   1.913  0.00  0.00    -0.007 C 
BRANCH  25  26
ATOM     26  C   UNL     1      -8.589   1.243   0.589  0.00  0.00    -0.057 A 
ATOM     27  C   UNL     1      -7.991   0.084   0.131  0.00  0.00    +0.002 A 
ATOM     28  C   UNL     1      -8.374  -0.459  -1.082  0.00  0.00    +0.000 A 
ATOM     29  C   UNL     1      -9.347   0.164  -1.841  0.00  0.00    +0.000 A 
ATOM     30  C   UNL     1      -9.941   1.326  -1.385  0.00  0.00    +0.000 A 
ATOM     31  C   UNL     1      -9.562   1.866  -0.170  0.00  0.00    +0.002 A 
ENDBRANCH  25  26
BRANCH  25  32
ATOM     32  C   UNL     1      -8.782   1.025   3.033  0.00  0.00    -0.057 A 
ATOM     33  C   UNL     1      -8.255  -0.210   3.359  0.00  0.00    +0.002 A 
ATOM     34  C   UNL     1      -8.808  -0.948   4.389  0.00  0.00    +0.000 A 
ATOM     35  C   UNL     1      -9.895  -0.454   5.086  0.00  0.00    +0.000 A 
ATOM     36  C   UNL     1     -10.426   0.779   4.756  0.00  0.00    +0.000 A 
ATOM     37  C   UNL     1      -9.869   1.519   3.729  0.00  0.00    +0.002 A 
ENDBRANCH  25  32
ENDBRANCH  18  25
TORSDOF 4
