REMARK  Name = ZINC63165362
REMARK  7 active torsions:
REMARK  status: ('A' for Active; 'I' for Inactive)
REMARK    1  A    between atoms: C_1  and  C_2
REMARK    2  A    between atoms: C_5  and  C_15
REMARK    3  A    between atoms: C_6  and  C_14
REMARK    4  A    between atoms: N_7  and  C_8
REMARK    5  A    between atoms: C_8  and  C_9
REMARK    6  A    between atoms: C_21  and  C_23
REMARK    7  A    between atoms: C_23  and  C_24
REMARK                            x       y       z     vdW  Elec       q    Type
REMARK                         _______ _______ _______ _____ _____    ______ ____
ROOT
ATOM      1  C   UNL     1      -2.286  -2.250   2.246  0.00  0.00    +0.078 A 
ATOM      2  C   UNL     1      -1.948  -2.963   3.365  0.00  0.00    +0.076 A 
ATOM      3  S   UNL     1      -3.513  -3.724   3.762  0.00  0.00    -0.060 S 
ATOM      4  C   UNL     1      -4.420  -3.078   2.501  0.00  0.00    +0.165 A 
ATOM      5  N   UNL     1      -3.556  -2.336   1.848  0.00  0.00    -0.225 NA
ATOM      6  N   UNL     1      -5.766  -3.279   2.220  0.00  0.00    -0.264 N 
ATOM      7  C   UNL     1      -6.508  -4.079   3.012  0.00  0.00    +0.223 C 
ATOM      8  O   UNL     1      -6.001  -4.623   3.969  0.00  0.00    -0.275 OA
ATOM      9  H   UNL     1      -6.172  -2.844   1.454  0.00  0.00    +0.157 HD
ENDROOT
BRANCH   1  13
ATOM     10  C   UNL     1       1.879  -0.942   0.156  0.00  0.00    +0.028 C 
ATOM     11  C   UNL     1       0.701  -0.262   0.856  0.00  0.00    +0.075 C 
ATOM     12  C   UNL     1       0.128  -1.174   1.958  0.00  0.00    +0.061 C 
ATOM     13  C   UNL     1      -1.298  -1.424   1.522  0.00  0.00    -0.003 C 
ATOM     14  C   UNL     1      -1.517  -0.781   0.381  0.00  0.00    +0.009 C 
ATOM     15  N   UNL     1      -0.418  -0.079  -0.080  0.00  0.00    -0.323 N 
ATOM     16  C   UNL     1      -2.839  -0.810  -0.342  0.00  0.00    +0.061 C 
BRANCH  15  17
ATOM     17  C   UNL     1      -0.374   0.720  -1.307  0.00  0.00    +0.179 C 
BRANCH  17  18
ATOM     18  C   UNL     1       0.064  -0.151  -2.457  0.00  0.00    +0.122 A 
ATOM     19  C   UNL     1      -0.749  -0.856  -3.264  0.00  0.00    +0.046 A 
ATOM     20  C   UNL     1       0.078  -1.522  -4.197  0.00  0.00    +0.041 A 
ATOM     21  C   UNL     1       1.347  -1.185  -3.904  0.00  0.00    +0.195 A 
ATOM     22  O   UNL     1       1.332  -0.349  -2.853  0.00  0.00    -0.466 OA
ENDBRANCH  17  18
ENDBRANCH  15  17
ENDBRANCH   1  13
BRANCH   7  23
ATOM     23  C   UNL     1      -7.968  -4.297   2.707  0.00  0.00    +0.129 C 
BRANCH  23  24
ATOM     24  C   UNL     1      -8.562  -5.225   3.735  0.00  0.00    -0.033 C 
ATOM     25  C   UNL     1      -9.227  -4.873   4.859  0.00  0.00    -0.001 A 
ATOM     26  C   UNL     1      -9.580  -3.573   5.441  0.00  0.00    +0.010 A 
ATOM     27  C   UNL     1     -10.264  -3.539   6.606  0.00  0.00    +0.001 A 
ATOM     28  C   UNL     1     -10.644  -4.713   7.272  0.00  0.00    +0.002 A 
ATOM     29  C   UNL     1     -10.356  -5.944   6.801  0.00  0.00    +0.026 A 
ATOM     30  C   UNL     1      -9.640  -6.098   5.582  0.00  0.00    +0.043 A 
ATOM     31  N   UNL     1      -9.246  -7.165   4.929  0.00  0.00    -0.380 N 
ATOM     32  C   UNL     1      -8.543  -6.737   3.714  0.00  0.00    +0.145 C 
ATOM     33  H   UNL     1      -9.398  -8.083   5.201  0.00  0.00    +0.160 HD
ENDBRANCH  23  24
ENDBRANCH   7  23
TORSDOF 5
