REMARK  Name = ZINC20569570
REMARK  11 active torsions:
REMARK  status: ('A' for Active; 'I' for Inactive)
REMARK    1  A    between atoms: C_1  and  C_2
REMARK    2  A    between atoms: C_7  and  C_21
REMARK    3  A    between atoms: C_9  and  C_13
REMARK    4  A    between atoms: C_10  and  C_12
REMARK    5  A    between atoms: C_13  and  O_15
REMARK    6  A    between atoms: O_15  and  C_16
REMARK    7  A    between atoms: C_26  and  O_27
REMARK    8  A    between atoms: O_27  and  C_28
REMARK    9  A    between atoms: C_31  and  C_33
REMARK   10  A    between atoms: C_33  and  O_35
REMARK   11  A    between atoms: O_35  and  C_36
REMARK                            x       y       z     vdW  Elec       q    Type
REMARK                         _______ _______ _______ _____ _____    ______ ____
ROOT
ATOM      1  C   UNL     1       5.117   3.840   0.760  0.00  0.00    +0.009 C 
ATOM      2  C   UNL     1       3.764   3.126   0.781  0.00  0.00    +0.013 C 
ATOM      3  C   UNL     1       3.728   2.060  -0.317  0.00  0.00    +0.055 C 
ATOM      4  C   UNL     1       2.376   1.391  -0.328  0.00  0.00    +0.016 C 
ATOM      5  C   UNL     1       1.263   2.065   0.031  0.00  0.00    +0.025 C 
ATOM      6  C   UNL     1      -0.088   1.395  -0.001  0.00  0.00    +0.096 C 
ATOM      7  C   UNL     1       0.053  -0.098  -0.036  0.00  0.00    +0.065 C 
ATOM      8  C   UNL     1       1.212  -0.681  -0.387  0.00  0.00    +0.016 C 
ATOM      9  N   UNL     1       2.299   0.080  -0.715  0.00  0.00    -0.321 N 
ATOM     10  C   UNL     1       1.315  -2.184  -0.417  0.00  0.00    +0.061 C 
ATOM     11  C   UNL     1       1.330   3.407   0.447  0.00  0.00    +0.176 C 
ATOM     12  O   UNL     1       0.309   3.987   0.757  0.00  0.00    -0.291 OA
ATOM     13  C   UNL     1       2.644   4.137   0.514  0.00  0.00    +0.171 C 
ATOM     14  H   UNL     1       3.117  -0.370  -1.297  0.00  0.00    +0.152 HD
ENDROOT
BRANCH   6  15
ATOM     15  C   UNL     1      -0.837   1.851  -1.226  0.00  0.00    +0.006 A 
ATOM     16  C   UNL     1      -0.330   1.589  -2.484  0.00  0.00    +0.008 A 
ATOM     17  C   UNL     1      -1.017   2.006  -3.609  0.00  0.00    +0.001 A 
ATOM     18  C   UNL     1      -2.213   2.687  -3.478  0.00  0.00    +0.004 A 
ATOM     19  C   UNL     1      -2.726   2.950  -2.222  0.00  0.00    +0.046 A 
ATOM     20  C   UNL     1      -2.040   2.529  -1.092  0.00  0.00    +0.124 A 
BRANCH  20  21
ATOM     21  O   UNL     1      -2.544   2.783   0.144  0.00  0.00    -0.495 OA
ATOM     22  C   UNL     1      -3.787   3.485   0.206  0.00  0.00    +0.277 C 
ENDBRANCH  20  21
ENDBRANCH   6  15
BRANCH   7  23
ATOM     23  C   UNL     1      -1.055  -0.907   0.307  0.00  0.00    +0.338 C 
ATOM     24  O   UNL     1      -0.988  -2.116   0.181  0.00  0.00    -0.245 OA
BRANCH  23  25
ATOM     25  O   UNL     1      -2.187  -0.340   0.774  0.00  0.00    -0.458 OA
BRANCH  25  26
ATOM     26  C   UNL     1      -3.266  -1.218   1.101  0.00  0.00    +0.177 C 
ATOM     27  C   UNL     1      -4.196  -1.387  -0.117  0.00  0.00    +0.044 C 
ATOM     28  C   UNL     1      -5.617  -1.455   0.497  0.00  0.00    +0.004 C 
ATOM     29  C   UNL     1      -5.540  -0.426   1.652  0.00  0.00    +0.004 C 
ATOM     30  C   UNL     1      -4.120  -0.607   2.226  0.00  0.00    +0.044 C 
ENDBRANCH  25  26
ENDBRANCH  23  25
ENDBRANCH   7  23
BRANCH  13  31
ATOM     31  C   UNL     1       2.602   5.149   1.631  0.00  0.00    +0.318 C 
ATOM     32  O   UNL     1       3.386   5.071   2.546  0.00  0.00    -0.250 OA
BRANCH  31  33
ATOM     33  O   UNL     1       1.693   6.136   1.607  0.00  0.00    -0.467 OA
ATOM     34  C   UNL     1       1.710   7.074   2.716  0.00  0.00    +0.280 C 
ENDBRANCH  31  33
ENDBRANCH  13  31
TORSDOF 7
