REMARK  Name = ZINC13213946
REMARK  8 active torsions:
REMARK  status: ('A' for Active; 'I' for Inactive)
REMARK    1  A    between atoms: C_1  and  C_2
REMARK    2  A    between atoms: C_2  and  C_3
REMARK    3  A    between atoms: C_6  and  C_12
REMARK    4  A    between atoms: C_8  and  N_9
REMARK    5  A    between atoms: C_14  and  C_29
REMARK    6  A    between atoms: N_18  and  C_19
REMARK    7  A    between atoms: C_23  and  C_25
REMARK    8  A    between atoms: C_29  and  C_31
REMARK                            x       y       z     vdW  Elec       q    Type
REMARK                         _______ _______ _______ _____ _____    ______ ____
ROOT
ATOM      1  C   UNL     1      -5.346  -1.991   0.043  0.00  0.00    +0.150 C 
ATOM      2  C   UNL     1      -5.404  -3.491   0.214  0.00  0.00    +0.077 C 
ATOM      3  C   UNL     1      -6.110  -3.728   1.344  0.00  0.00    +0.250 C 
ATOM      4  C   UNL     1      -6.527  -2.441   1.936  0.00  0.00    +0.292 C 
ATOM      5  O   UNL     1      -7.176  -2.320   2.956  0.00  0.00    -0.266 OA
ATOM      6  N   UNL     1      -6.083  -1.420   1.177  0.00  0.00    -0.253 N 
ATOM      7  O   UNL     1      -6.390  -4.951   1.851  0.00  0.00    -0.282 OA
ENDROOT
BRANCH   1  11
ATOM      8  C   UNL     1      -1.287  -0.662   0.108  0.00  0.00    -0.017 A 
ATOM      9  C   UNL     1      -1.896  -1.082   1.277  0.00  0.00    +0.006 A 
ATOM     10  C   UNL     1      -3.209  -1.512   1.256  0.00  0.00    +0.006 A 
ATOM     11  C   UNL     1      -3.915  -1.521   0.067  0.00  0.00    -0.020 A 
ATOM     12  C   UNL     1      -3.306  -1.100  -1.101  0.00  0.00    +0.038 A 
ATOM     13  C   UNL     1      -1.994  -0.666  -1.079  0.00  0.00    +0.130 A 
BRANCH  13  14
ATOM     14  N   UNL     1      -1.344  -0.211  -2.329  0.00  0.00    +0.057 N 
ATOM     15  O   UNL     1      -1.986  -0.133  -3.350  0.00  0.00    -0.126 OA
ATOM     16  O   UNL     1      -0.171   0.083  -2.328  0.00  0.00    -0.126 OA
ENDBRANCH  13  14
BRANCH   8  18
ATOM     17  C   UNL     1       0.182   1.336   0.096  0.00  0.00    +0.009 C 
ATOM     18  C   UNL     1       0.145  -0.193   0.132  0.00  0.00    +0.034 C 
ENDBRANCH   8  18
ENDBRANCH   1  11
BRANCH   6  19
ATOM     19  C   UNL     1      -6.286  -0.060   1.426  0.00  0.00    +0.038 A 
ATOM     20  C   UNL     1      -5.771   0.891   0.551  0.00  0.00    +0.023 A 
ATOM     21  C   UNL     1      -5.969   2.238   0.791  0.00  0.00    +0.003 A 
ATOM     22  C   UNL     1      -6.678   2.649   1.901  0.00  0.00    +0.015 A 
ATOM     23  C   UNL     1      -7.200   1.702   2.787  0.00  0.00    +0.065 A 
ATOM     24  C   UNL     1      -7.005   0.342   2.541  0.00  0.00    +0.038 A 
BRANCH  23  25
ATOM     25  C   UNL     1      -7.959   2.138   3.975  0.00  0.00    +0.387 C 
ATOM     26  O   UNL     1      -8.132   3.330   4.186  0.00  0.00    -0.241 OA
ATOM     27  O   UNL     1      -8.414   1.308   4.749  0.00  0.00    -0.241 OA
ENDBRANCH  23  25
ENDBRANCH   6  19
BRANCH   2  28
ATOM     28  C   UNL     1      -4.810  -4.495  -0.674  0.00  0.00    +0.198 C 
ATOM     29  O   UNL     1      -3.891  -5.188  -0.280  0.00  0.00    -0.287 OA
BRANCH  28  30
ATOM     30  C   UNL     1      -5.328  -4.665  -2.047  0.00  0.00    +0.057 A 
ATOM     31  C   UNL     1      -6.324  -3.814  -2.533  0.00  0.00    +0.014 A 
ATOM     32  C   UNL     1      -6.802  -3.979  -3.815  0.00  0.00    +0.001 A 
ATOM     33  C   UNL     1      -6.300  -4.985  -4.623  0.00  0.00    +0.003 A 
ATOM     34  C   UNL     1      -5.314  -5.832  -4.152  0.00  0.00    +0.039 A 
ATOM     35  C   UNL     1      -4.819  -5.676  -2.870  0.00  0.00    +0.134 A 
ATOM     36  F   UNL     1      -3.852  -6.501  -2.411  0.00  0.00    -0.205 F 
ENDBRANCH  28  30
ENDBRANCH   2  28
TORSDOF 7
