REMARK  Name = ZINC09124431
REMARK  8 active torsions:
REMARK  status: ('A' for Active; 'I' for Inactive)
REMARK    1  A    between atoms: C_1  and  S_2
REMARK    2  A    between atoms: S_2  and  C_3
REMARK    3  A    between atoms: C_6  and  C_9
REMARK    4  A    between atoms: C_12  and  C_28
REMARK    5  A    between atoms: N_19  and  C_20
REMARK    6  A    between atoms: C_20  and  C_21
REMARK    7  A    between atoms: C_21  and  C_22
REMARK    8  A    between atoms: C_33  and  O_34
REMARK                            x       y       z     vdW  Elec       q    Type
REMARK                         _______ _______ _______ _____ _____    ______ ____
ROOT
ATOM      1  C   UNL     1       2.901  -1.397  -5.106  0.00  0.00    +0.141 C 
ATOM      2  C   UNL     1       1.915  -1.813  -6.162  0.00  0.00    +0.035 A 
ATOM      3  C   UNL     1       0.847  -1.477  -6.932  0.00  0.00    +0.075 A 
ATOM      4  N   UNL     1       0.560  -2.569  -7.701  0.00  0.00    -0.276 N 
ATOM      5  H   UNL     1      -0.159  -2.619  -8.350  0.00  0.00    +0.189 HD
ATOM      6  N   UNL     1       1.383  -3.520  -7.437  0.00  0.00    -0.168 NA
ATOM      7  C   UNL     1       2.242  -3.143  -6.510  0.00  0.00    +0.153 A 
ATOM      8  C   UNL     1       3.401  -3.552  -5.697  0.00  0.00    +0.268 C 
ATOM      9  O   UNL     1       3.936  -4.643  -5.750  0.00  0.00    -0.268 OA
ATOM     10  N   UNL     1       3.784  -2.549  -4.886  0.00  0.00    -0.285 N 
ENDROOT
BRANCH   1  14
ATOM     11  C   UNL     1       0.848  -0.411  -1.489  0.00  0.00    +0.008 A 
ATOM     12  C   UNL     1       1.315   0.599  -2.322  0.00  0.00    +0.015 A 
ATOM     13  C   UNL     1       1.978   0.276  -3.490  0.00  0.00    +0.007 A 
ATOM     14  C   UNL     1       2.178  -1.049  -3.830  0.00  0.00    -0.022 A 
ATOM     15  C   UNL     1       1.714  -2.056  -3.004  0.00  0.00    +0.007 A 
ATOM     16  C   UNL     1       1.056  -1.742  -1.831  0.00  0.00    +0.015 A 
BRANCH  11  18
ATOM     17  C   UNL     1      -0.022   1.810   0.012  0.00  0.00    +0.090 C 
ATOM     18  S   UNL     1       0.002  -0.004   0.002  0.00  0.00    -0.129 S 
ENDBRANCH  11  18
ENDBRANCH   1  14
BRANCH   3  19
ATOM     19  C   UNL     1       0.134  -0.181  -6.936  0.00  0.00    +0.042 A 
ATOM     20  C   UNL     1      -1.194  -0.110  -6.516  0.00  0.00    +0.013 A 
ATOM     21  C   UNL     1      -1.853   1.101  -6.521  0.00  0.00    +0.001 A 
ATOM     22  C   UNL     1      -1.203   2.248  -6.943  0.00  0.00    +0.004 A 
ATOM     23  C   UNL     1       0.113   2.189  -7.363  0.00  0.00    +0.046 A 
ATOM     24  C   UNL     1       0.790   0.981  -7.357  0.00  0.00    +0.126 A 
BRANCH  24  25
ATOM     25  O   UNL     1       2.086   0.924  -7.763  0.00  0.00    -0.506 OA
ATOM     26  H   UNL     1       2.194   0.758  -8.710  0.00  0.00    +0.292 HD
ENDBRANCH  24  25
ENDBRANCH   3  19
BRANCH  10  27
ATOM     27  C   UNL     1       4.900  -2.597  -3.939  0.00  0.00    +0.114 C 
BRANCH  27  28
ATOM     28  C   UNL     1       4.398  -3.101  -2.584  0.00  0.00    +0.054 C 
BRANCH  28  29
ATOM     29  C   UNL     1       5.547  -3.151  -1.610  0.00  0.00    -0.046 A 
ATOM     30  C   UNL     1       6.310  -4.298  -1.499  0.00  0.00    +0.004 A 
ATOM     31  C   UNL     1       7.364  -4.343  -0.605  0.00  0.00    +0.000 A 
ATOM     32  C   UNL     1       7.654  -3.242   0.178  0.00  0.00    +0.000 A 
ATOM     33  C   UNL     1       6.891  -2.094   0.066  0.00  0.00    +0.000 A 
ATOM     34  C   UNL     1       5.840  -2.047  -0.831  0.00  0.00    +0.004 A 
ENDBRANCH  28  29
ENDBRANCH  27  28
ENDBRANCH  10  27
TORSDOF 7
