REMARK  Name = ZINC13567186
REMARK  7 active torsions:
REMARK  status: ('A' for Active; 'I' for Inactive)
REMARK    1  A    between atoms: C_1  and  C_2
REMARK    2  A    between atoms: C_2  and  O_3
REMARK    3  A    between atoms: O_3  and  C_4
REMARK    4  A    between atoms: C_9  and  C_10
REMARK    5  A    between atoms: C_15  and  C_20
REMARK    6  A    between atoms: C_26  and  C_37
REMARK    7  A    between atoms: C_27  and  C_28
REMARK                            x       y       z     vdW  Elec       q    Type
REMARK                         _______ _______ _______ _____ _____    ______ ____
ROOT
ATOM      1  C   UNL     1      -0.519   7.980   0.375  0.00  0.00    +0.094 C 
ATOM      2  C   UNL     1      -0.394   9.389   0.901  0.00  0.00    +0.024 C 
ATOM      3  C   UNL     1       0.789  10.040   0.855  0.00  0.00    +0.016 C 
ATOM      4  C   UNL     1       0.921  11.450   1.372  0.00  0.00    +0.062 C 
ATOM      5  C   UNL     1      -0.406  12.190   1.192  0.00  0.00    +0.068 C 
ATOM      6  C   UNL     1      -1.498  11.420   1.942  0.00  0.00    +0.091 C 
ATOM      7  C   UNL     1      -1.541  10.007   1.429  0.00  0.00    +0.162 C 
ATOM      8  O   UNL     1      -2.586   9.388   1.471  0.00  0.00    -0.292 OA
ATOM      9  N   UNL     1       1.898   9.426   0.338  0.00  0.00    -0.321 N 
ATOM     10  C   UNL     1       1.956   8.064   0.232  0.00  0.00    +0.014 C 
ATOM     11  C   UNL     1       0.829   7.332   0.252  0.00  0.00    +0.043 C 
ATOM     12  C   UNL     1       3.291   7.379   0.094  0.00  0.00    +0.061 C 
ATOM     13  H   UNL     1       2.755  10.030   0.004  0.00  0.00    +0.152 HD
ENDROOT
BRANCH  11  14
ATOM     14  C   UNL     1       0.915   5.922   0.149  0.00  0.00    +0.248 C 
ATOM     15  O   UNL     1       2.004   5.377   0.147  0.00  0.00    -0.270 OA
ATOM     16  N   UNL     1      -0.208   5.184   0.052  0.00  0.00    -0.267 N 
ATOM     17  C   UNL     1      -0.130   3.793   0.058  0.00  0.00    +0.125 A 
ATOM     18  C   UNL     1      -1.297   3.037   0.067  0.00  0.00    +0.044 A 
ATOM     19  C   UNL     1      -1.205   1.657   0.073  0.00  0.00    +0.005 A 
ATOM     20  C   UNL     1       0.056   1.077   0.070  0.00  0.00    +0.020 A 
ATOM     21  C   UNL     1       1.173   1.889   0.066  0.00  0.00    +0.113 A 
ATOM     22  N   UNL     1       1.055   3.203   0.055  0.00  0.00    -0.240 NA
ATOM     23  H   UNL     1      -1.187   5.679  -0.031  0.00  0.00    +0.157 HD
ENDBRANCH  11  14
BRANCH   1  29
ATOM     24  C   UNL     1      -2.389   7.359  -1.176  0.00  0.00    +0.125 A 
ATOM     25  C   UNL     1      -2.997   7.391  -2.422  0.00  0.00    +0.046 A 
ATOM     26  C   UNL     1      -2.391   8.061  -3.468  0.00  0.00    +0.004 A 
ATOM     27  C   UNL     1      -1.182   8.703  -3.271  0.00  0.00    +0.001 A 
ATOM     28  C   UNL     1      -0.577   8.677  -2.029  0.00  0.00    +0.008 A 
ATOM     29  C   UNL     1      -1.179   8.008  -0.980  0.00  0.00    +0.006 A 
BRANCH  24  30
ATOM     30  O   UNL     1      -2.980   6.696  -0.147  0.00  0.00    -0.492 OA
BRANCH  30  32
ATOM     31  C   UNL     1      -4.733   5.362   0.847  0.00  0.00    +0.048 C 
ATOM     32  C   UNL     1      -4.225   6.050  -0.422  0.00  0.00    +0.225 C 
ENDBRANCH  30  32
ENDBRANCH  24  30
ENDBRANCH   1  29
BRANCH   5  33
ATOM     33  C   UNL     1      -0.289  13.585   1.751  0.00  0.00    +0.109 A 
ATOM     34  C   UNL     1      -0.450  14.726   1.058  0.00  0.00    +0.045 A 
ATOM     35  C   UNL     1      -0.255  15.790   1.970  0.00  0.00    +0.041 A 
ATOM     36  C   UNL     1       0.022  15.234   3.163  0.00  0.00    +0.195 A 
ATOM     37  O   UNL     1       0.000  13.898   3.025  0.00  0.00    -0.468 OA
ENDBRANCH   5  33
TORSDOF 5
