REMARK  Name = ZINC01234693
REMARK  8 active torsions:
REMARK  status: ('A' for Active; 'I' for Inactive)
REMARK    1  A    between atoms: C_1  and  O_2
REMARK    2  A    between atoms: O_2  and  C_3
REMARK    3  A    between atoms: C_6  and  O_10
REMARK    4  A    between atoms: O_10  and  C_11
REMARK    5  A    between atoms: C_11  and  C_12
REMARK    6  A    between atoms: N_14  and  N_15
REMARK    7  A    between atoms: C_16  and  C_17
REMARK    8  A    between atoms: C_20  and  N_22
REMARK                            x       y       z     vdW  Elec       q    Type
REMARK                         _______ _______ _______ _____ _____    ______ ____
ROOT
ATOM      1  C   UNL     1      -1.722   5.793   0.042  0.00  0.00    +0.270 C 
ATOM      2  O   UNL     1      -0.599   6.239   0.039  0.00  0.00    -0.270 OA
ATOM      3  N   UNL     1      -1.918   4.460   0.036  0.00  0.00    -0.204 N 
ATOM      4  H   UNL     1      -2.820   4.102   0.038  0.00  0.00    +0.177 HD
ENDROOT
BRANCH   3   5
ATOM      5  N   UNL     1      -0.906   3.659   0.026  0.00  0.00    -0.187 NA
ATOM      6  C   UNL     1      -1.101   2.335   0.020  0.00  0.00    +0.145 C 
BRANCH   6   7
ATOM      7  C   UNL     1      -0.018   1.479   0.010  0.00  0.00    +0.034 A 
ATOM      8  C   UNL     1       0.002  -0.004   0.002  0.00  0.00    +0.019 A 
ATOM      9  C   UNL     1       1.210  -0.565  -0.013  0.00  0.00    +0.041 A 
ATOM     10  C   UNL     1       2.355   0.251  -0.019  0.00  0.00    +0.164 A 
ATOM     11  S   UNL     1       1.724   1.866  -0.004  0.00  0.00    -0.064 S 
BRANCH  10  12
ATOM     12  N   UNL     1       3.788  -0.175  -0.035  0.00  0.00    +0.063 N 
ATOM     13  O   UNL     1       4.094  -1.456  -0.045  0.00  0.00    -0.126 OA
ATOM     14  O   UNL     1       4.744   0.730  -0.039  0.00  0.00    -0.126 OA
ENDBRANCH  10  12
ENDBRANCH   6   7
ENDBRANCH   3   5
BRANCH   1  15
ATOM     15  C   UNL     1      -2.904   6.728   0.053  0.00  0.00    +0.326 C 
BRANCH  15  16
ATOM     16  O   UNL     1      -2.442   8.080   0.058  0.00  0.00    -0.482 OA
BRANCH  16  20
ATOM     17  C   UNL     1      -5.316  11.044   0.090  0.00  0.00    +0.121 A 
ATOM     18  C   UNL     1      -5.695   9.710   0.084  0.00  0.00    +0.049 A 
ATOM     19  C   UNL     1      -4.734   8.718   0.073  0.00  0.00    +0.050 A 
ATOM     20  C   UNL     1      -3.389   9.057   0.068  0.00  0.00    +0.134 A 
ATOM     21  C   UNL     1      -3.009  10.391   0.079  0.00  0.00    +0.058 A 
ATOM     22  C   UNL     1      -3.971  11.383   0.085  0.00  0.00    +0.063 A 
ATOM     23  I   UNL     1      -0.977  10.902   0.081  0.00  0.00    -0.040 I 
BRANCH  17  25
ATOM     24  C   UNL     1      -5.801  13.372   0.106  0.00  0.00    +0.277 C 
ATOM     25  O   UNL     1      -6.263  12.020   0.101  0.00  0.00    -0.495 OA
ENDBRANCH  17  25
ENDBRANCH  16  20
ENDBRANCH  15  16
ENDBRANCH   1  15
TORSDOF 7
