REMARK  Name = ZINC12997069
REMARK  8 active torsions:
REMARK  status: ('A' for Active; 'I' for Inactive)
REMARK    1  A    between atoms: C_1  and  C_2
REMARK    2  A    between atoms: C_2  and  C_4
REMARK    3  A    between atoms: C_2  and  N_6
REMARK    4  A    between atoms: C_7  and  C_28
REMARK    5  A    between atoms: C_10  and  S_11
REMARK    6  A    between atoms: S_11  and  C_12
REMARK    7  A    between atoms: C_12  and  C_13
REMARK    8  A    between atoms: C_19  and  C_21
REMARK                            x       y       z     vdW  Elec       q    Type
REMARK                         _______ _______ _______ _____ _____    ______ ____
ROOT
ATOM      1  S   UNL     1      -2.717  -2.924   0.302  0.00  0.00    -0.077 S 
ENDROOT
BRANCH   1   6
ATOM      2  N   UNL     1      -3.244  -5.672   0.357  0.00  0.00    -0.288 N 
ATOM      3  C   UNL     1      -2.500  -6.827   0.262  0.00  0.00    +0.172 A 
ATOM      4  N   UNL     1      -1.244  -6.465   0.120  0.00  0.00    -0.128 NA
ATOM      5  N   UNL     1      -1.155  -5.183   0.115  0.00  0.00    -0.122 NA
ATOM      6  C   UNL     1      -2.346  -4.646   0.253  0.00  0.00    +0.193 A 
BRANCH   3   7
ATOM      7  C   UNL     1      -3.013  -8.206   0.316  0.00  0.00    +0.056 A 
ATOM      8  C   UNL     1      -2.325  -9.377   0.510  0.00  0.00    +0.019 A 
ATOM      9  C   UNL     1      -3.028 -10.561   0.521  0.00  0.00    +0.008 A 
ATOM     10  C   UNL     1      -4.374 -10.535   0.340  0.00  0.00    +0.046 A 
ATOM     11  S   UNL     1      -4.693  -8.788   0.152  0.00  0.00    -0.094 S 
ENDBRANCH   3   7
BRANCH   2  13
ATOM     12  C   UNL     1      -5.296  -4.805  -0.654  0.00  0.00    +0.043 C 
ATOM     13  C   UNL     1      -4.695  -5.565   0.530  0.00  0.00    +0.201 C 
BRANCH  13  14
ATOM     14  C   UNL     1      -4.995  -4.822   1.807  0.00  0.00    +0.378 C 
ATOM     15  O   UNL     1      -5.624  -3.792   1.773  0.00  0.00    -0.244 OA
ATOM     16  O   UNL     1      -4.562  -5.306   2.982  0.00  0.00    -0.244 OA
ENDBRANCH  13  14
ENDBRANCH   2  13
ENDBRANCH   1   6
BRANCH   1  17
ATOM     17  C   UNL     1      -1.052  -2.239   0.114  0.00  0.00    +0.173 C 
BRANCH  17  18
ATOM     18  C   UNL     1      -1.124  -0.734   0.128  0.00  0.00    +0.227 C 
ATOM     19  O   UNL     1      -2.195  -0.179   0.253  0.00  0.00    -0.275 OA
ATOM     20  N   UNL     1       0.002  -0.004   0.002  0.00  0.00    -0.284 N 
ATOM     21  C   UNL     1       1.314  -0.627  -0.151  0.00  0.00    +0.120 C 
ATOM     22  C   UNL     1       2.424   0.256   0.491  0.00  0.00    +0.090 C 
ATOM     23  S   UNL     1       1.771   1.914  -0.005  0.00  0.00    -0.132 S 
ATOM     24  C   UNL     1      -0.018   1.471   0.010  0.00  0.00    +0.167 C 
BRANCH  24  25
ATOM     25  C   UNL     1      -0.708   2.001  -1.221  0.00  0.00    +0.018 A 
ATOM     26  C   UNL     1      -1.474   1.156  -2.002  0.00  0.00    +0.009 A 
ATOM     27  C   UNL     1      -2.111   1.643  -3.127  0.00  0.00    +0.001 A 
ATOM     28  C   UNL     1      -1.974   2.973  -3.480  0.00  0.00    +0.003 A 
ATOM     29  C   UNL     1      -1.204   3.818  -2.704  0.00  0.00    +0.039 A 
ATOM     30  C   UNL     1      -0.570   3.333  -1.572  0.00  0.00    +0.129 A 
ATOM     31  F   UNL     1       0.183   4.158  -0.813  0.00  0.00    -0.205 F 
ENDBRANCH  24  25
ENDBRANCH  17  18
ENDBRANCH   1  17
TORSDOF 7
