REMARK  Name = ZINC08788468
REMARK  10 active torsions:
REMARK  status: ('A' for Active; 'I' for Inactive)
REMARK    1  A    between atoms: C_1  and  C_2
REMARK    2  A    between atoms: C_2  and  C_3
REMARK    3  A    between atoms: C_2  and  C_4
REMARK    4  A    between atoms: C_9  and  O_10
REMARK    5  A    between atoms: O_10  and  C_11
REMARK    6  A    between atoms: C_17  and  O_26
REMARK    7  A    between atoms: C_21  and  C_22
REMARK    8  A    between atoms: O_26  and  C_27
REMARK    9  A    between atoms: C_27  and  C_29
REMARK   10  A    between atoms: C_34  and  N_35
REMARK                            x       y       z     vdW  Elec       q    Type
REMARK                         _______ _______ _______ _____ _____    ______ ____
ROOT
ATOM      1  C   UNL     1       2.653   0.429  -0.343  0.00  0.00    +0.222 A 
ATOM      2  C   UNL     1       1.509  -0.409  -0.221  0.00  0.00    +0.235 A 
ATOM      3  O   UNL     1       1.612  -1.623  -0.176  0.00  0.00    -0.283 OA
ATOM      4  C   UNL     1       0.194   0.253  -0.151  0.00  0.00    +0.068 A 
ATOM      5  C   UNL     1      -0.985  -0.484  -0.031  0.00  0.00    +0.019 A 
ATOM      6  C   UNL     1      -2.186   0.164   0.031  0.00  0.00    +0.047 A 
ATOM      7  C   UNL     1      -2.239   1.556  -0.025  0.00  0.00    +0.135 A 
ATOM      8  C   UNL     1      -1.078   2.301  -0.139  0.00  0.00    +0.093 A 
ATOM      9  C   UNL     1       0.150   1.657  -0.208  0.00  0.00    +0.143 A 
ATOM     10  O   UNL     1       1.296   2.358  -0.325  0.00  0.00    -0.447 OA
ATOM     11  C   UNL     1       2.496   1.767  -0.389  0.00  0.00    +0.254 A 
ENDROOT
BRANCH  11  12
ATOM     12  C   UNL     1       3.722   2.634  -0.518  0.00  0.00    +0.454 C 
ATOM     13  F   UNL     1       4.003   2.846  -1.872  0.00  0.00    -0.163 F 
ATOM     14  F   UNL     1       3.491   3.864   0.108  0.00  0.00    -0.163 F 
ATOM     15  F   UNL     1       4.809   1.998   0.090  0.00  0.00    -0.163 F 
ENDBRANCH  11  12
BRANCH   1  16
ATOM     16  O   UNL     1       3.898  -0.117  -0.412  0.00  0.00    -0.448 OA
BRANCH  16  22
ATOM     17  C   UNL     1       5.657  -0.984  -1.760  0.00  0.00    -0.003 A 
ATOM     18  C   UNL     1       6.157  -1.296  -3.009  0.00  0.00    +0.007 A 
ATOM     19  C   UNL     1       5.398  -1.053  -4.139  0.00  0.00    +0.001 A 
ATOM     20  C   UNL     1       4.138  -0.496  -4.022  0.00  0.00    +0.004 A 
ATOM     21  C   UNL     1       3.631  -0.186  -2.775  0.00  0.00    +0.046 A 
ATOM     22  C   UNL     1       4.392  -0.425  -1.639  0.00  0.00    +0.132 A 
BRANCH  17  24
ATOM     23  C   UNL     1       6.798  -2.744  -0.437  0.00  0.00    +0.012 C 
ATOM     24  C   UNL     1       6.484  -1.249  -0.528  0.00  0.00    +0.016 C 
ATOM     25  C   UNL     1       7.791  -0.458  -0.612  0.00  0.00    +0.012 C 
ENDBRANCH  17  24
ENDBRANCH  16  22
ENDBRANCH   1  16
BRANCH   7  26
ATOM     26  O   UNL     1      -3.440   2.186   0.037  0.00  0.00    -0.422 OA
BRANCH  26  27
ATOM     27  C   UNL     1      -3.879   2.777  -1.091  0.00  0.00    +0.347 C 
ATOM     28  O   UNL     1      -3.252   2.657  -2.124  0.00  0.00    -0.244 OA
BRANCH  27  29
ATOM     29  C   UNL     1      -5.124   3.572  -1.071  0.00  0.00    +0.089 A 
ATOM     30  C   UNL     1      -5.260   4.642  -0.184  0.00  0.00    +0.017 A 
ATOM     31  C   UNL     1      -6.423   5.383  -0.175  0.00  0.00    +0.001 A 
ATOM     32  C   UNL     1      -7.458   5.062  -1.035  0.00  0.00    +0.002 A 
ATOM     33  C   UNL     1      -7.333   4.001  -1.913  0.00  0.00    +0.033 A 
ATOM     34  C   UNL     1      -6.173   3.254  -1.936  0.00  0.00    +0.140 A 
BRANCH  34  35
ATOM     35  N   UNL     1      -6.041   2.118  -2.876  0.00  0.00    +0.057 N 
ATOM     36  O   UNL     1      -6.978   1.806  -3.590  0.00  0.00    -0.126 OA
ATOM     37  O   UNL     1      -4.996   1.495  -2.935  0.00  0.00    -0.126 OA
ENDBRANCH  34  35
ENDBRANCH  27  29
ENDBRANCH  26  27
ENDBRANCH   7  26
TORSDOF 8
