REMARK  Name = ZINC32504002
REMARK  5 active torsions:
REMARK  status: ('A' for Active; 'I' for Inactive)
REMARK    1  A    between atoms: C_5  and  C_7
REMARK    2  A    between atoms: C_7  and  C_8
REMARK    3  A    between atoms: C_8  and  N_10
REMARK    4  A    between atoms: N_12  and  C_23
REMARK    5  A    between atoms: C_23  and  C_24
REMARK                            x       y       z     vdW  Elec       q    Type
REMARK                         _______ _______ _______ _____ _____    ______ ____
ROOT
ATOM      1  N   UNL     1       1.417  -3.429   1.538  0.00  0.00    -0.159 NA
ATOM      2  C   UNL     1       1.657  -4.056   2.683  0.00  0.00    +0.150 C 
ATOM      3  N   UNL     1       1.832  -3.474   3.942  0.00  0.00    -0.302 N 
ATOM      4  C   UNL     1       1.319  -4.338   4.961  0.00  0.00    +0.111 C 
ATOM      5  C   UNL     1       1.381  -4.095   6.458  0.00  0.00    +0.189 C 
ATOM      6  S   UNL     1       0.760  -5.758   7.006  0.00  0.00    -0.028 S 
ATOM      7  O   UNL     1       1.548  -6.210   8.098  0.00  0.00    -0.174 OA
ATOM      8  O   UNL     1      -0.654  -5.705   7.136  0.00  0.00    -0.174 OA
ATOM      9  C   UNL     1       1.194  -6.743   5.499  0.00  0.00    +0.182 C 
ATOM     10  C   UNL     1       2.051  -5.716   4.735  0.00  0.00    +0.097 C 
ATOM     11  S   UNL     1       1.808  -5.726   2.922  0.00  0.00    -0.086 S 
ENDROOT
BRANCH   1  12
ATOM     12  C   UNL     1       1.208  -2.114   1.529  0.00  0.00    +0.243 C 
ATOM     13  O   UNL     1       0.368  -1.628   2.262  0.00  0.00    -0.273 OA
BRANCH  12  14
ATOM     14  C   UNL     1       2.011  -1.230   0.612  0.00  0.00    +0.134 C 
BRANCH  14  19
ATOM     15  C   UNL     1      -0.005   1.870  -0.150  0.00  0.00    +0.000 A 
ATOM     16  C   UNL     1       0.490   2.759   0.786  0.00  0.00    +0.001 A 
ATOM     17  C   UNL     1       1.478   2.358   1.665  0.00  0.00    +0.020 A 
ATOM     18  C   UNL     1       1.970   1.067   1.609  0.00  0.00    +0.045 A 
ATOM     19  C   UNL     1       1.474   0.177   0.673  0.00  0.00    -0.020 A 
ATOM     20  C   UNL     1       0.487   0.580  -0.206  0.00  0.00    +0.005 A 
ATOM     21 CL   UNL     1       3.212   0.563   2.714  0.00  0.00    -0.083 Cl
ENDBRANCH  14  19
ENDBRANCH  12  14
ENDBRANCH   1  12
BRANCH   3  22
ATOM     22  C   UNL     1       2.452  -2.169   4.183  0.00  0.00    +0.142 C 
BRANCH  22  23
ATOM     23  C   UNL     1       3.928  -2.351   4.427  0.00  0.00    -0.030 A 
ATOM     24  C   UNL     1       4.406  -2.453   5.720  0.00  0.00    +0.006 A 
ATOM     25  C   UNL     1       5.760  -2.621   5.945  0.00  0.00    +0.020 A 
ATOM     26  C   UNL     1       6.636  -2.686   4.876  0.00  0.00    +0.041 A 
ATOM     27  C   UNL     1       6.156  -2.583   3.583  0.00  0.00    +0.020 A 
ATOM     28  C   UNL     1       4.802  -2.421   3.359  0.00  0.00    +0.006 A 
ATOM     29 CL   UNL     1       8.336  -2.895   5.158  0.00  0.00    -0.084 Cl
ENDBRANCH  22  23
ENDBRANCH   3  22
TORSDOF 5
