REMARK  Name = ZINC32686102
REMARK  8 active torsions:
REMARK  status: ('A' for Active; 'I' for Inactive)
REMARK    1  A    between atoms: C_1  and  C_2
REMARK    2  A    between atoms: C_2  and  C_3
REMARK    3  A    between atoms: C_8  and  N_9
REMARK    4  A    between atoms: C_10  and  C_12
REMARK    5  A    between atoms: C_12  and  S_13
REMARK    6  A    between atoms: S_13  and  C_14
REMARK    7  A    between atoms: C_17  and  C_25
REMARK    8  A    between atoms: N_18  and  C_19
REMARK                            x       y       z     vdW  Elec       q    Type
REMARK                         _______ _______ _______ _____ _____    ______ ____
ROOT
ATOM      1  C   UNL     1       3.860   5.421  -0.050  0.00  0.00    +0.193 A 
ATOM      2  N   UNL     1       4.397   4.224   0.016  0.00  0.00    -0.122 NA
ATOM      3  N   UNL     1       3.478   3.326   0.013  0.00  0.00    -0.128 NA
ATOM      4  C   UNL     1       2.297   3.895  -0.054  0.00  0.00    +0.166 A 
ATOM      5  N   UNL     1       2.505   5.254  -0.102  0.00  0.00    -0.299 N 
ENDROOT
BRANCH   4   6
ATOM      6  C   UNL     1       0.990   3.205  -0.080  0.00  0.00    +0.033 A 
ATOM      7  C   UNL     1      -0.030   3.601   0.787  0.00  0.00    +0.013 A 
ATOM      8  C   UNL     1      -1.248   2.954   0.757  0.00  0.00    +0.001 A 
ATOM      9  C   UNL     1      -1.458   1.909  -0.126  0.00  0.00    +0.001 A 
ATOM     10  C   UNL     1      -0.455   1.514  -0.992  0.00  0.00    +0.016 A 
ATOM     11  C   UNL     1       0.769   2.154  -0.973  0.00  0.00    +0.029 A 
ATOM     12 BR   UNL     1       2.143   1.607  -2.152  0.00  0.00    -0.050 Br
ENDBRANCH   4   6
BRANCH   5  13
ATOM     13  C   UNL     1       1.486   6.303  -0.188  0.00  0.00    +0.091 C 
ATOM     14  C   UNL     1       1.770   7.191  -1.401  0.00  0.00    +0.025 C 
ATOM     15  C   UNL     1       0.706   8.287  -1.491  0.00  0.00    +0.002 C 
ATOM     16  C   UNL     1       0.740   9.136  -0.218  0.00  0.00    +0.000 C 
ATOM     17  C   UNL     1       0.456   8.248   0.995  0.00  0.00    +0.002 C 
ATOM     18  C   UNL     1       1.520   7.152   1.085  0.00  0.00    +0.025 C 
ENDBRANCH   5  13
BRANCH   1  19
ATOM     19  S   UNL     1       4.725   6.956  -0.073  0.00  0.00    -0.077 S 
BRANCH  19  20
ATOM     20  C   UNL     1       6.431   6.356   0.016  0.00  0.00    +0.173 C 
BRANCH  20  22
ATOM     21  N   UNL     1       8.707   7.323   0.069  0.00  0.00    -0.285 N 
ATOM     22  C   UNL     1       7.376   7.530   0.009  0.00  0.00    +0.227 C 
ATOM     23  O   UNL     1       6.940   8.660  -0.050  0.00  0.00    -0.275 OA
ATOM     24  H   UNL     1       9.105   6.298   0.058  0.00  0.00    +0.155 HD
BRANCH  21  30
ATOM     25  C   UNL     1      10.837   8.258   0.717  0.00  0.00    -0.026 A 
ATOM     26  C   UNL     1      11.698   9.336   0.791  0.00  0.00    +0.005 A 
ATOM     27  C   UNL     1      11.311  10.567   0.295  0.00  0.00    +0.000 A 
ATOM     28  C   UNL     1      10.061  10.724  -0.275  0.00  0.00    +0.002 A 
ATOM     29  C   UNL     1       9.197   9.650  -0.356  0.00  0.00    +0.023 A 
ATOM     30  C   UNL     1       9.581   8.413   0.145  0.00  0.00    +0.037 A 
BRANCH  25  32
ATOM     31  C   UNL     1      11.836   6.068   0.120  0.00  0.00    +0.009 C 
ATOM     32  C   UNL     1      11.261   6.916   1.256  0.00  0.00    +0.033 C 
ENDBRANCH  25  32
ENDBRANCH  21  30
ENDBRANCH  20  22
ENDBRANCH  19  20
ENDBRANCH   1  19
TORSDOF 7
