REMARK  Name = ZINC12246778
REMARK  8 active torsions:
REMARK  status: ('A' for Active; 'I' for Inactive)
REMARK    1  A    between atoms: C_1  and  C_2
REMARK    2  A    between atoms: C_2  and  C_3
REMARK    3  A    between atoms: C_2  and  C_4
REMARK    4  A    between atoms: C_4  and  N_67
REMARK    5  A    between atoms: C_6  and  S_29
REMARK    6  A    between atoms: C_9  and  C_11
REMARK    7  A    between atoms: N_13  and  C_14
REMARK    8  A    between atoms: S_29  and  C_30
REMARK                            x       y       z     vdW  Elec       q    Type
REMARK                         _______ _______ _______ _____ _____    ______ ____
ROOT
ATOM      1  C   UNL     1       6.187   5.002  -4.561  0.00  0.00    +0.204 C 
ATOM      2  O   UNL     1       6.855   4.008  -4.375  0.00  0.00    -0.277 OA
ATOM      3  N   UNL     1       5.074   5.213  -3.830  0.00  0.00    -0.287 N 
ATOM      4  H   UNL     1       4.503   5.972  -4.024  0.00  0.00    +0.155 HD
ENDROOT
BRANCH   3   5
ATOM      5  C   UNL     1       4.742   4.334  -2.793  0.00  0.00    +0.035 A 
ATOM      6  C   UNL     1       4.136   4.816  -1.639  0.00  0.00    +0.024 A 
ATOM      7  C   UNL     1       3.816   3.957  -0.606  0.00  0.00    +0.007 A 
ATOM      8  C   UNL     1       4.102   2.605  -0.724  0.00  0.00    -0.026 A 
ATOM      9  C   UNL     1       4.681   2.127  -1.871  0.00  0.00    +0.036 A 
ATOM     10  C   UNL     1       5.017   2.978  -2.913  0.00  0.00    +0.046 A 
ATOM     11  N   UNL     1       4.912   0.757  -1.949  0.00  0.00    -0.314 N 
ATOM     12  C   UNL     1       5.808   0.085  -1.126  0.00  0.00    +0.035 A 
ATOM     13  C   UNL     1       6.663  -0.822  -1.766  0.00  0.00    +0.023 A 
ATOM     14  C   UNL     1       7.621  -1.510  -1.057  0.00  0.00    +0.002 A 
ATOM     15  C   UNL     1       7.741  -1.294   0.304  0.00  0.00    +0.000 A 
ATOM     16  C   UNL     1       6.892  -0.416   0.937  0.00  0.00    +0.005 A 
ATOM     17  C   UNL     1       5.907   0.282   0.233  0.00  0.00    -0.026 A 
ATOM     18  C   UNL     1       5.039   1.169   1.089  0.00  0.00    +0.041 C 
ATOM     19  C   UNL     1       3.792   1.672   0.407  0.00  0.00    +0.041 C 
ATOM     20  H   UNL     1       4.423   0.244  -2.612  0.00  0.00    +0.152 HD
ENDBRANCH   3   5
BRANCH   1  24
ATOM     21  C   UNL     1       7.776   6.272  -7.620  0.00  0.00    -0.063 C 
ATOM     22  C   UNL     1       6.285   6.304  -8.019  0.00  0.00    +0.034 C 
ATOM     23  C   UNL     1       5.512   6.127  -6.695  0.00  0.00    +0.006 C 
ATOM     24  C   UNL     1       6.601   6.004  -5.608  0.00  0.00    +0.021 C 
ATOM     25  N   UNL     1       7.774   5.541  -6.347  0.00  0.00    +0.388 N 
ATOM     26  H   UNL     1       7.702   4.532  -6.521  0.00  0.00    -0.081 HD
BRANCH  25  27
ATOM     27  C   UNL     1       9.029   5.821  -5.581  0.00  0.00    -0.075 C 
BRANCH  27  29
ATOM     28  C   UNL     1      11.507   5.508  -5.520  0.00  0.00    +0.005 C 
ATOM     29  C   UNL     1      10.214   5.101  -6.229  0.00  0.00    -0.034 C 
ATOM     30  C   UNL     1      10.020   3.588  -6.108  0.00  0.00    +0.005 C 
ENDBRANCH  27  29
ENDBRANCH  25  27
BRANCH  22  31
ATOM     31  S   UNL     1       5.869   7.895  -8.784  0.00  0.00    -0.124 S 
BRANCH  31  32
ATOM     32  C   UNL     1       6.714   7.858 -10.330  0.00  0.00    +0.008 A 
ATOM     33  C   UNL     1       7.480   6.753 -10.678  0.00  0.00    +0.017 A 
ATOM     34  C   UNL     1       8.137   6.724 -11.892  0.00  0.00    +0.039 A 
ATOM     35  C   UNL     1       8.041   7.801 -12.758  0.00  0.00    +0.123 A 
ATOM     36  C   UNL     1       7.282   8.906 -12.411  0.00  0.00    +0.039 A 
ATOM     37  C   UNL     1       6.619   8.937 -11.200  0.00  0.00    +0.017 A 
ATOM     38  F   UNL     1       8.690   7.773 -13.943  0.00  0.00    -0.205 F 
ENDBRANCH  31  32
ENDBRANCH  22  31
ENDBRANCH   1  24
TORSDOF 6
