REMARK  Name = ZINC00548643
REMARK  6 active torsions:
REMARK  status: ('A' for Active; 'I' for Inactive)
REMARK    1  A    between atoms: C_3  and  O_22
REMARK    2  A    between atoms: C_4  and  C_8
REMARK    3  A    between atoms: N_9  and  N_10
REMARK    4  A    between atoms: C_11  and  C_13
REMARK    5  A    between atoms: C_13  and  C_14
REMARK    6  A    between atoms: C_16  and  O_17
REMARK                            x       y       z     vdW  Elec       q    Type
REMARK                         _______ _______ _______ _____ _____    ______ ____
ROOT
ATOM      1  N   UNL     1       6.029  -0.708  -0.061  0.00  0.00    -0.207 N 
ATOM      2  C   UNL     1       7.187  -0.018  -0.069  0.00  0.00    +0.238 C 
ATOM      3  O   UNL     1       7.170   1.195  -0.062  0.00  0.00    -0.274 OA
ATOM      4  H   UNL     1       6.043  -1.678  -0.066  0.00  0.00    +0.177 HD
ENDROOT
BRANCH   1   6
ATOM      5  C   UNL     1       3.692  -0.690  -0.037  0.00  0.00    +0.142 C 
ATOM      6  N   UNL     1       4.806  -0.025  -0.045  0.00  0.00    -0.188 NA
BRANCH   5  10
ATOM      7  C   UNL     1      -0.017   1.381   0.010  0.00  0.00    +0.019 A 
ATOM      8  C   UNL     1       1.166   2.096   0.002  0.00  0.00    +0.047 A 
ATOM      9  C   UNL     1       2.381   1.430  -0.013  0.00  0.00    +0.126 A 
ATOM     10  C   UNL     1       2.405   0.028  -0.021  0.00  0.00    +0.037 A 
ATOM     11  C   UNL     1       1.204  -0.683  -0.013  0.00  0.00    +0.028 A 
ATOM     12  C   UNL     1       0.002  -0.004   0.002  0.00  0.00    +0.019 A 
ATOM     13 BR   UNL     1      -1.625  -0.968   0.012  0.00  0.00    -0.050 Br
BRANCH   9  14
ATOM     14  O   UNL     1       3.543   2.132  -0.021  0.00  0.00    -0.506 OA
ATOM     15  H   UNL     1       3.888   2.331   0.860  0.00  0.00    +0.292 HD
ENDBRANCH   9  14
ENDBRANCH   5  10
ENDBRANCH   1   6
BRANCH   2  16
ATOM     16  C   UNL     1       8.502  -0.753  -0.086  0.00  0.00    +0.152 C 
BRANCH  16  17
ATOM     17  C   UNL     1       9.634   0.243  -0.091  0.00  0.00    +0.049 A 
ATOM     18  C   UNL     1      10.155   0.851  -1.182  0.00  0.00    +0.091 A 
ATOM     19  C   UNL     1      11.185   1.699  -0.751  0.00  0.00    +0.231 A 
ATOM     20  N   UNL     1      11.276   1.600   0.553  0.00  0.00    -0.136 NA
ATOM     21  N   UNL     1      10.304   0.691   0.991  0.00  0.00    -0.278 N 
ATOM     22  H   UNL     1      10.142   0.429   1.911  0.00  0.00    +0.189 HD
BRANCH  19  23
ATOM     23  O   UNL     1      11.956   2.487  -1.547  0.00  0.00    -0.491 OA
ATOM     24  H   UNL     1      11.598   3.375  -1.687  0.00  0.00    +0.294 HD
ENDBRANCH  19  23
ENDBRANCH  16  17
ENDBRANCH   2  16
TORSDOF 6
