REMARK  Name = ZINC01887722
REMARK  9 active torsions:
REMARK  status: ('A' for Active; 'I' for Inactive)
REMARK    1  A    between atoms: C_1  and  C_2
REMARK    2  A    between atoms: C_5  and  C_8
REMARK    3  A    between atoms: C_8  and  C_9
REMARK    4  A    between atoms: N_13  and  C_29
REMARK    5  A    between atoms: C_15  and  C_16
REMARK    6  A    between atoms: C_15  and  C_18
REMARK    7  A    between atoms: N_20  and  C_21
REMARK    8  A    between atoms: C_21  and  C_22
REMARK    9  A    between atoms: C_32  and  C_35
REMARK                            x       y       z     vdW  Elec       q    Type
REMARK                         _______ _______ _______ _____ _____    ______ ____
ROOT
ATOM      1  C   UNL     1      -1.695  -4.732   0.042  0.00  0.00    +0.143 C 
ATOM      2  C   UNL     1      -2.016  -6.211   0.185  0.00  0.00    +0.238 C 
ATOM      3  O   UNL     1      -2.125  -6.746   1.268  0.00  0.00    -0.274 OA
ATOM      4  N   UNL     1      -2.169  -6.878  -0.947  0.00  0.00    -0.232 N 
ATOM      5  C   UNL     1      -2.048  -6.280  -2.178  0.00  0.00    +0.098 C 
ATOM      6  C   UNL     1      -2.184  -6.866  -3.437  0.00  0.00    +0.141 C 
ATOM      7  S   UNL     1      -1.675  -4.576  -1.788  0.00  0.00    -0.095 S 
ENDROOT
BRANCH   4   8
ATOM      8  C   UNL     1      -2.466  -8.246  -0.888  0.00  0.00    +0.042 A 
ATOM      9  C   UNL     1      -1.440  -9.179  -0.837  0.00  0.00    +0.024 A 
ATOM     10  C   UNL     1      -1.736 -10.527  -0.775  0.00  0.00    +0.005 A 
ATOM     11  C   UNL     1      -3.053 -10.948  -0.774  0.00  0.00    -0.050 A 
ATOM     12  C   UNL     1      -4.077 -10.021  -0.830  0.00  0.00    +0.005 A 
ATOM     13  C   UNL     1      -3.788  -8.672  -0.887  0.00  0.00    +0.024 A 
ATOM     14  C   UNL     1      -3.372 -12.419  -0.712  0.00  0.00    +0.044 C 
ENDBRANCH   4   8
BRANCH   6  15
ATOM     15  C   UNL     1      -2.144  -6.033  -4.639  0.00  0.00    +0.257 C 
ATOM     16  O   UNL     1      -1.991  -4.829  -4.541  0.00  0.00    -0.269 OA
ATOM     17  N   UNL     1      -2.275  -6.599  -5.855  0.00  0.00    -0.307 N 
ATOM     18  H   UNL     1      -2.397  -7.558  -5.933  0.00  0.00    +0.149 HD
BRANCH  17  19
ATOM     19  C   UNL     1      -2.235  -5.765  -7.059  0.00  0.00    +0.139 C 
BRANCH  19  20
ATOM     20  C   UNL     1      -2.404  -6.635  -8.278  0.00  0.00    -0.030 A 
ATOM     21  C   UNL     1      -1.294  -7.174  -8.901  0.00  0.00    +0.005 A 
ATOM     22  C   UNL     1      -1.450  -7.976 -10.017  0.00  0.00    +0.000 A 
ATOM     23  C   UNL     1      -2.714  -8.229 -10.515  0.00  0.00    +0.000 A 
ATOM     24  C   UNL     1      -3.823  -7.685  -9.895  0.00  0.00    +0.000 A 
ATOM     25  C   UNL     1      -3.668  -6.888  -8.777  0.00  0.00    +0.005 A 
ENDBRANCH  19  20
ENDBRANCH  17  19
ENDBRANCH   6  15
BRANCH   6  26
ATOM     26  C   UNL     1      -2.364  -8.282  -3.552  0.00  0.00    +0.107 C 
ATOM     27  N   UNL     1      -2.506  -9.405  -3.644  0.00  0.00    -0.191 NA
ENDBRANCH   6  26
BRANCH   1  28
ATOM     28  C   UNL     1      -0.328  -4.401   0.642  0.00  0.00    +0.059 C 
BRANCH  28  33
ATOM     29  C   UNL     1       0.687   1.264   0.116  0.00  0.00    +0.044 C 
ATOM     30  C   UNL     1       0.423  -0.214   0.253  0.00  0.00    -0.050 A 
ATOM     31  C   UNL     1       0.810  -1.081  -0.751  0.00  0.00    +0.003 A 
ATOM     32  C   UNL     1       0.571  -2.437  -0.623  0.00  0.00    +0.004 A 
ATOM     33  C   UNL     1      -0.063  -2.924   0.505  0.00  0.00    -0.046 A 
ATOM     34  C   UNL     1      -0.455  -2.055   1.506  0.00  0.00    +0.004 A 
ATOM     35  C   UNL     1      -0.212  -0.700   1.380  0.00  0.00    +0.003 A 
ENDBRANCH  28  33
ENDBRANCH   1  28
TORSDOF 7
