REMARK  Name = ZINC01925292
REMARK  11 active torsions:
REMARK  status: ('A' for Active; 'I' for Inactive)
REMARK    1  A    between atoms: C_1  and  C_2
REMARK    2  A    between atoms: C_2  and  C_4
REMARK    3  A    between atoms: C_2  and  N_10
REMARK    4  A    between atoms: C_11  and  C_13
REMARK    5  A    between atoms: C_13  and  O_14
REMARK    6  A    between atoms: O_14  and  C_15
REMARK    7  A    between atoms: C_25  and  C_26
REMARK    8  A    between atoms: C_29  and  C_32
REMARK    9  A    between atoms: C_32  and  C_33
REMARK   10  A    between atoms: C_32  and  C_34
REMARK   11  A    between atoms: C_32  and  C_35
REMARK                            x       y       z     vdW  Elec       q    Type
REMARK                         _______ _______ _______ _____ _____    ______ ____
ROOT
ATOM      1  C   UNL     1       3.642   1.573  -0.021  0.00  0.00    +0.211 A 
ATOM      2  C   UNL     1       4.332   1.758  -1.247  0.00  0.00    +0.235 A 
ATOM      3  O   UNL     1       3.840   1.419  -2.310  0.00  0.00    -0.283 OA
ATOM      4  C   UNL     1       5.668   2.383  -1.185  0.00  0.00    +0.069 A 
ATOM      5  C   UNL     1       6.417   2.607  -2.339  0.00  0.00    +0.035 A 
ATOM      6  C   UNL     1       7.663   3.188  -2.240  0.00  0.00    +0.042 A 
ATOM      7  C   UNL     1       8.170   3.547  -0.998  0.00  0.00    +0.023 A 
ATOM      8  C   UNL     1       7.439   3.330   0.150  0.00  0.00    +0.048 A 
ATOM      9  C   UNL     1       6.180   2.746   0.071  0.00  0.00    +0.140 A 
ATOM     10  O   UNL     1       5.450   2.525   1.184  0.00  0.00    -0.451 OA
ATOM     11  C   UNL     1       4.231   1.962   1.145  0.00  0.00    +0.181 A 
ATOM     12 CL   UNL     1       8.601   3.472  -3.672  0.00  0.00    -0.084 Cl
ENDROOT
BRANCH  11  13
ATOM     13  C   UNL     1       3.502   1.758   2.411  0.00  0.00    +0.021 A 
ATOM     14  C   UNL     1       3.398   2.800   3.337  0.00  0.00    +0.012 A 
ATOM     15  C   UNL     1       2.711   2.603   4.517  0.00  0.00    +0.005 A 
ATOM     16  C   UNL     1       2.134   1.375   4.789  0.00  0.00    -0.042 A 
ATOM     17  C   UNL     1       2.238   0.338   3.879  0.00  0.00    +0.005 A 
ATOM     18  C   UNL     1       2.917   0.521   2.693  0.00  0.00    +0.012 A 
BRANCH  16  19
ATOM     19  C   UNL     1       1.391   1.166   6.083  0.00  0.00    -0.013 C 
ATOM     20  C   UNL     1       2.055   0.040   6.877  0.00  0.00    +0.015 C 
ATOM     21  C   UNL     1       1.423   2.457   6.904  0.00  0.00    +0.015 C 
ATOM     22  C   UNL     1      -0.061   0.790   5.782  0.00  0.00    +0.015 C 
ENDBRANCH  16  19
ENDBRANCH  11  13
BRANCH   1  23
ATOM     23  O   UNL     1       2.405   1.007  -0.009  0.00  0.00    -0.476 OA
BRANCH  23  24
ATOM     24  C   UNL     1       1.292   1.875  -0.237  0.00  0.00    +0.324 C 
BRANCH  24  26
ATOM     25  N   UNL     1      -1.170   1.689  -0.383  0.00  0.00    -0.306 N 
ATOM     26  C   UNL     1       0.015   1.077  -0.188  0.00  0.00    +0.251 C 
ATOM     27  O   UNL     1       0.054  -0.117   0.021  0.00  0.00    -0.272 OA
ATOM     28  H   UNL     1      -1.201   2.644  -0.550  0.00  0.00    +0.149 HD
BRANCH  25  30
ATOM     29  C   UNL     1      -2.883   0.782   1.109  0.00  0.00    +0.033 C 
ATOM     30  C   UNL     1      -2.411   0.912  -0.341  0.00  0.00    +0.100 C 
BRANCH  30  31
ATOM     31  C   UNL     1      -3.470   1.613  -1.153  0.00  0.00    -0.027 A 
ATOM     32  C   UNL     1      -3.585   2.989  -1.097  0.00  0.00    +0.005 A 
ATOM     33  C   UNL     1      -4.553   3.633  -1.845  0.00  0.00    +0.000 A 
ATOM     34  C   UNL     1      -5.413   2.899  -2.641  0.00  0.00    +0.000 A 
ATOM     35  C   UNL     1      -5.301   1.522  -2.692  0.00  0.00    +0.000 A 
ATOM     36  C   UNL     1      -4.330   0.879  -1.948  0.00  0.00    +0.005 A 
ENDBRANCH  30  31
ENDBRANCH  25  30
ENDBRANCH  24  26
ENDBRANCH  23  24
ENDBRANCH   1  23
TORSDOF 7
