REMARK  Name = ZINC63272162
REMARK  7 active torsions:
REMARK  status: ('A' for Active; 'I' for Inactive)
REMARK    1  A    between atoms: C_1  and  O_2
REMARK    2  A    between atoms: O_2  and  C_3
REMARK    3  A    between atoms: C_9  and  C_12
REMARK    4  A    between atoms: C_12  and  C_13
REMARK    5  A    between atoms: C_13  and  N_14
REMARK    6  A    between atoms: C_15  and  C_17
REMARK    7  A    between atoms: C_24  and  N_27
REMARK                            x       y       z     vdW  Elec       q    Type
REMARK                         _______ _______ _______ _____ _____    ______ ____
ROOT
ATOM      1  N   UNL     1      -0.759  -6.798   1.434  0.00  0.00    -0.311 N 
ATOM      2  C   UNL     1      -0.408  -7.389   2.593  0.00  0.00    +0.244 C 
ATOM      3  O   UNL     1      -0.852  -6.974   3.646  0.00  0.00    -0.270 OA
ATOM      4  H   UNL     1      -0.405  -7.128   0.594  0.00  0.00    +0.149 HD
ENDROOT
BRANCH   2   5
ATOM      5  C   UNL     1       0.515  -8.540   2.584  0.00  0.00    +0.038 A 
ATOM      6  C   UNL     1       1.038  -9.024   1.383  0.00  0.00    +0.015 A 
ATOM      7  C   UNL     1       1.896 -10.092   1.367  0.00  0.00    +0.025 A 
ATOM      8  C   UNL     1       2.283 -10.741   2.558  0.00  0.00    +0.043 A 
ATOM      9  C   UNL     1       1.745 -10.236   3.750  0.00  0.00    +0.033 A 
ATOM     10  C   UNL     1       0.889  -9.164   3.780  0.00  0.00    +0.029 A 
ATOM     11  S   UNL     1       2.423 -11.262   5.035  0.00  0.00    -0.079 S 
ATOM     12  C   UNL     1       3.431 -12.372   3.972  0.00  0.00    +0.237 C 
ATOM     13  N   UNL     1       3.144 -11.826   2.639  0.00  0.00    -0.314 N 
ATOM     14  H   UNL     1       3.542 -12.211   1.843  0.00  0.00    +0.149 HD
BRANCH  12  15
ATOM     15  N   UNL     1       2.980 -13.761   4.083  0.00  0.00    -0.326 N 
ATOM     16  C   UNL     1       2.014 -14.346   3.319  0.00  0.00    +0.088 A 
ATOM     17  C   UNL     1       1.880 -15.627   3.717  0.00  0.00    +0.019 A 
ATOM     18  C   UNL     1       2.797 -15.842   4.765  0.00  0.00    +0.019 A 
ATOM     19  C   UNL     1       3.460 -14.685   4.964  0.00  0.00    +0.088 A 
ENDBRANCH  12  15
ENDBRANCH   2   5
BRANCH   1  20
ATOM     20  C   UNL     1      -1.676  -5.655   1.443  0.00  0.00    +0.109 C 
BRANCH  20  21
ATOM     21  C   UNL     1      -1.908  -5.176   0.009  0.00  0.00    +0.052 C 
BRANCH  21  28
ATOM     22  C   UNL     1      -1.200  -0.637   0.010  0.00  0.00    +0.121 A 
ATOM     23  C   UNL     1      -2.375   0.135   0.020  0.00  0.00    +0.047 A 
ATOM     24  C   UNL     1      -3.607  -0.415   0.028  0.00  0.00    +0.029 A 
ATOM     25  C   UNL     1      -3.753  -1.875   0.027  0.00  0.00    +0.043 A 
ATOM     26  N   UNL     1      -4.809  -2.650   0.034  0.00  0.00    -0.380 N 
ATOM     27  C   UNL     1      -4.362  -4.047   0.029  0.00  0.00    +0.144 C 
ATOM     28  C   UNL     1      -2.851  -4.000   0.018  0.00  0.00    -0.040 C 
ATOM     29  C   UNL     1      -2.516  -2.690   0.016  0.00  0.00    +0.002 A 
ATOM     30  C   UNL     1      -1.226  -1.992   0.003  0.00  0.00    +0.055 A 
ATOM     31  H   UNL     1      -5.731  -2.350   0.042  0.00  0.00    +0.160 HD
BRANCH  22  33
ATOM     32  C   UNL     1      -0.017   1.425   0.010  0.00  0.00    +0.277 C 
ATOM     33  O   UNL     1       0.002  -0.004   0.002  0.00  0.00    -0.495 OA
ENDBRANCH  22  33
ENDBRANCH  21  28
ENDBRANCH  20  21
ENDBRANCH   1  20
TORSDOF 6
