REMARK  Name = ZINC59170450
REMARK  6 active torsions:
REMARK  status: ('A' for Active; 'I' for Inactive)
REMARK    1  A    between atoms: C_1  and  C_2
REMARK    2  A    between atoms: C_7  and  N_8
REMARK    3  A    between atoms: C_9  and  C_11
REMARK    4  A    between atoms: N_25  and  C_26
REMARK    5  A    between atoms: C_29  and  S_32
REMARK    6  A    between atoms: S_32  and  N_35
REMARK                            x       y       z     vdW  Elec       q    Type
REMARK                         _______ _______ _______ _____ _____    ______ ____
ROOT
ATOM      1  C   UNL     1      -0.227   0.031   4.819  0.00  0.00    +0.098 A 
ATOM      2  C   UNL     1      -0.193  -0.659   6.027  0.00  0.00    +0.030 A 
ATOM      3  C   UNL     1      -0.266   0.088   7.222  0.00  0.00    +0.026 A 
ATOM      4  C   UNL     1      -0.017  -0.544   8.518  0.00  0.00    -0.007 A 
ATOM      5  C   UNL     1       0.280  -1.906   8.624  0.00  0.00    +0.009 A 
ATOM      6  C   UNL     1       0.505  -2.454   9.854  0.00  0.00    +0.001 A 
ATOM      7  C   UNL     1       0.443  -1.675  11.005  0.00  0.00    +0.001 A 
ATOM      8  C   UNL     1       0.157  -0.344  10.936  0.00  0.00    +0.008 A 
ATOM      9  C   UNL     1      -0.080   0.252   9.687  0.00  0.00    -0.017 A 
ATOM     10  C   UNL     1      -0.378   1.624   9.577  0.00  0.00    +0.012 A 
ATOM     11  C   UNL     1      -0.616   2.196   8.369  0.00  0.00    +0.047 A 
ATOM     12  C   UNL     1      -0.574   1.455   7.185  0.00  0.00    +0.138 A 
ATOM     13  O   UNL     1      -0.854   2.053   6.000  0.00  0.00    -0.439 OA
ATOM     14  C   UNL     1      -0.297   1.503   4.888  0.00  0.00    +0.212 A 
ATOM     15  N   UNL     1       0.158   2.254   3.907  0.00  0.00    -0.325 N 
ATOM     16  H   UNL     1       0.654   1.851   3.177  0.00  0.00    +0.169 HD
ENDROOT
BRANCH  15  17
ATOM     17  C   UNL     1      -0.067   3.602   3.917  0.00  0.00    +0.042 A 
ATOM     18  C   UNL     1      -1.333   4.100   4.237  0.00  0.00    +0.027 A 
ATOM     19  C   UNL     1      -1.553   5.462   4.246  0.00  0.00    +0.030 A 
ATOM     20  C   UNL     1      -0.523   6.334   3.939  0.00  0.00    +0.105 A 
ATOM     21  C   UNL     1       0.733   5.848   3.620  0.00  0.00    +0.030 A 
ATOM     22  C   UNL     1       0.969   4.489   3.613  0.00  0.00    +0.027 A 
BRANCH  20  23
ATOM     23  S   UNL     1      -0.814   8.072   3.953  0.00  0.00    +0.056 S 
ATOM     24  O   UNL     1       0.163   8.654   3.099  0.00  0.00    -0.153 OA
ATOM     25  O   UNL     1      -2.208   8.252   3.748  0.00  0.00    -0.153 OA
BRANCH  23  26
ATOM     26  N   UNL     1      -0.486   8.611   5.484  0.00  0.00    -0.204 NA
ATOM     27  H   UNL     1      -0.194   7.986   6.165  0.00  0.00    +0.144 HD
ATOM     28  H   UNL     1      -0.586   9.552   5.698  0.00  0.00    +0.144 HD
ENDBRANCH  23  26
ENDBRANCH  20  23
ENDBRANCH  15  17
BRANCH   1  30
ATOM     29  N   UNL     1      -0.338   0.009   2.380  0.00  0.00    -0.281 N 
ATOM     30  C   UNL     1      -0.188  -0.677   3.530  0.00  0.00    +0.253 C 
ATOM     31  O   UNL     1      -0.021  -1.882   3.502  0.00  0.00    -0.270 OA
ATOM     32  H   UNL     1      -0.424   0.976   2.399  0.00  0.00    +0.155 HD
BRANCH  29  39
ATOM     33  C   UNL     1      -1.546   1.303   0.152  0.00  0.00    +0.045 C 
ATOM     34  C   UNL     1      -0.949  -0.076   0.046  0.00  0.00    -0.029 A 
ATOM     35  C   UNL     1      -0.973  -0.749  -1.161  0.00  0.00    +0.005 A 
ATOM     36  C   UNL     1      -0.426  -2.015  -1.259  0.00  0.00    +0.000 A 
ATOM     37  C   UNL     1       0.147  -2.612  -0.151  0.00  0.00    +0.002 A 
ATOM     38  C   UNL     1       0.175  -1.945   1.058  0.00  0.00    +0.023 A 
ATOM     39  C   UNL     1      -0.369  -0.671   1.159  0.00  0.00    +0.037 A 
ENDBRANCH  29  39
ENDBRANCH   1  30
TORSDOF 5
