REMARK  Name = ZINC08410903
REMARK  7 active torsions:
REMARK  status: ('A' for Active; 'I' for Inactive)
REMARK    1  A    between atoms: C_1  and  C_2
REMARK    2  A    between atoms: C_3  and  C_14
REMARK    3  A    between atoms: N_5  and  C_7
REMARK    4  A    between atoms: C_17  and  C_28
REMARK    5  A    between atoms: C_23  and  N_27
REMARK    6  A    between atoms: C_24  and  C_25
REMARK    7  A    between atoms: C_31  and  C_34
REMARK                            x       y       z     vdW  Elec       q    Type
REMARK                         _______ _______ _______ _____ _____    ______ ____
ROOT
ATOM      1  C   UNL     1       0.409   9.824   1.694  0.00  0.00    +0.106 C 
ATOM      2  C   UNL     1      -0.614  10.429   0.768  0.00  0.00    +0.054 A 
ATOM      3  C   UNL     1      -1.481   9.795  -0.126  0.00  0.00    +0.100 A 
ATOM      4  N   UNL     1      -2.190  10.727  -0.734  0.00  0.00    -0.171 NA
ATOM      5  N   UNL     1      -1.785  11.979  -0.245  0.00  0.00    -0.246 N 
ATOM      6  H   UNL     1      -2.151  12.866  -0.527  0.00  0.00    +0.192 HD
ATOM      7  C   UNL     1      -0.817  11.775   0.672  0.00  0.00    +0.223 A 
ATOM      8  O   UNL     1      -0.125  12.675   1.414  0.00  0.00    -0.423 OA
ATOM      9  C   UNL     1       0.594  12.206   2.454  0.00  0.00    +0.200 C 
ATOM     10  C   UNL     1       0.876  10.898   2.645  0.00  0.00    +0.098 C 
ENDROOT
BRANCH   1  13
ATOM     11  C   UNL     1       1.610   6.897   1.844  0.00  0.00    +0.068 C 
ATOM     12  C   UNL     1       2.111   8.013   0.964  0.00  0.00    +0.066 A 
ATOM     13  C   UNL     1       1.579   9.305   0.899  0.00  0.00    +0.025 A 
ATOM     14  C   UNL     1       2.299  10.007  -0.010  0.00  0.00    +0.137 A 
ATOM     15  N   UNL     1       3.261   9.182  -0.497  0.00  0.00    -0.221 N 
ATOM     16  N   UNL     1       3.116   7.938   0.130  0.00  0.00    -0.170 NA
ATOM     17 CL   UNL     1       2.040  11.662  -0.466  0.00  0.00    -0.062 Cl
BRANCH  15  18
ATOM     18  C   UNL     1       4.224   9.514  -1.460  0.00  0.00    +0.067 A 
ATOM     19  C   UNL     1       3.903  10.385  -2.493  0.00  0.00    +0.028 A 
ATOM     20  C   UNL     1       4.856  10.715  -3.437  0.00  0.00    +0.002 A 
ATOM     21  C   UNL     1       6.125  10.171  -3.361  0.00  0.00    +0.000 A 
ATOM     22  C   UNL     1       6.446   9.299  -2.336  0.00  0.00    +0.002 A 
ATOM     23  C   UNL     1       5.499   8.970  -1.386  0.00  0.00    +0.028 A 
ENDBRANCH  15  18
ENDBRANCH   1  13
BRANCH   3  24
ATOM     24  C   UNL     1      -1.591   8.331  -0.347  0.00  0.00    +0.003 A 
ATOM     25  C   UNL     1      -1.707   7.827  -1.641  0.00  0.00    +0.010 A 
ATOM     26  C   UNL     1      -1.809   6.465  -1.841  0.00  0.00    +0.004 A 
ATOM     27  C   UNL     1      -1.796   5.602  -0.760  0.00  0.00    -0.044 A 
ATOM     28  C   UNL     1      -1.687   6.098   0.527  0.00  0.00    +0.004 A 
ATOM     29  C   UNL     1      -1.579   7.457   0.738  0.00  0.00    +0.010 A 
BRANCH  27  30
ATOM     30  C   UNL     1      -1.909   4.116  -0.985  0.00  0.00    +0.019 C 
ATOM     31  C   UNL     1      -0.665   3.420  -0.429  0.00  0.00    +0.008 C 
ATOM     32  C   UNL     1      -0.779   1.912  -0.657  0.00  0.00    +0.001 C 
ATOM     33  C   UNL     1      -2.022   1.380   0.059  0.00  0.00    +0.000 C 
ATOM     34  C   UNL     1      -3.267   2.076  -0.497  0.00  0.00    +0.001 C 
ATOM     35  C   UNL     1      -3.153   3.584  -0.269  0.00  0.00    +0.008 C 
ENDBRANCH  27  30
ENDBRANCH   3  24
BRANCH   9  36
ATOM     36  N   UNL     1       1.067  13.110   3.373  0.00  0.00    -0.328 N 
ATOM     37  H   UNL     1       0.881  14.056   3.263  0.00  0.00    +0.145 HD
ATOM     38  H   UNL     1       1.588  12.803   4.131  0.00  0.00    +0.145 HD
ENDBRANCH   9  36
BRANCH  10  39
ATOM     39  C   UNL     1       1.646  10.519   3.791  0.00  0.00    +0.101 C 
ATOM     40  N   UNL     1       2.257  10.217   4.700  0.00  0.00    -0.191 NA
ENDBRANCH  10  39
TORSDOF 6
