REMARK  Name = ZINC10508046
REMARK  7 active torsions:
REMARK  status: ('A' for Active; 'I' for Inactive)
REMARK    1  A    between atoms: C_10  and  C_11
REMARK    2  A    between atoms: C_11  and  C_13
REMARK    3  A    between atoms: C_11  and  N_53
REMARK    4  A    between atoms: C_13  and  N_14
REMARK    5  A    between atoms: N_14  and  S_15
REMARK    6  A    between atoms: S_15  and  C_18
REMARK    7  A    between atoms: C_22  and  N_24
REMARK                            x       y       z     vdW  Elec       q    Type
REMARK                         _______ _______ _______ _____ _____    ______ ____
ROOT
ATOM      1  C   UNL     1      -1.268   6.742  -3.596  0.00  0.00    -0.021 C 
ENDROOT
BRANCH   1  11
ATOM      2  C   UNL     1      -2.812   3.211  -6.965  0.00  0.00    +0.001 A 
ATOM      3  C   UNL     1      -1.741   3.319  -6.079  0.00  0.00    +0.001 A 
ATOM      4  C   UNL     1      -1.595   4.416  -5.287  0.00  0.00    +0.009 A 
ATOM      5  C   UNL     1      -2.536   5.457  -5.361  0.00  0.00    -0.016 A 
ATOM      6  C   UNL     1      -3.625   5.347  -6.262  0.00  0.00    -0.018 A 
ATOM      7  C   UNL     1      -3.742   4.199  -7.064  0.00  0.00    +0.008 A 
ATOM      8  C   UNL     1      -4.566   6.388  -6.337  0.00  0.00    +0.008 A 
ATOM      9  C   UNL     1      -4.420   7.486  -5.545  0.00  0.00    +0.001 A 
ATOM     10  C   UNL     1      -3.352   7.592  -4.656  0.00  0.00    +0.002 A 
ATOM     11  C   UNL     1      -2.419   6.606  -4.560  0.00  0.00    -0.052 A 
ENDBRANCH   1  11
BRANCH   1  16
ATOM     12  C   UNL     1       0.205   8.340  -2.498  0.00  0.00    -0.078 C 
ATOM     13  C   UNL     1       0.658   9.790  -2.800  0.00  0.00    -0.020 C 
ATOM     14  C   UNL     1       0.400   9.924  -4.318  0.00  0.00    -0.020 C 
ATOM     15  C   UNL     1      -0.649   8.845  -4.644  0.00  0.00    -0.078 C 
ATOM     16  N   UNL     1      -0.967   8.189  -3.375  0.00  0.00    +0.385 N 
ATOM     17  H   UNL     1      -1.783   8.641  -2.946  0.00  0.00    -0.081 HD
ENDBRANCH   1  16
BRANCH   1  18
ATOM     18  C   UNL     1      -1.637   6.082  -2.266  0.00  0.00    +0.095 C 
BRANCH  18  19
ATOM     19  N   UNL     1      -0.491   6.145  -1.356  0.00  0.00    -0.191 NA
ATOM     20  H   UNL     1       0.399   6.309  -1.706  0.00  0.00    +0.148 HD
BRANCH  19  21
ATOM     21  S   UNL     1      -0.714   5.935   0.272  0.00  0.00    +0.058 S 
ATOM     22  O   UNL     1      -1.790   6.783   0.647  0.00  0.00    -0.153 OA
ATOM     23  O   UNL     1       0.571   6.024   0.872  0.00  0.00    -0.153 OA
BRANCH  21  24
ATOM     24  C   UNL     1      -1.269   4.280   0.513  0.00  0.00    +0.107 A 
ATOM     25  C   UNL     1      -0.352   3.266   0.716  0.00  0.00    +0.028 A 
ATOM     26  C   UNL     1      -0.787   1.968   0.904  0.00  0.00    +0.004 A 
ATOM     27  C   UNL     1      -2.140   1.684   0.890  0.00  0.00    +0.033 A 
ATOM     28  C   UNL     1      -3.057   2.697   0.682  0.00  0.00    +0.128 A 
ATOM     29  C   UNL     1      -2.622   3.996   0.498  0.00  0.00    +0.061 A 
BRANCH  28  30
ATOM     30  N   UNL     1      -4.505   2.392   0.660  0.00  0.00    +0.056 N 
ATOM     31  O   UNL     1      -4.889   1.248   0.826  0.00  0.00    -0.126 OA
ATOM     32  O   UNL     1      -5.313   3.285   0.477  0.00  0.00    -0.126 OA
ENDBRANCH  28  30
ENDBRANCH  21  24
ENDBRANCH  19  21
ENDBRANCH  18  19
ENDBRANCH   1  18
TORSDOF 7
