REMARK  Name = ZINC17640785
REMARK  9 active torsions:
REMARK  status: ('A' for Active; 'I' for Inactive)
REMARK    1  A    between atoms: C_1  and  C_2
REMARK    2  A    between atoms: C_3  and  C_34
REMARK    3  A    between atoms: C_11  and  C_13
REMARK    4  A    between atoms: C_13  and  S_14
REMARK    5  A    between atoms: S_14  and  C_15
REMARK    6  A    between atoms: C_15  and  C_17
REMARK    7  A    between atoms: C_15  and  C_18
REMARK    8  A    between atoms: N_20  and  N_21
REMARK    9  A    between atoms: C_22  and  C_24
REMARK                            x       y       z     vdW  Elec       q    Type
REMARK                         _______ _______ _______ _____ _____    ______ ____
ROOT
ATOM      1  C   UNL     1      -0.014   1.209   0.009  0.00  0.00    +0.242 C 
ATOM      2  O   UNL     1       0.002  -0.004   0.002  0.00  0.00    -0.273 OA
ATOM      3  N   UNL     1      -1.191   1.867   0.018  0.00  0.00    -0.233 N 
ATOM      4  H   UNL     1      -1.204   2.837   0.023  0.00  0.00    +0.173 HD
ENDROOT
BRANCH   3   5
ATOM      5  N   UNL     1      -2.394   1.150   0.020  0.00  0.00    -0.230 N 
ATOM      6  C   UNL     1      -3.571   1.808   0.029  0.00  0.00    +0.267 C 
ATOM      7  O   UNL     1      -3.587   3.025   0.035  0.00  0.00    -0.268 OA
ATOM      8  H   UNL     1      -2.381   0.180   0.014  0.00  0.00    +0.173 HD
BRANCH   6   9
ATOM      9  C   UNL     1      -4.830   1.058   0.031  0.00  0.00    +0.076 A 
ATOM     10  C   UNL     1      -6.129   1.533   0.039  0.00  0.00    +0.024 A 
ATOM     11  C   UNL     1      -7.165   0.606   0.032  0.00  0.00    -0.036 A 
ATOM     12  C   UNL     1      -6.809  -0.699   0.046  0.00  0.00    -0.006 A 
ATOM     13  S   UNL     1      -5.089  -0.709   0.014  0.00  0.00    -0.088 S 
ATOM     14  C   UNL     1      -7.742  -1.888   0.095  0.00  0.00    +0.043 C 
ATOM     15  C   UNL     1      -8.484  -1.939  -1.252  0.00  0.00    +0.005 C 
ATOM     16  C   UNL     1      -9.606  -0.928  -1.270  0.00  0.00    +0.001 C 
ATOM     17  C   UNL     1      -9.201   0.521  -1.360  0.00  0.00    +0.005 C 
ATOM     18  C   UNL     1      -8.633   1.042  -0.039  0.00  0.00    +0.036 C 
ENDBRANCH   6   9
ENDBRANCH   3   5
BRANCH   1  19
ATOM     19  C   UNL     1       1.280   1.980   0.001  0.00  0.00    +0.131 C 
ATOM     20  C   UNL     1       1.668   2.341   1.436  0.00  0.00    +0.029 C 
BRANCH  19  21
ATOM     21  S   UNL     1       2.586   0.961  -0.740  0.00  0.00    -0.141 S 
BRANCH  21  22
ATOM     22  C   UNL     1       4.019   2.071  -0.815  0.00  0.00    +0.144 C 
BRANCH  22  33
ATOM     23  C   UNL     1       9.714  -0.365  -3.381  0.00  0.00    +0.045 C 
ATOM     24  C   UNL     1       8.318  -0.868  -3.117  0.00  0.00    -0.026 A 
ATOM     25  C   UNL     1       7.980  -2.129  -3.430  0.00  0.00    -0.008 A 
ATOM     26  S   UNL     1       6.270  -2.232  -2.937  0.00  0.00    -0.073 S 
ATOM     27  C   UNL     1       6.060  -0.580  -2.324  0.00  0.00    +0.116 A 
ATOM     28  C   UNL     1       7.324   0.005  -2.521  0.00  0.00    +0.075 A 
ATOM     29  C   UNL     1       7.445   1.371  -2.105  0.00  0.00    +0.260 A 
ATOM     30  O   UNL     1       8.501   1.966  -2.233  0.00  0.00    -0.267 OA
ATOM     31  N   UNL     1       6.373   1.988  -1.575  0.00  0.00    -0.310 N 
ATOM     32  H   UNL     1       6.447   2.914  -1.296  0.00  0.00    +0.170 HD
ATOM     33  C   UNL     1       5.190   1.340  -1.419  0.00  0.00    +0.121 A 
ATOM     34  N   UNL     1       5.048   0.095  -1.788  0.00  0.00    -0.226 NA
ATOM     35  C   UNL     1       8.839  -3.200  -4.051  0.00  0.00    +0.052 C 
ENDBRANCH  22  33
ENDBRANCH  21  22
ENDBRANCH  19  21
ENDBRANCH   1  19
TORSDOF 6
