REMARK  Name = ZINC15080708
REMARK  6 active torsions:
REMARK  status: ('A' for Active; 'I' for Inactive)
REMARK    1  A    between atoms: C_1  and  C_2
REMARK    2  A    between atoms: N_5  and  C_11
REMARK    3  A    between atoms: C_7  and  C_10
REMARK    4  A    between atoms: C_11  and  C_20
REMARK    5  A    between atoms: C_25  and  C_28
REMARK    6  A    between atoms: C_28  and  O_29
REMARK                            x       y       z     vdW  Elec       q    Type
REMARK                         _______ _______ _______ _____ _____    ______ ____
ROOT
ATOM      1  C   UNL     1      -2.758  -2.537   0.043  0.00  0.00    +0.107 C 
ATOM      2  C   UNL     1      -3.334  -1.982  -1.276  0.00  0.00    +0.067 C 
ATOM      3  C   UNL     1      -3.115  -3.078  -2.297  0.00  0.00    -0.042 A 
ATOM      4  C   UNL     1      -3.136  -3.033  -3.681  0.00  0.00    +0.004 A 
ATOM      5  C   UNL     1      -2.904  -4.178  -4.417  0.00  0.00    +0.000 A 
ATOM      6  C   UNL     1      -2.650  -5.374  -3.772  0.00  0.00    +0.000 A 
ATOM      7  C   UNL     1      -2.628  -5.421  -2.392  0.00  0.00    +0.004 A 
ATOM      8  C   UNL     1      -2.861  -4.274  -1.651  0.00  0.00    -0.042 A 
ATOM      9  C   UNL     1      -2.892  -4.062  -0.153  0.00  0.00    +0.067 C 
ENDROOT
BRANCH   1  13
ATOM     10  C   UNL     1       1.754  -2.671  -1.919  0.00  0.00    +0.039 C 
ATOM     11  C   UNL     1       0.923  -2.255  -0.704  0.00  0.00    +0.130 C 
ATOM     12  C   UNL     1      -0.544  -2.624  -0.936  0.00  0.00    +0.116 C 
ATOM     13  N   UNL     1      -1.349  -2.153   0.200  0.00  0.00    -0.284 NA
ATOM     14  C   UNL     1      -1.215  -0.698   0.366  0.00  0.00    +0.116 C 
ATOM     15  C   UNL     1       0.259  -0.348   0.586  0.00  0.00    +0.130 C 
ATOM     16  O   UNL     1       1.031  -0.842  -0.513  0.00  0.00    -0.371 OA
ATOM     17  C   UNL     1       0.415   1.171   0.679  0.00  0.00    +0.039 C 
ENDBRANCH   1  13
BRANCH   1  18
ATOM     18  C   UNL     1      -3.572  -2.075   1.224  0.00  0.00    +0.237 C 
ATOM     19  O   UNL     1      -4.640  -1.528   1.048  0.00  0.00    -0.274 OA
ATOM     20  N   UNL     1      -3.113  -2.270   2.477  0.00  0.00    -0.300 N 
ATOM     21  C   UNL     1      -1.881  -3.037   2.712  0.00  0.00    +0.108 C 
ATOM     22  C   UNL     1      -0.929  -2.190   3.562  0.00  0.00    +0.025 C 
ATOM     23  C   UNL     1      -1.647  -1.748   4.838  0.00  0.00    +0.017 C 
ATOM     24  C   UNL     1      -2.860  -0.889   4.472  0.00  0.00    +0.025 C 
ATOM     25  C   UNL     1      -3.831  -1.716   3.632  0.00  0.00    +0.108 C 
BRANCH  23  26
ATOM     26  C   UNL     1      -0.688  -0.931   5.706  0.00  0.00    +0.159 C 
BRANCH  26  27
ATOM     27  O   UNL     1      -1.319  -0.617   6.949  0.00  0.00    -0.395 OA
ATOM     28  H   UNL     1      -0.768  -0.098   7.551  0.00  0.00    +0.209 HD
ENDBRANCH  26  27
ENDBRANCH  23  26
ENDBRANCH   1  18
TORSDOF 4
