REMARK  Name = ZINC59597035
REMARK  9 active torsions:
REMARK  status: ('A' for Active; 'I' for Inactive)
REMARK    1  A    between atoms: C_1  and  C_2
REMARK    2  A    between atoms: C_6  and  C_38
REMARK    3  A    between atoms: C_7  and  N_8
REMARK    4  A    between atoms: N_10  and  C_32
REMARK    5  A    between atoms: C_14  and  C_15
REMARK    6  A    between atoms: C_18  and  C_20
REMARK    7  A    between atoms: C_22  and  C_30
REMARK    8  A    between atoms: C_23  and  C_29
REMARK    9  A    between atoms: C_25  and  N_26
REMARK                            x       y       z     vdW  Elec       q    Type
REMARK                         _______ _______ _______ _____ _____    ______ ____
ROOT
ATOM      1  N   UNL     1      -0.057   0.607   2.019  0.00  0.00    -0.225 NA
ATOM      2  C   UNL     1      -1.198   0.796   2.647  0.00  0.00    +0.173 C 
ATOM      3  N   UNL     1      -1.482   1.698   3.650  0.00  0.00    -0.214 N 
ATOM      4  C   UNL     1      -2.713   1.714   4.141  0.00  0.00    +0.264 C 
ATOM      5  O   UNL     1      -3.037   2.482   5.026  0.00  0.00    -0.269 OA
ATOM      6  C   UNL     1      -3.674   0.749   3.556  0.00  0.00    +0.081 C 
ATOM      7  C   UNL     1      -5.025   0.552   3.884  0.00  0.00    +0.066 C 
ATOM      8  S   UNL     1      -2.748  -0.048   2.400  0.00  0.00    -0.048 S 
ENDROOT
BRANCH   1  15
ATOM      9  C   UNL     1      -0.633   1.418  -0.644  0.00  0.00    +0.046 C 
ATOM     10  C   UNL     1      -0.239   0.008  -0.287  0.00  0.00    -0.025 A 
ATOM     11  C   UNL     1      -0.138  -0.951  -1.269  0.00  0.00    +0.005 A 
ATOM     12  C   UNL     1       0.223  -2.249  -0.942  0.00  0.00    +0.001 A 
ATOM     13  C   UNL     1       0.487  -2.594   0.374  0.00  0.00    +0.005 A 
ATOM     14  C   UNL     1       0.393  -1.648   1.371  0.00  0.00    -0.025 A 
ATOM     15  C   UNL     1       0.033  -0.330   1.049  0.00  0.00    +0.072 A 
ATOM     16  C   UNL     1       0.680  -2.026   2.801  0.00  0.00    +0.046 C 
ENDBRANCH   1  15
BRANCH   3  17
ATOM     17  C   UNL     1      -0.501   2.570   4.135  0.00  0.00    +0.043 A 
ATOM     18  C   UNL     1      -0.612   3.937   3.912  0.00  0.00    +0.024 A 
ATOM     19  C   UNL     1       0.358   4.795   4.391  0.00  0.00    +0.002 A 
ATOM     20  C   UNL     1       1.440   4.294   5.093  0.00  0.00    +0.000 A 
ATOM     21  C   UNL     1       1.554   2.934   5.316  0.00  0.00    +0.002 A 
ATOM     22  C   UNL     1       0.584   2.072   4.845  0.00  0.00    +0.024 A 
ENDBRANCH   3  17
BRANCH   7  23
ATOM     23  C   UNL     1      -5.575   1.198   4.980  0.00  0.00    +0.130 A 
ATOM     24  C   UNL     1      -6.943   1.203   5.345  0.00  0.00    +0.050 A 
ATOM     25  C   UNL     1      -7.051   1.953   6.479  0.00  0.00    +0.050 A 
ATOM     26  C   UNL     1      -5.762   2.403   6.806  0.00  0.00    +0.138 A 
ATOM     27  O   UNL     1      -4.897   1.931   5.892  0.00  0.00    -0.455 OA
BRANCH  26  28
ATOM     28  C   UNL     1      -5.416   3.245   7.956  0.00  0.00    +0.048 A 
ATOM     29  C   UNL     1      -6.137   4.422   8.213  0.00  0.00    +0.017 A 
ATOM     30  C   UNL     1      -5.804   5.205   9.295  0.00  0.00    -0.047 A 
ATOM     31  C   UNL     1      -4.761   4.836  10.130  0.00  0.00    -0.045 A 
ATOM     32  C   UNL     1      -4.043   3.677   9.884  0.00  0.00    +0.037 A 
ATOM     33  C   UNL     1      -4.365   2.876   8.810  0.00  0.00    +0.137 A 
ATOM     34  C   UNL     1      -4.405   5.701  11.311  0.00  0.00    +0.044 C 
ATOM     35  C   UNL     1      -6.577   6.469   9.573  0.00  0.00    +0.044 C 
BRANCH  33  36
ATOM     36  N   UNL     1      -3.601   1.635   8.555  0.00  0.00    +0.057 N 
ATOM     37  O   UNL     1      -2.615   1.290   9.357  0.00  0.00    -0.126 OA
ATOM     38  O   UNL     1      -3.907   0.874   7.524  0.00  0.00    -0.126 OA
ENDBRANCH  33  36
ENDBRANCH  26  28
ENDBRANCH   7  23
TORSDOF 5
