REMARK  Name = ZINC13064818
REMARK  11 active torsions:
REMARK  status: ('A' for Active; 'I' for Inactive)
REMARK    1  A    between atoms: C_1  and  C_2
REMARK    2  A    between atoms: C_2  and  C_3
REMARK    3  A    between atoms: C_3  and  C_5
REMARK    4  A    between atoms: C_3  and  N_66
REMARK    5  A    between atoms: N_9  and  C_10
REMARK    6  A    between atoms: C_15  and  C_16
REMARK    7  A    between atoms: C_15  and  N_66
REMARK    8  A    between atoms: C_21  and  C_22
REMARK    9  A    between atoms: C_21  and  N_66
REMARK   10  A    between atoms: C_25  and  C_35
REMARK   11  A    between atoms: C_27  and  C_34
REMARK                            x       y       z     vdW  Elec       q    Type
REMARK                         _______ _______ _______ _____ _____    ______ ____
ROOT
ATOM      1  N   UNL     1      -2.191   2.740   1.952  0.00  0.00    +0.394 N 
ATOM      2  H   UNL     1      -1.757   3.353   2.652  0.00  0.00    -0.080 HD
ENDROOT
BRANCH   1   3
ATOM      3  C   UNL     1      -3.377   3.420   1.388  0.00  0.00    +0.003 C 
BRANCH   3   4
ATOM      4  C   UNL     1      -3.080   4.893   1.281  0.00  0.00    +0.138 A 
ATOM      5  N   UNL     1      -2.001   5.440   0.777  0.00  0.00    -0.115 NA
ATOM      6  N   UNL     1      -2.125   6.720   0.864  0.00  0.00    -0.023 NA
ATOM      7  N   UNL     1      -3.253   7.003   1.417  0.00  0.00    -0.044 NA
ATOM      8  N   UNL     1      -3.871   5.904   1.688  0.00  0.00    -0.228 N 
BRANCH   8   9
ATOM      9  C   UNL     1      -5.186   5.778   2.322  0.00  0.00    +0.111 C 
ATOM     10  C   UNL     1      -6.265   6.429   1.432  0.00  0.00    +0.027 C 
ATOM     11  C   UNL     1      -7.241   7.088   2.440  0.00  0.00    +0.002 C 
ATOM     12  C   UNL     1      -6.289   7.625   3.537  0.00  0.00    +0.002 C 
ATOM     13  C   UNL     1      -5.202   6.538   3.660  0.00  0.00    +0.027 C 
ENDBRANCH   8   9
ENDBRANCH   3   4
BRANCH   3  15
ATOM     14  C   UNL     1      -4.146   1.404   0.129  0.00  0.00    +0.002 C 
ATOM     15  C   UNL     1      -3.703   2.862   0.001  0.00  0.00    -0.011 C 
ENDBRANCH   3  15
ENDBRANCH   1   3
BRANCH   1  16
ATOM     16  C   UNL     1      -2.595   1.476   2.603  0.00  0.00    -0.002 C 
BRANCH  16  17
ATOM     17  C   UNL     1      -3.280   1.801   3.906  0.00  0.00    +0.089 A 
ATOM     18  C   UNL     1      -4.608   1.894   4.095  0.00  0.00    +0.042 A 
ATOM     19  C   UNL     1      -4.807   2.214   5.458  0.00  0.00    +0.041 A 
ATOM     20  C   UNL     1      -3.588   2.298   6.020  0.00  0.00    +0.195 A 
ATOM     21  O   UNL     1      -2.667   2.041   5.077  0.00  0.00    -0.470 OA
ENDBRANCH  16  17
ENDBRANCH   1  16
BRANCH   1  22
ATOM     22  C   UNL     1      -1.210   2.465   0.881  0.00  0.00    -0.036 C 
BRANCH  22  23
ATOM     23  C   UNL     1       0.113   2.119   1.514  0.00  0.00    +0.001 A 
ATOM     24  C   UNL     1       0.452   0.820   1.704  0.00  0.00    +0.017 A 
ATOM     25  C   UNL     1       1.747   0.517   2.316  0.00  0.00    +0.002 A 
ATOM     26  C   UNL     1       2.152  -0.804   2.536  0.00  0.00    -0.041 A 
ATOM     27  C   UNL     1       3.367  -1.053   3.109  0.00  0.00    +0.007 A 
ATOM     28  C   UNL     1       4.204  -0.007   3.475  0.00  0.00    -0.048 A 
ATOM     29  C   UNL     1       3.825   1.302   3.268  0.00  0.00    +0.029 A 
ATOM     30  C   UNL     1       2.592   1.580   2.685  0.00  0.00    +0.050 A 
ATOM     31  N   UNL     1       2.189   2.880   2.465  0.00  0.00    -0.322 N 
ATOM     32  H   UNL     1       2.773   3.611   2.720  0.00  0.00    +0.169 HD
ATOM     33  C   UNL     1       0.997   3.148   1.903  0.00  0.00    +0.251 A 
ATOM     34  O   UNL     1       0.673   4.309   1.724  0.00  0.00    -0.268 OA
ATOM     35  C   UNL     1       5.539  -0.306   4.105  0.00  0.00    +0.044 C 
ATOM     36  C   UNL     1       1.252  -1.947   2.144  0.00  0.00    +0.044 C 
ENDBRANCH  22  23
ENDBRANCH   1  22
TORSDOF 8
