REMARK  Name = ZINC09053499
REMARK  9 active torsions:
REMARK  status: ('A' for Active; 'I' for Inactive)
REMARK    1  A    between atoms: C_1  and  O_2
REMARK    2  A    between atoms: O_2  and  C_3
REMARK    3  A    between atoms: C_3  and  C_4
REMARK    4  A    between atoms: C_4  and  N_5
REMARK    5  A    between atoms: N_5  and  C_6
REMARK    6  A    between atoms: C_12  and  C_14
REMARK    7  A    between atoms: C_14  and  N_69
REMARK    8  A    between atoms: N_17  and  S_20
REMARK    9  A    between atoms: S_20  and  C_23
REMARK                            x       y       z     vdW  Elec       q    Type
REMARK                         _______ _______ _______ _____ _____    ______ ____
ROOT
ATOM      1  C   UNL     1      -0.624   1.504  -1.284  0.00  0.00    -0.061 C 
ATOM      2  C   UNL     1       0.521   1.119  -0.342  0.00  0.00    +0.091 C 
ATOM      3  N   UNL     1       0.198   1.595   1.012  0.00  0.00    -0.180 NA
ATOM      4  C   UNL     1      -0.205   3.000   1.177  0.00  0.00    +0.091 C 
ATOM      5  C   UNL     1      -1.321   3.312   0.174  0.00  0.00    -0.061 C 
ATOM      6  N   UNL     1      -0.851   2.962  -1.184  0.00  0.00    +0.387 N 
ATOM      7  H   UNL     1       0.034   3.450  -1.365  0.00  0.00    -0.081 HD
ENDROOT
BRANCH   3   8
ATOM      8  S   UNL     1       0.279   0.574   2.314  0.00  0.00    +0.061 S 
ATOM      9  O   UNL     1      -0.585   1.113   3.306  0.00  0.00    -0.153 OA
ATOM     10  O   UNL     1       0.127  -0.744   1.806  0.00  0.00    -0.153 OA
BRANCH   8  11
ATOM     11  C   UNL     1       1.915   0.681   2.958  0.00  0.00    +0.109 A 
ATOM     12  C   UNL     1       2.896  -0.175   2.493  0.00  0.00    +0.032 A 
ATOM     13  C   UNL     1       4.184  -0.094   2.990  0.00  0.00    +0.051 A 
ATOM     14  C   UNL     1       4.485   0.842   3.966  0.00  0.00    +0.162 A 
ATOM     15  C   UNL     1       3.500   1.697   4.437  0.00  0.00    +0.164 A 
ATOM     16  C   UNL     1       2.213   1.617   3.933  0.00  0.00    +0.078 A 
ATOM     17  O   UNL     1       3.807   2.616   5.397  0.00  0.00    -0.488 OA
ATOM     18  C   UNL     1       4.116   2.090   6.689  0.00  0.00    +0.232 C 
ATOM     19  C   UNL     1       5.578   1.681   6.770  0.00  0.00    +0.082 C 
ATOM     20  C   UNL     1       5.911   0.532   5.832  0.00  0.00    +0.232 C 
ATOM     21  O   UNL     1       5.751   0.929   4.468  0.00  0.00    -0.488 OA
ENDBRANCH   8  11
ENDBRANCH   3   8
BRANCH   6  22
ATOM     22  C   UNL     1      -1.848   3.388  -2.188  0.00  0.00    +0.019 C 
BRANCH  22  24
ATOM     23  N   UNL     1      -3.051   5.470  -2.766  0.00  0.00    -0.275 N 
ATOM     24  C   UNL     1      -2.080   4.870  -2.049  0.00  0.00    +0.203 C 
ATOM     25  O   UNL     1      -1.394   5.523  -1.292  0.00  0.00    -0.277 OA
BRANCH  23  26
ATOM     26  C   UNL     1      -3.925   4.704  -3.533  0.00  0.00    +0.010 C 
ATOM     27  C   UNL     1      -3.461   4.147  -4.617  0.00  0.00    -0.008 C 
ATOM     28  C   UNL     1      -4.286   3.304  -5.545  0.00  0.00    +0.029 C 
ATOM     29  C   UNL     1      -5.568   2.850  -4.844  0.00  0.00    +0.004 C 
ATOM     30  C   UNL     1      -6.233   4.076  -4.205  0.00  0.00    +0.006 C 
ATOM     31  C   UNL     1      -5.341   4.564  -3.059  0.00  0.00    +0.051 C 
ENDBRANCH  23  26
BRANCH  23  32
ATOM     32  C   UNL     1      -3.186   6.929  -2.739  0.00  0.00    +0.141 C 
BRANCH  32  33
ATOM     33  C   UNL     1      -2.331   7.541  -3.850  0.00  0.00    +0.178 C 
BRANCH  33  35
ATOM     34  C   UNL     1      -2.110   7.658  -6.234  0.00  0.00    +0.194 C 
ATOM     35  O   UNL     1      -2.841   7.138  -5.122  0.00  0.00    -0.381 OA
ENDBRANCH  33  35
ENDBRANCH  32  33
ENDBRANCH  23  32
ENDBRANCH  22  24
ENDBRANCH   6  22
TORSDOF 8
