REMARK  Name = ZINC35933317
REMARK  7 active torsions:
REMARK  status: ('A' for Active; 'I' for Inactive)
REMARK    1  A    between atoms: C_1  and  C_2
REMARK    2  A    between atoms: C_7  and  C_8
REMARK    3  A    between atoms: N_17  and  C_18
REMARK    4  A    between atoms: C_18  and  C_19
REMARK    5  A    between atoms: C_27  and  C_29
REMARK    6  A    between atoms: C_29  and  S_30
REMARK    7  A    between atoms: S_30  and  C_31
REMARK                            x       y       z     vdW  Elec       q    Type
REMARK                         _______ _______ _______ _____ _____    ______ ____
ROOT
ATOM      1  C   UNL     1       2.035  -1.041   3.220  0.00  0.00    +0.020 C 
ENDROOT
BRANCH   1  10
ATOM      2  C   UNL     1       0.025   0.045   2.504  0.00  0.00    -0.005 C 
ATOM      3  C   UNL     1      -1.408   0.381   2.904  0.00  0.00    -0.047 A 
ATOM      4  C   UNL     1      -2.385   0.814   2.011  0.00  0.00    +0.010 A 
ATOM      5  C   UNL     1      -3.634   1.088   2.455  0.00  0.00    +0.045 A 
ATOM      6  S   UNL     1      -3.490   0.739   4.202  0.00  0.00    -0.101 S 
ATOM      7  C   UNL     1      -1.786   0.260   4.208  0.00  0.00    -0.010 A 
ATOM      8  C   UNL     1      -0.922  -0.178   5.345  0.00  0.00    +0.024 C 
ATOM      9  C   UNL     1       0.538  -0.138   4.860  0.00  0.00    -0.072 C 
ATOM     10  N   UNL     1       0.625  -0.795   3.549  0.00  0.00    +0.393 N 
ATOM     11  H   UNL     1       0.135  -1.676   3.587  0.00  0.00    -0.080 HD
BRANCH   2  18
ATOM     12  C   UNL     1      -0.018   1.503   0.010  0.00  0.00    +0.044 C 
ATOM     13  C   UNL     1       0.002  -0.004   0.002  0.00  0.00    -0.049 A 
ATOM     14  C   UNL     1       0.006  -0.689  -1.199  0.00  0.00    +0.003 A 
ATOM     15  C   UNL     1       0.025  -2.071  -1.207  0.00  0.00    +0.000 A 
ATOM     16  C   UNL     1       0.040  -2.768  -0.013  0.00  0.00    +0.000 A 
ATOM     17  C   UNL     1       0.037  -2.084   1.188  0.00  0.00    +0.002 A 
ATOM     18  C   UNL     1       0.023  -0.702   1.195  0.00  0.00    -0.054 A 
ENDBRANCH   2  18
ENDBRANCH   1  10
BRANCH   1  19
ATOM     19  C   UNL     1       2.623  -2.001   4.221  0.00  0.00    +0.199 C 
ATOM     20  O   UNL     1       1.935  -2.438   5.120  0.00  0.00    -0.278 OA
ATOM     21  N   UNL     1       3.914  -2.375   4.118  0.00  0.00    -0.300 N 
ATOM     22  C   UNL     1       4.761  -1.850   3.038  0.00  0.00    +0.126 C 
ATOM     23  C   UNL     1       6.004  -1.202   3.662  0.00  0.00    +0.127 C 
ATOM     24  N   UNL     1       6.590  -2.142   4.628  0.00  0.00    -0.298 N 
ATOM     25  C   UNL     1       5.742  -2.667   5.707  0.00  0.00    +0.127 C 
ATOM     26  C   UNL     1       4.501  -3.311   5.088  0.00  0.00    +0.126 C 
ATOM     27  C   UNL     1       7.880  -2.516   4.524  0.00  0.00    +0.226 C 
ATOM     28  O   UNL     1       8.569  -2.076   3.629  0.00  0.00    -0.275 OA
BRANCH  27  29
ATOM     29  C   UNL     1       8.467  -3.481   5.522  0.00  0.00    +0.170 C 
BRANCH  29  30
ATOM     30  S   UNL     1      10.209  -3.784   5.118  0.00  0.00    -0.116 S 
BRANCH  30  31
ATOM     31  C   UNL     1      10.744  -4.915   6.358  0.00  0.00    +0.008 A 
ATOM     32  C   UNL     1       9.855  -5.352   7.332  0.00  0.00    +0.015 A 
ATOM     33  C   UNL     1      10.278  -6.239   8.303  0.00  0.00    +0.001 A 
ATOM     34  C   UNL     1      11.585  -6.692   8.306  0.00  0.00    +0.000 A 
ATOM     35  C   UNL     1      12.473  -6.258   7.338  0.00  0.00    +0.001 A 
ATOM     36  C   UNL     1      12.055  -5.377   6.361  0.00  0.00    +0.015 A 
ENDBRANCH  30  31
ENDBRANCH  29  30
ENDBRANCH  27  29
ENDBRANCH   1  19
TORSDOF 6
