REMARK  Name = ZINC37271853
REMARK  8 active torsions:
REMARK  status: ('A' for Active; 'I' for Inactive)
REMARK    1  A    between atoms: C_1  and  C_2
REMARK    2  A    between atoms: C_2  and  C_4
REMARK    3  A    between atoms: C_2  and  N_11
REMARK    4  A    between atoms: N_11  and  C_12
REMARK    5  A    between atoms: C_18  and  C_20
REMARK    6  A    between atoms: C_20  and  C_21
REMARK    7  A    between atoms: C_20  and  C_22
REMARK    8  A    between atoms: C_20  and  C_23
REMARK                            x       y       z     vdW  Elec       q    Type
REMARK                         _______ _______ _______ _____ _____    ______ ____
ROOT
ATOM      1  N   UNL     1      -1.319  -0.226  -0.364  0.00  0.00    +0.385 N 
ATOM      2  H   UNL     1      -1.944  -0.191   0.426  0.00  0.00    -0.085 HD
ATOM      3  H   UNL     1      -0.640   0.517  -0.290  0.00  0.00    -0.085 HD
ENDROOT
BRANCH   1   4
ATOM      4  C   UNL     1      -2.088  -0.064  -1.605  0.00  0.00    -0.067 C 
ATOM      5  C   UNL     1      -2.076   1.408  -2.024  0.00  0.00    -0.015 C 
ATOM      6  C   UNL     1      -2.707   2.257  -0.918  0.00  0.00    -0.002 C 
ATOM      7  C   UNL     1      -4.150   1.804  -0.687  0.00  0.00    +0.000 C 
ATOM      8  C   UNL     1      -4.161   0.332  -0.269  0.00  0.00    +0.002 C 
ATOM      9  C   UNL     1      -3.530  -0.517  -1.374  0.00  0.00    -0.020 C 
BRANCH   9  10
ATOM     10  C   UNL     1      -3.542  -1.989  -0.956  0.00  0.00    -0.036 C 
ATOM     11  C   UNL     1      -3.057  -2.112   0.490  0.00  0.00    +0.011 C 
ATOM     12  C   UNL     1      -4.965  -2.539  -1.064  0.00  0.00    +0.011 C 
ATOM     13  C   UNL     1      -2.615  -2.787  -1.874  0.00  0.00    +0.011 C 
ENDBRANCH   9  10
ENDBRANCH   1   4
BRANCH   1  15
ATOM     14  C   UNL     1      -0.010  -1.750  -1.765  0.00  0.00    -0.009 C 
ATOM     15  C   UNL     1      -0.626  -1.521  -0.383  0.00  0.00    -0.044 C 
BRANCH  15  16
ATOM     16  C   UNL     1       0.463  -1.524   0.659  0.00  0.00    -0.062 A 
ATOM     17  C   UNL     1       1.232  -0.393   0.858  0.00  0.00    +0.003 A 
ATOM     18  C   UNL     1       2.230  -0.395   1.813  0.00  0.00    +0.014 A 
ATOM     19  C   UNL     1       2.461  -1.529   2.570  0.00  0.00    +0.013 A 
ATOM     20  C   UNL     1       1.691  -2.661   2.371  0.00  0.00    +0.014 A 
ATOM     21  C   UNL     1       0.689  -2.656   1.419  0.00  0.00    +0.003 A 
ATOM     22  I   UNL     1       3.975  -1.533   4.018  0.00  0.00    -0.044 I 
ENDBRANCH  15  16
ENDBRANCH   1  15
TORSDOF 4
