REMARK  Name = ZINC40605080
REMARK  4 active torsions:
REMARK  status: ('A' for Active; 'I' for Inactive)
REMARK    1  A    between atoms: C_5  and  C_8
REMARK    2  A    between atoms: C_8  and  C_9
REMARK    3  A    between atoms: N_14  and  C_15
REMARK    4  A    between atoms: C_15  and  C_16
REMARK                            x       y       z     vdW  Elec       q    Type
REMARK                         _______ _______ _______ _____ _____    ______ ____
ROOT
ATOM      1  C   UNL     1      -0.205   1.466   0.072  0.00  0.00    +0.003 C 
ATOM      2  C   UNL     1       1.194   2.056  -0.123  0.00  0.00    +0.019 C 
ATOM      3  C   UNL     1       2.088   1.638   1.048  0.00  0.00    +0.109 C 
ATOM      4  N   UNL     1       2.062   0.173   1.163  0.00  0.00    -0.282 N 
ATOM      5  C   UNL     1       0.762  -0.504   1.265  0.00  0.00    +0.088 C 
ATOM      6  C   UNL     1      -0.118  -0.062   0.092  0.00  0.00    +0.023 C 
ATOM      7  C   UNL     1       3.208  -0.536   1.175  0.00  0.00    +0.303 C 
ATOM      8  O   UNL     1       3.178  -1.737   1.359  0.00  0.00    -0.253 OA
ATOM      9  N   UNL     1       4.388   0.087   0.982  0.00  0.00    -0.297 N 
ATOM     10  H   UNL     1       4.419   1.054   0.910  0.00  0.00    +0.150 HD
ENDROOT
BRANCH   5  11
ATOM     11  C   UNL     1       0.968  -2.019   1.213  0.00  0.00    +0.147 C 
BRANCH  11  12
ATOM     12  C   UNL     1       1.478  -2.503   2.546  0.00  0.00    +0.358 C 
ATOM     13  O   UNL     1       1.661  -1.709   3.453  0.00  0.00    -0.246 OA
ATOM     14  O   UNL     1       1.709  -3.688   2.717  0.00  0.00    -0.246 OA
ENDBRANCH  11  12
ENDBRANCH   5  11
BRANCH   9  15
ATOM     15  C   UNL     1       5.622  -0.696   0.883  0.00  0.00    +0.139 C 
BRANCH  15  16
ATOM     16  C   UNL     1       6.808   0.247   0.667  0.00  0.00    +0.161 C 
ATOM     17  C   UNL     1       8.098  -0.570   0.559  0.00  0.00    +0.193 C 
ATOM     18  O   UNL     1       9.184   0.307   0.246  0.00  0.00    -0.375 OA
ATOM     19  C   UNL     1       8.994   1.045  -0.964  0.00  0.00    +0.188 C 
ATOM     20  C   UNL     1       7.704   1.862  -0.857  0.00  0.00    +0.188 C 
ATOM     21  O   UNL     1       6.617   0.986  -0.543  0.00  0.00    -0.370 OA
ENDBRANCH  15  16
ENDBRANCH   9  15
TORSDOF 4
