REMARK  Name = ZINC08943843
REMARK  13 active torsions:
REMARK  status: ('A' for Active; 'I' for Inactive)
REMARK    1  A    between atoms: C_1  and  C_2
REMARK    2  A    between atoms: C_4  and  C_33
REMARK    3  A    between atoms: C_5  and  N_9
REMARK    4  A    between atoms: C_6  and  C_8
REMARK    5  A    between atoms: C_10  and  C_12
REMARK    6  A    between atoms: C_12  and  N_65
REMARK    7  A    between atoms: C_13  and  N_65
REMARK    8  A    between atoms: C_14  and  C_15
REMARK    9  A    between atoms: C_14  and  N_65
REMARK   10  A    between atoms: C_17  and  C_20
REMARK   11  A    between atoms: C_22  and  C_32
REMARK   12  A    between atoms: C_24  and  C_25
REMARK   13  A    between atoms: C_28  and  C_31
REMARK                            x       y       z     vdW  Elec       q    Type
REMARK                         _______ _______ _______ _____ _____    ______ ____
ROOT
ATOM      1  C   UNL     1       1.587   2.226  -0.226  0.00  0.00    -0.015 C 
ENDROOT
BRANCH   1   2
ATOM      2  C   UNL     1       1.397   3.468   0.607  0.00  0.00    +0.063 A 
ATOM      3  N   UNL     1       0.379   3.802   1.362  0.00  0.00    -0.246 NA
ATOM      4  C   UNL     1       0.365   4.939   2.039  0.00  0.00    +0.080 A 
ATOM      5  C   UNL     1       1.451   5.764   1.928  0.00  0.00    +0.075 A 
ATOM      6  S   UNL     1       2.475   4.813   0.815  0.00  0.00    -0.082 S 
BRANCH   4   7
ATOM      7  C   UNL     1      -0.792   5.309   2.892  0.00  0.00    +0.022 A 
ATOM      8  C   UNL     1      -0.882   6.436   3.749  0.00  0.00    +0.033 A 
ATOM      9  C   UNL     1      -2.092   6.401   4.337  0.00  0.00    +0.023 A 
ATOM     10  N   UNL     1      -2.762   5.299   3.884  0.00  0.00    -0.299 N 
ATOM     11  C   UNL     1      -1.967   4.633   2.994  0.00  0.00    +0.032 A 
ATOM     12  C   UNL     1      -2.329   3.370   2.256  0.00  0.00    +0.064 C 
ATOM     13  C   UNL     1      -4.053   4.919   4.265  0.00  0.00    +0.181 A 
ATOM     14  C   UNL     1      -5.197   5.755   4.350  0.00  0.00    +0.094 A 
ATOM     15  C   UNL     1      -6.181   4.920   4.758  0.00  0.00    +0.136 A 
ATOM     16  O   UNL     1      -5.624   3.708   4.890  0.00  0.00    -0.358 OA
ATOM     17  N   UNL     1      -4.448   3.721   4.608  0.00  0.00    -0.060 NA
ATOM     18  C   UNL     1      -7.621   5.283   5.014  0.00  0.00    +0.089 C 
ATOM     19  C   UNL     1      -2.618   7.406   5.329  0.00  0.00    +0.064 C 
ENDBRANCH   4   7
ENDBRANCH   1   2
BRANCH   1  21
ATOM     20  C   UNL     1       1.842   3.476  -2.284  0.00  0.00    -0.095 C 
ATOM     21  N   UNL     1       1.029   2.466  -1.574  0.00  0.00    +0.388 N 
ATOM     22  H   UNL     1       0.069   2.817  -1.479  0.00  0.00    -0.081 HD
BRANCH  21  23
ATOM     23  C   UNL     1       1.006   1.204  -2.343  0.00  0.00    +0.019 C 
BRANCH  23  25
ATOM     24  N   UNL     1       0.060   0.411  -4.487  0.00  0.00    -0.287 N 
ATOM     25  C   UNL     1       0.236   1.428  -3.619  0.00  0.00    +0.201 C 
ATOM     26  O   UNL     1      -0.225   2.522  -3.866  0.00  0.00    -0.278 OA
ATOM     27  H   UNL     1       0.488  -0.444  -4.324  0.00  0.00    +0.155 HD
BRANCH  24  32
ATOM     28  C   UNL     1      -3.180   1.136  -9.087  0.00  0.00    +0.044 C 
ATOM     29  C   UNL     1      -2.319   0.943  -7.865  0.00  0.00    -0.050 A 
ATOM     30  C   UNL     1      -1.041   0.431  -7.995  0.00  0.00    +0.008 A 
ATOM     31  C   UNL     1      -0.250   0.254  -6.877  0.00  0.00    -0.029 A 
ATOM     32  C   UNL     1      -0.739   0.590  -5.621  0.00  0.00    +0.039 A 
ATOM     33  C   UNL     1      -2.025   1.098  -5.493  0.00  0.00    -0.029 A 
ATOM     34  C   UNL     1      -2.809   1.279  -6.616  0.00  0.00    +0.008 A 
ATOM     35  C   UNL     1      -2.562   1.458  -4.132  0.00  0.00    +0.045 C 
ATOM     36  C   UNL     1       1.143  -0.303  -7.019  0.00  0.00    +0.045 C 
ENDBRANCH  24  32
ENDBRANCH  23  25
ENDBRANCH  21  23
ENDBRANCH   1  21
TORSDOF 6
