REMARK  Name = ZINC41022248
REMARK  11 active torsions:
REMARK  status: ('A' for Active; 'I' for Inactive)
REMARK    1  A    between atoms: C_1  and  N_2
REMARK    2  A    between atoms: N_2  and  C_3
REMARK    3  A    between atoms: N_2  and  C_4
REMARK    4  A    between atoms: C_4  and  C_6
REMARK    5  A    between atoms: C_4  and  C_24
REMARK    6  A    between atoms: C_6  and  N_7
REMARK    7  A    between atoms: C_8  and  C_10
REMARK    8  A    between atoms: C_10  and  C_11
REMARK    9  A    between atoms: C_11  and  C_12
REMARK   10  A    between atoms: C_15  and  C_17
REMARK   11  A    between atoms: C_27  and  C_30
REMARK                            x       y       z     vdW  Elec       q    Type
REMARK                         _______ _______ _______ _____ _____    ______ ____
ROOT
ATOM      1  N   UNL     1       0.204  -2.151   0.754  0.00  0.00    -0.317 N 
ATOM      2  C   UNL     1       0.640  -3.421   0.866  0.00  0.00    +0.213 C 
ATOM      3  O   UNL     1       0.253  -4.266   0.086  0.00  0.00    -0.276 OA
ATOM      4  H   UNL     1       0.514  -1.475   1.378  0.00  0.00    +0.149 HD
ENDROOT
BRANCH   1   5
ATOM      5  C   UNL     1      -0.738  -1.790  -0.308  0.00  0.00    +0.093 C 
BRANCH   5   6
ATOM      6  C   UNL     1      -1.168  -0.333  -0.135  0.00  0.00    -0.021 C 
BRANCH   6   7
ATOM      7  C   UNL     1      -1.946  -0.188   1.148  0.00  0.00    -0.059 A 
ATOM      8  C   UNL     1      -3.277  -0.556   1.195  0.00  0.00    +0.002 A 
ATOM      9  C   UNL     1      -3.990  -0.423   2.371  0.00  0.00    +0.012 A 
ATOM     10  C   UNL     1      -3.372   0.078   3.502  0.00  0.00    +0.055 A 
ATOM     11  C   UNL     1      -2.040   0.446   3.455  0.00  0.00    +0.012 A 
ATOM     12  C   UNL     1      -1.326   0.309   2.279  0.00  0.00    +0.002 A 
BRANCH  10  13
ATOM     13  C   UNL     1      -4.149   0.224   4.784  0.00  0.00    +0.417 C 
ATOM     14  F   UNL     1      -4.040  -0.954   5.532  0.00  0.00    -0.166 F 
ATOM     15  F   UNL     1      -3.634   1.294   5.523  0.00  0.00    -0.166 F 
ATOM     16  F   UNL     1      -5.495   0.466   4.489  0.00  0.00    -0.166 F 
ENDBRANCH  10  13
ENDBRANCH   6   7
BRANCH   6  18
ATOM     17  C   UNL     1      -2.469   1.450  -1.076  0.00  0.00    -0.096 C 
ATOM     18  N   UNL     1      -2.014   0.066  -1.268  0.00  0.00    +0.382 N 
ATOM     19  C   UNL     1      -1.241  -0.027  -2.513  0.00  0.00    -0.096 C 
ATOM     20  H   UNL     1      -2.814  -0.546  -1.322  0.00  0.00    -0.082 HD
ENDBRANCH   6  18
ENDBRANCH   5   6
ENDBRANCH   1   5
BRANCH   2  21
ATOM     21  C   UNL     1       1.609  -3.792   1.959  0.00  0.00    +0.105 C 
BRANCH  21  22
ATOM     22  C   UNL     1       1.941  -5.283   1.863  0.00  0.00    +0.105 C 
BRANCH  22  23
ATOM     23  C   UNL     1       2.909  -5.653   2.956  0.00  0.00    +0.197 A 
ATOM     24  N   UNL     1       2.583  -6.068   4.148  0.00  0.00    -0.221 NA
ATOM     25  C   UNL     1       3.702  -6.302   4.848  0.00  0.00    +0.161 A 
ATOM     26  C   UNL     1       4.756  -6.016   4.042  0.00  0.00    +0.155 A 
ATOM     27  O   UNL     1       4.245  -5.616   2.857  0.00  0.00    -0.440 OA
BRANCH  26  28
ATOM     28  C   UNL     1       6.189  -6.127   4.391  0.00  0.00    +0.019 A 
ATOM     29  C   UNL     1       7.167  -5.790   3.454  0.00  0.00    +0.013 A 
ATOM     30  C   UNL     1       8.501  -5.896   3.786  0.00  0.00    +0.021 A 
ATOM     31  C   UNL     1       8.872  -6.335   5.046  0.00  0.00    +0.041 A 
ATOM     32  C   UNL     1       7.906  -6.671   5.980  0.00  0.00    +0.021 A 
ATOM     33  C   UNL     1       6.568  -6.564   5.662  0.00  0.00    +0.013 A 
ATOM     34 CL   UNL     1      10.553  -6.465   5.457  0.00  0.00    -0.084 Cl
ENDBRANCH  26  28
ENDBRANCH  22  23
ENDBRANCH  21  22
ENDBRANCH   2  21
TORSDOF 9
