REMARK  Name = ZINC35991745
REMARK  9 active torsions:
REMARK  status: ('A' for Active; 'I' for Inactive)
REMARK    1  A    between atoms: C_1  and  C_2
REMARK    2  A    between atoms: C_2  and  O_3
REMARK    3  A    between atoms: O_3  and  C_4
REMARK    4  A    between atoms: C_4  and  C_6
REMARK    5  A    between atoms: C_7  and  C_24
REMARK    6  A    between atoms: N_8  and  C_21
REMARK    7  A    between atoms: C_12  and  C_14
REMARK    8  A    between atoms: C_21  and  C_22
REMARK    9  A    between atoms: C_24  and  N_25
REMARK                            x       y       z     vdW  Elec       q    Type
REMARK                         _______ _______ _______ _____ _____    ______ ____
ROOT
ATOM      1  C   UNL     1      -2.092  -2.360  -0.151  0.00  0.00    +0.076 C 
ATOM      2  C   UNL     1      -2.501  -3.645  -0.082  0.00  0.00    +0.011 C 
ATOM      3  N   UNL     1      -3.827  -3.960  -0.001  0.00  0.00    -0.257 N 
ATOM      4  C   UNL     1      -4.807  -3.047   0.017  0.00  0.00    +0.307 C 
ATOM      5  O   UNL     1      -5.960  -3.424   0.092  0.00  0.00    -0.252 OA
ATOM      6  N   UNL     1      -4.556  -1.724  -0.044  0.00  0.00    -0.288 N 
ATOM      7  C   UNL     1      -3.154  -1.280  -0.128  0.00  0.00    +0.143 C 
ATOM      8  H   UNL     1      -5.281  -1.080  -0.030  0.00  0.00    +0.151 HD
ENDROOT
BRANCH   7   9
ATOM      9  C   UNL     1      -2.876  -0.380   1.048  0.00  0.00    -0.022 A 
ATOM     10  C   UNL     1      -3.256  -0.766   2.320  0.00  0.00    +0.007 A 
ATOM     11  C   UNL     1      -3.002   0.059   3.399  0.00  0.00    +0.020 A 
ATOM     12  C   UNL     1      -2.366   1.273   3.206  0.00  0.00    +0.041 A 
ATOM     13  C   UNL     1      -1.986   1.659   1.933  0.00  0.00    +0.020 A 
ATOM     14  C   UNL     1      -2.236   0.831   0.856  0.00  0.00    +0.007 A 
ATOM     15 CL   UNL     1      -2.046   2.310   4.561  0.00  0.00    -0.084 Cl
ENDBRANCH   7   9
BRANCH   1  16
ATOM     16  C   UNL     1      -0.718  -2.033  -0.235  0.00  0.00    +0.339 C 
ATOM     17  O   UNL     1       0.122  -2.910  -0.159  0.00  0.00    -0.245 OA
BRANCH  16  18
ATOM     18  O   UNL     1      -0.339  -0.748  -0.399  0.00  0.00    -0.462 OA
BRANCH  18  20
ATOM     19  C   UNL     1       1.298   1.010  -0.661  0.00  0.00    +0.048 C 
ATOM     20  C   UNL     1       1.064  -0.490  -0.476  0.00  0.00    +0.229 C 
ENDBRANCH  18  20
ENDBRANCH  16  18
ENDBRANCH   1  16
BRANCH   3  21
ATOM     21  C   UNL     1      -4.199  -5.375   0.070  0.00  0.00    +0.141 C 
BRANCH  21  22
ATOM     22  C   UNL     1      -4.329  -5.788   1.513  0.00  0.00    -0.015 C 
ATOM     23  C   UNL     1      -5.440  -6.336   1.940  0.00  0.00    +0.005 C 
ENDBRANCH  21  22
ENDBRANCH   3  21
BRANCH   2  24
ATOM     24  C   UNL     1      -1.476  -4.750  -0.097  0.00  0.00    -0.026 C 
BRANCH  24  25
ATOM     25  N   UNL     1      -1.042  -4.997  -1.478  0.00  0.00    +0.383 N 
ATOM     26  C   UNL     1      -2.173  -5.508  -2.262  0.00  0.00    -0.078 C 
ATOM     27  C   UNL     1      -1.747  -5.690  -3.720  0.00  0.00    -0.019 C 
ATOM     28  C   UNL     1      -0.587  -6.687  -3.787  0.00  0.00    -0.004 C 
ATOM     29  C   UNL     1       0.559  -6.180  -2.907  0.00  0.00    -0.019 C 
ATOM     30  C   UNL     1       0.048  -5.980  -1.479  0.00  0.00    -0.078 C 
ATOM     31  H   UNL     1      -0.715  -4.134  -1.886  0.00  0.00    -0.081 HD
ENDBRANCH  24  25
ENDBRANCH   2  24
TORSDOF 8
