REMARK  Name = ZINC44854126
REMARK  12 active torsions:
REMARK  status: ('A' for Active; 'I' for Inactive)
REMARK    1  A    between atoms: C_1  and  C_2
REMARK    2  A    between atoms: N_5  and  C_8
REMARK    3  A    between atoms: C_11  and  C_14
REMARK    4  A    between atoms: C_14  and  C_16
REMARK    5  A    between atoms: C_14  and  N_17
REMARK    6  A    between atoms: C_18  and  C_20
REMARK    7  A    between atoms: N_23  and  S_35
REMARK    8  A    between atoms: C_26  and  C_31
REMARK    9  A    between atoms: C_31  and  C_32
REMARK   10  A    between atoms: C_31  and  C_33
REMARK   11  A    between atoms: C_31  and  C_34
REMARK   12  A    between atoms: S_35  and  C_38
REMARK                            x       y       z     vdW  Elec       q    Type
REMARK                         _______ _______ _______ _____ _____    ______ ____
ROOT
ATOM      1  N   UNL     1      -2.079  -6.090   6.085  0.00  0.00    -0.306 N 
ATOM      2  C   UNL     1      -2.755  -6.492   7.179  0.00  0.00    +0.256 C 
ATOM      3  O   UNL     1      -3.809  -7.079   7.059  0.00  0.00    -0.272 OA
ATOM      4  H   UNL     1      -1.236  -5.621   6.181  0.00  0.00    +0.149 HD
ENDROOT
BRANCH   2   5
ATOM      5  C   UNL     1      -2.202  -6.211   8.552  0.00  0.00    +0.277 C 
ATOM      6  C   UNL     1      -2.175  -4.695   8.796  0.00  0.00    +0.185 C 
ATOM      7  N   UNL     1      -1.675  -4.473  10.163  0.00  0.00    -0.200 N 
ATOM      8  C   UNL     1      -2.150  -5.320  11.177  0.00  0.00    +0.093 A 
ATOM      9  C   UNL     1      -1.948  -4.990  12.508  0.00  0.00    +0.032 A 
ATOM     10  C   UNL     1      -2.415  -5.830  13.504  0.00  0.00    -0.040 A 
ATOM     11  C   UNL     1      -3.081  -6.994  13.171  0.00  0.00    +0.008 A 
ATOM     12  C   UNL     1      -3.286  -7.327  11.845  0.00  0.00    +0.048 A 
ATOM     13  C   UNL     1      -2.823  -6.491  10.841  0.00  0.00    +0.144 A 
ATOM     14  O   UNL     1      -3.034  -6.824   9.539  0.00  0.00    -0.476 OA
BRANCH  10  15
ATOM     15  C   UNL     1      -2.197  -5.474  14.952  0.00  0.00    -0.013 C 
ATOM     16  C   UNL     1      -2.868  -4.132  15.254  0.00  0.00    +0.015 C 
ATOM     17  C   UNL     1      -2.805  -6.560  15.841  0.00  0.00    +0.015 C 
ATOM     18  C   UNL     1      -0.696  -5.367  15.230  0.00  0.00    +0.015 C 
ENDBRANCH  10  15
BRANCH   7  19
ATOM     19  S   UNL     1      -0.591  -3.266  10.493  0.00  0.00    +0.043 S 
ATOM     20  O   UNL     1       0.103  -3.708  11.652  0.00  0.00    -0.155 OA
ATOM     21  O   UNL     1       0.102  -3.056   9.270  0.00  0.00    -0.155 OA
ATOM     22  C   UNL     1      -1.610  -1.819  10.890  0.00  0.00    +0.218 C 
ENDBRANCH   7  19
ENDBRANCH   2   5
BRANCH   1  23
ATOM     23  C   UNL     1      -2.617  -6.364   4.750  0.00  0.00    +0.100 C 
ATOM     24  C   UNL     1      -2.202  -7.770   4.311  0.00  0.00    +0.033 C 
BRANCH  23  28
ATOM     25  C   UNL     1      -1.080  -3.494   1.980  0.00  0.00    +0.030 A 
ATOM     26  C   UNL     1      -2.407  -3.899   1.899  0.00  0.00    +0.023 A 
ATOM     27  C   UNL     1      -2.900  -4.827   2.795  0.00  0.00    +0.007 A 
ATOM     28  C   UNL     1      -2.075  -5.352   3.773  0.00  0.00    -0.027 A 
ATOM     29  C   UNL     1      -0.754  -4.952   3.856  0.00  0.00    +0.007 A 
ATOM     30  C   UNL     1      -0.253  -4.028   2.960  0.00  0.00    +0.023 A 
BRANCH  25  35
ATOM     31  C   UNL     1      -0.045   1.525  -0.005  0.00  0.00    +0.007 C 
ATOM     32  C   UNL     1      -0.011  -0.004  -0.005  0.00  0.00    -0.011 C 
ATOM     33  C   UNL     1      -1.442  -0.546  -0.007  0.00  0.00    +0.022 C 
ATOM     34  C   UNL     1      -1.404  -2.077  -0.042  0.00  0.00    +0.105 C 
ATOM     35  N   UNL     1      -0.578  -2.556   1.075  0.00  0.00    -0.330 N 
ATOM     36  C   UNL     1       0.785  -2.029   1.222  0.00  0.00    +0.105 C 
ATOM     37  C   UNL     1       0.723  -0.498   1.244  0.00  0.00    +0.022 C 
ENDBRANCH  25  35
ENDBRANCH  23  28
ENDBRANCH   1  23
TORSDOF 6
