REMARK  Name = ZINC11763408
REMARK  7 active torsions:
REMARK  status: ('A' for Active; 'I' for Inactive)
REMARK    1  A    between atoms: C_1  and  C_2
REMARK    2  A    between atoms: C_2  and  O_3
REMARK    3  A    between atoms: O_3  and  C_4
REMARK    4  A    between atoms: C_11  and  N_62
REMARK    5  A    between atoms: C_18  and  C_20
REMARK    6  A    between atoms: C_26  and  C_31
REMARK    7  A    between atoms: C_27  and  C_30
REMARK                            x       y       z     vdW  Elec       q    Type
REMARK                         _______ _______ _______ _____ _____    ______ ____
ROOT
ATOM      1  C   UNL     1       4.547   1.830   7.955  0.00  0.00    -0.051 C 
ATOM      2  C   UNL     1       3.507   2.401   8.922  0.00  0.00    -0.012 C 
ATOM      3  C   UNL     1       2.107   2.218   8.333  0.00  0.00    +0.017 C 
ATOM      4  C   UNL     1       2.009   2.989   7.008  0.00  0.00    +0.108 C 
ATOM      5  N   UNL     1       3.097   2.542   6.127  0.00  0.00    -0.299 N 
ATOM      6  C   UNL     1       4.477   2.591   6.628  0.00  0.00    +0.093 C 
ATOM      7  C   UNL     1       2.833   2.101   4.881  0.00  0.00    +0.247 C 
ATOM      8  O   UNL     1       3.728   1.645   4.196  0.00  0.00    -0.270 OA
ENDROOT
BRANCH   7   9
ATOM      9  C   UNL     1       1.458   2.171   4.348  0.00  0.00    +0.038 A 
ATOM     10  C   UNL     1       0.649   3.278   4.642  0.00  0.00    +0.015 A 
ATOM     11  C   UNL     1      -0.623   3.358   4.157  0.00  0.00    +0.027 A 
ATOM     12  C   UNL     1      -1.135   2.337   3.359  0.00  0.00    +0.047 A 
ATOM     13  C   UNL     1      -0.332   1.220   3.056  0.00  0.00    +0.004 A 
ATOM     14  C   UNL     1       0.967   1.141   3.553  0.00  0.00    +0.023 A 
ATOM     15  C   UNL     1      -1.153   0.347   2.213  0.00  0.00    -0.022 A 
ATOM     16  C   UNL     1      -2.339   0.957   2.059  0.00  0.00    +0.017 A 
ATOM     17  N   UNL     1      -2.347   2.143   2.741  0.00  0.00    -0.358 N 
ATOM     18  H   UNL     1      -3.096   2.758   2.780  0.00  0.00    +0.166 HD
ATOM     19  C   UNL     1      -3.493   0.413   1.256  0.00  0.00    +0.063 C 
ATOM     20  C   UNL     1      -0.743  -0.979   1.625  0.00  0.00    +0.046 C 
ENDBRANCH   7   9
BRANCH   1  28
ATOM     21  C   UNL     1       9.743   3.300   8.493  0.00  0.00    +0.403 C 
ATOM     22  O   UNL     1      10.579   2.661   7.885  0.00  0.00    -0.226 OA
ATOM     23  N   UNL     1       8.557   2.738   8.800  0.00  0.00    -0.271 N 
ATOM     24  C   UNL     1       8.254   1.353   8.408  0.00  0.00    +0.092 C 
ATOM     25  C   UNL     1       6.902   1.336   7.686  0.00  0.00    -0.059 C 
ATOM     26  C   UNL     1       6.209   3.392   8.770  0.00  0.00    -0.059 C 
ATOM     27  C   UNL     1       7.532   3.493   9.536  0.00  0.00    +0.092 C 
ATOM     28  N   UNL     1       5.888   1.963   8.561  0.00  0.00    +0.385 N 
ATOM     29  H   UNL     1       5.892   1.485   9.470  0.00  0.00    -0.081 HD
BRANCH  21  30
ATOM     30  O   UNL     1      10.002   4.569   8.861  0.00  0.00    -0.451 OA
BRANCH  30  32
ATOM     31  C   UNL     1      11.409   6.551   8.996  0.00  0.00    +0.048 C 
ATOM     32  C   UNL     1      11.299   5.109   8.498  0.00  0.00    +0.230 C 
ENDBRANCH  30  32
ENDBRANCH  21  30
ENDBRANCH   1  28
TORSDOF 4
