REMARK  Name = ZINC15016686
REMARK  5 active torsions:
REMARK  status: ('A' for Active; 'I' for Inactive)
REMARK    1  A    between atoms: C_1  and  C_2
REMARK    2  A    between atoms: C_5  and  N_8
REMARK    3  A    between atoms: N_10  and  C_27
REMARK    4  A    between atoms: C_17  and  C_25
REMARK    5  A    between atoms: C_30  and  C_33
REMARK                            x       y       z     vdW  Elec       q    Type
REMARK                         _______ _______ _______ _____ _____    ______ ____
ROOT
ATOM      1  N   UNL     1      -1.236   7.869   1.140  0.00  0.00    -0.225 NA
ATOM      2  C   UNL     1      -0.765   6.777   0.586  0.00  0.00    +0.173 C 
ATOM      3  N   UNL     1      -1.464   5.756  -0.025  0.00  0.00    -0.214 N 
ATOM      4  C   UNL     1      -0.827   4.719  -0.544  0.00  0.00    +0.264 C 
ATOM      5  O   UNL     1      -1.425   3.813  -1.092  0.00  0.00    -0.269 OA
ATOM      6  C   UNL     1       0.653   4.714  -0.421  0.00  0.00    +0.091 C 
ATOM      7  C   UNL     1       1.567   3.773  -0.859  0.00  0.00    +0.065 C 
ATOM      8  C   UNL     1       1.282   2.435  -1.418  0.00  0.00    +0.011 A 
ATOM      9  C   UNL     1       0.104   1.737  -1.668  0.00  0.00    +0.014 A 
ATOM     10  C   UNL     1       0.161   0.469  -2.209  0.00  0.00    -0.049 A 
ATOM     11  C   UNL     1       1.386  -0.106  -2.503  0.00  0.00    +0.020 A 
ATOM     12  C   UNL     1       2.562   0.577  -2.260  0.00  0.00    +0.040 A 
ATOM     13  C   UNL     1       2.525   1.856  -1.714  0.00  0.00    +0.056 A 
ATOM     14  N   UNL     1       3.538   2.747  -1.376  0.00  0.00    -0.280 N 
ATOM     15  C   UNL     1       3.038   3.887  -0.870  0.00  0.00    +0.250 C 
ATOM     16  O   UNL     1       3.685   4.845  -0.489  0.00  0.00    -0.270 OA
ATOM     17 BR   UNL     1       4.223  -0.227  -2.669  0.00  0.00    -0.048 Br
ATOM     18  C   UNL     1      -1.112  -0.291  -2.481  0.00  0.00    +0.044 C 
ATOM     19  S   UNL     1       0.936   6.255   0.438  0.00  0.00    -0.048 S 
ATOM     20  H   UNL     1       4.484   2.567  -1.490  0.00  0.00    +0.155 HD
ENDROOT
BRANCH   1  25
ATOM     21  C   UNL     1       2.298  11.612   3.453  0.00  0.00    +0.044 C 
ATOM     22  C   UNL     1       1.354  10.613   2.836  0.00  0.00    -0.050 A 
ATOM     23  C   UNL     1       0.323  11.050   2.023  0.00  0.00    +0.005 A 
ATOM     24  C   UNL     1      -0.544  10.141   1.454  0.00  0.00    +0.028 A 
ATOM     25  C   UNL     1      -0.380   8.776   1.701  0.00  0.00    +0.067 A 
ATOM     26  C   UNL     1       0.659   8.342   2.528  0.00  0.00    +0.028 A 
ATOM     27  C   UNL     1       1.523   9.262   3.085  0.00  0.00    +0.005 A 
ENDBRANCH   1  25
BRANCH   3  28
ATOM     28  C   UNL     1      -2.861   5.821  -0.101  0.00  0.00    +0.044 A 
ATOM     29  C   UNL     1      -3.470   6.432  -1.189  0.00  0.00    +0.024 A 
ATOM     30  C   UNL     1      -4.848   6.489  -1.264  0.00  0.00    +0.005 A 
ATOM     31  C   UNL     1      -5.620   5.949  -0.252  0.00  0.00    -0.050 A 
ATOM     32  C   UNL     1      -5.016   5.345   0.836  0.00  0.00    +0.005 A 
ATOM     33  C   UNL     1      -3.639   5.279   0.914  0.00  0.00    +0.024 A 
ATOM     34  C   UNL     1      -7.124   6.018  -0.334  0.00  0.00    +0.044 C 
ENDBRANCH   3  28
TORSDOF 2
