REMARK  Name = ZINC36158866
REMARK  9 active torsions:
REMARK  status: ('A' for Active; 'I' for Inactive)
REMARK    1  A    between atoms: C_4  and  C_7
REMARK    2  A    between atoms: C_7  and  C_8
REMARK    3  A    between atoms: C_8  and  C_10
REMARK    4  A    between atoms: C_8  and  O_33
REMARK    5  A    between atoms: C_10  and  N_11
REMARK    6  A    between atoms: N_11  and  C_12
REMARK    7  A    between atoms: N_11  and  C_18
REMARK    8  A    between atoms: C_12  and  C_13
REMARK    9  A    between atoms: C_18  and  C_19
REMARK                            x       y       z     vdW  Elec       q    Type
REMARK                         _______ _______ _______ _____ _____    ______ ____
ROOT
ATOM      1  N   UNL     1       5.581  -2.170   3.042  0.00  0.00    +0.391 N 
ATOM      2  H   UNL     1       4.759  -2.518   3.511  0.00  0.00    -0.080 HD
ENDROOT
BRANCH   1   3
ATOM      3  C   UNL     1       5.328  -2.102   1.596  0.00  0.00    -0.046 C 
BRANCH   3   4
ATOM      4  C   UNL     1       4.857  -3.470   1.097  0.00  0.00    +0.102 C 
BRANCH   4   5
ATOM      5  O   UNL     1       3.633  -3.819   1.748  0.00  0.00    -0.393 OA
ATOM      6  H   UNL     1       2.896  -3.228   1.542  0.00  0.00    +0.210 HD
ENDBRANCH   4   5
BRANCH   4   7
ATOM      7  C   UNL     1       4.631  -3.410  -0.415  0.00  0.00    +0.064 C 
BRANCH   7  11
ATOM      8  C   UNL     1       3.652  -7.307  -1.865  0.00  0.00    +0.000 A 
ATOM      9  C   UNL     1       2.649  -6.453  -1.447  0.00  0.00    +0.000 A 
ATOM     10  C   UNL     1       2.966  -5.192  -0.978  0.00  0.00    +0.004 A 
ATOM     11  C   UNL     1       4.286  -4.785  -0.926  0.00  0.00    -0.045 A 
ATOM     12  C   UNL     1       5.289  -5.640  -1.343  0.00  0.00    +0.004 A 
ATOM     13  C   UNL     1       4.972  -6.900  -1.814  0.00  0.00    +0.000 A 
ENDBRANCH   7  11
ENDBRANCH   4   7
ENDBRANCH   3   4
ENDBRANCH   1   3
BRANCH   1  14
ATOM     14  C   UNL     1       5.900  -0.827   3.546  0.00  0.00    -0.002 C 
BRANCH  14  15
ATOM     15  C   UNL     1       4.689   0.060   3.412  0.00  0.00    +0.089 A 
ATOM     16  C   UNL     1       3.677   0.147   4.294  0.00  0.00    +0.042 A 
ATOM     17  C   UNL     1       2.763   1.093   3.775  0.00  0.00    +0.041 A 
ATOM     18  C   UNL     1       3.271   1.528   2.608  0.00  0.00    +0.195 A 
ATOM     19  O   UNL     1       4.441   0.903   2.396  0.00  0.00    -0.470 OA
ENDBRANCH  14  15
ENDBRANCH   1  14
BRANCH   1  20
ATOM     20  C   UNL     1       6.712  -3.071   3.299  0.00  0.00    -0.003 C 
BRANCH  20  21
ATOM     21  C   UNL     1       6.894  -3.236   4.786  0.00  0.00    +0.094 A 
ATOM     22  N   UNL     1       7.893  -4.029   5.251  0.00  0.00    -0.312 N 
ATOM     23  H   UNL     1       8.477  -4.478   4.619  0.00  0.00    +0.170 HD
ATOM     24  C   UNL     1       8.091  -4.205   6.572  0.00  0.00    +0.260 A 
ATOM     25  O   UNL     1       8.992  -4.920   6.975  0.00  0.00    -0.267 OA
ATOM     26  C   UNL     1       7.222  -3.536   7.494  0.00  0.00    +0.075 A 
ATOM     27  C   UNL     1       7.252  -3.581   8.963  0.00  0.00    -0.023 A 
ATOM     28  C   UNL     1       6.321  -2.861   9.612  0.00  0.00    -0.004 A 
ATOM     29  S   UNL     1       5.363  -2.086   8.329  0.00  0.00    -0.073 S 
ATOM     30  C   UNL     1       6.221  -2.740   6.922  0.00  0.00    +0.116 A 
ATOM     31  N   UNL     1       6.090  -2.610   5.604  0.00  0.00    -0.229 NA
ATOM     32  C   UNL     1       6.444  -2.987  11.106  0.00  0.00    +0.043 C 
ATOM     33  C   UNL     1       7.324  -4.238  11.319  0.00  0.00    +0.010 C 
ATOM     34  C   UNL     1       8.129  -4.281  10.005  0.00  0.00    +0.037 C 
ENDBRANCH  20  21
ENDBRANCH   1  20
TORSDOF 9
