REMARK  Name = ZINC32782752
REMARK  12 active torsions:
REMARK  status: ('A' for Active; 'I' for Inactive)
REMARK    1  A    between atoms: C_1  and  C_2
REMARK    2  A    between atoms: C_2  and  C_3
REMARK    3  A    between atoms: C_2  and  C_4
REMARK    4  A    between atoms: C_7  and  C_10
REMARK    5  A    between atoms: C_10  and  C_12
REMARK    6  A    between atoms: C_10  and  N_15
REMARK    7  A    between atoms: C_12  and  C_13
REMARK    8  A    between atoms: C_12  and  C_14
REMARK    9  A    between atoms: C_16  and  C_18
REMARK   10  A    between atoms: C_18  and  N_19
REMARK   11  A    between atoms: N_28  and  C_29
REMARK   12  A    between atoms: C_34  and  N_35
REMARK                            x       y       z     vdW  Elec       q    Type
REMARK                         _______ _______ _______ _____ _____    ______ ____
ROOT
ATOM      1  N   UNL     1       1.724  -3.848   0.054  0.00  0.00    -0.290 N 
ATOM      2  C   UNL     1       2.770  -4.278   0.804  0.00  0.00    +0.204 A 
ATOM      3  N   UNL     1       3.975  -4.410   0.332  0.00  0.00    -0.217 NA
ATOM      4  C   UNL     1       4.270  -4.125  -0.946  0.00  0.00    +0.170 A 
ATOM      5  C   UNL     1       3.252  -3.671  -1.799  0.00  0.00    +0.103 A 
ATOM      6  C   UNL     1       1.903  -3.536  -1.251  0.00  0.00    +0.265 A 
ATOM      7  O   UNL     1       0.975  -3.153  -1.941  0.00  0.00    -0.267 OA
ATOM      8  C   UNL     1       3.832  -3.452  -3.063  0.00  0.00    +0.150 A 
ATOM      9  N   UNL     1       5.101  -3.747  -2.989  0.00  0.00    -0.172 NA
ATOM     10  N   UNL     1       5.409  -4.168  -1.690  0.00  0.00    -0.212 N 
ENDROOT
BRANCH  10  11
ATOM     11  C   UNL     1       6.672  -4.566  -1.234  0.00  0.00    +0.098 A 
ATOM     12  C   UNL     1       7.472  -3.673  -0.532  0.00  0.00    +0.030 A 
ATOM     13  C   UNL     1       8.717  -4.068  -0.084  0.00  0.00    +0.002 A 
ATOM     14  C   UNL     1       9.168  -5.352  -0.333  0.00  0.00    +0.002 A 
ATOM     15  C   UNL     1       8.374  -6.243  -1.030  0.00  0.00    +0.035 A 
ATOM     16  C   UNL     1       7.125  -5.855  -1.477  0.00  0.00    +0.152 A 
BRANCH  16  17
ATOM     17  N   UNL     1       6.274  -6.812  -2.219  0.00  0.00    +0.059 N 
ATOM     18  O   UNL     1       6.711  -7.908  -2.522  0.00  0.00    -0.126 OA
ATOM     19  O   UNL     1       5.136  -6.504  -2.526  0.00  0.00    -0.126 OA
ENDBRANCH  16  17
ENDBRANCH  10  11
BRANCH   1  20
ATOM     20  C   UNL     1       0.395  -3.726   0.658  0.00  0.00    +0.222 C 
BRANCH  20  22
ATOM     21  N   UNL     1      -0.923  -1.999   1.842  0.00  0.00    -0.307 N 
ATOM     22  C   UNL     1       0.229  -2.342   1.232  0.00  0.00    +0.233 C 
ATOM     23  O   UNL     1       1.132  -1.537   1.145  0.00  0.00    -0.274 OA
ATOM     24  H   UNL     1      -1.742  -2.729   1.921  0.00  0.00    +0.149 HD
BRANCH  21  25
ATOM     25  C   UNL     1      -1.085  -0.654   2.399  0.00  0.00    +0.106 C 
BRANCH  25  29
ATOM     26  C   UNL     1      -3.986  -0.750   5.533  0.00  0.00    -0.045 A 
ATOM     27  C   UNL     1      -2.846   0.021   5.669  0.00  0.00    +0.004 A 
ATOM     28  C   UNL     1      -1.907   0.052   4.655  0.00  0.00    +0.006 A 
ATOM     29  C   UNL     1      -2.108  -0.688   3.505  0.00  0.00    -0.027 A 
ATOM     30  C   UNL     1      -3.250  -1.454   3.366  0.00  0.00    +0.006 A 
ATOM     31  C   UNL     1      -4.186  -1.490   4.383  0.00  0.00    +0.004 A 
BRANCH  26  33
ATOM     32  C   UNL     1      -6.353  -0.281   6.105  0.00  0.00    +0.012 C 
ATOM     33  C   UNL     1      -5.010  -0.783   6.638  0.00  0.00    +0.013 C 
ATOM     34  C   UNL     1      -5.167  -2.218   7.145  0.00  0.00    +0.012 C 
ENDBRANCH  26  33
ENDBRANCH  25  29
BRANCH  25  35
ATOM     35  C   UNL     1      -1.553   0.301   1.300  0.00  0.00    +0.008 C 
ATOM     36  C   UNL     1      -0.514   0.336   0.177  0.00  0.00    +0.009 C 
ATOM     37  C   UNL     1      -1.722   1.706   1.882  0.00  0.00    +0.009 C 
ENDBRANCH  25  35
ENDBRANCH  21  25
ENDBRANCH  20  22
ENDBRANCH   1  20
TORSDOF 8
