REMARK  Name = ZINC14959742
REMARK  8 active torsions:
REMARK  status: ('A' for Active; 'I' for Inactive)
REMARK    1  A    between atoms: C_1  and  N_2
REMARK    2  A    between atoms: N_2  and  C_3
REMARK    3  A    between atoms: C_3  and  C_5
REMARK    4  A    between atoms: C_3  and  C_13
REMARK    5  A    between atoms: C_5  and  C_6
REMARK    6  A    between atoms: C_18  and  C_19
REMARK    7  A    between atoms: C_18  and  N_65
REMARK    8  A    between atoms: C_29  and  C_31
REMARK                            x       y       z     vdW  Elec       q    Type
REMARK                         _______ _______ _______ _____ _____    ______ ____
ROOT
ATOM      1  C   UNL     1       0.135   5.736   0.823  0.00  0.00    +0.083 C 
ENDROOT
BRANCH   1   2
ATOM      2  C   UNL     1       0.542   4.359   1.352  0.00  0.00    +0.006 C 
ATOM      3  C   UNL     1       1.493   3.689   0.356  0.00  0.00    -0.013 C 
ATOM      4  C   UNL     1       1.849   2.289   0.860  0.00  0.00    -0.078 C 
ATOM      5  C   UNL     1      -0.285   2.092   1.991  0.00  0.00    -0.078 C 
ATOM      6  C   UNL     1      -0.705   3.486   1.520  0.00  0.00    -0.013 C 
ATOM      7  N   UNL     1       0.609   1.492   0.978  0.00  0.00    +0.382 N 
ATOM      8  H   UNL     1       0.128   1.488   0.070  0.00  0.00    -0.081 HD
BRANCH   7   9
ATOM      9  C   UNL     1       0.936   0.101   1.353  0.00  0.00    -0.042 C 
BRANCH   9  10
ATOM     10  C   UNL     1      -0.332  -0.620   1.732  0.00  0.00    -0.055 A 
ATOM     11  C   UNL     1      -0.645  -0.811   3.043  0.00  0.00    +0.002 A 
ATOM     12  C   UNL     1      -1.817  -1.470   3.409  0.00  0.00    +0.002 A 
ATOM     13  C   UNL     1      -2.675  -1.951   2.469  0.00  0.00    +0.028 A 
ATOM     14  C   UNL     1      -2.383  -1.779   1.105  0.00  0.00    +0.071 A 
ATOM     15  C   UNL     1      -1.194  -1.103   0.735  0.00  0.00    +0.002 A 
ATOM     16  C   UNL     1      -0.903  -0.931  -0.632  0.00  0.00    +0.012 A 
ATOM     17  C   UNL     1      -1.786  -1.429  -1.546  0.00  0.00    +0.020 A 
ATOM     18  C   UNL     1      -2.938  -2.084  -1.115  0.00  0.00    +0.111 A 
ATOM     19  N   UNL     1      -3.206  -2.242   0.159  0.00  0.00    -0.255 NA
ENDBRANCH   9  10
ENDBRANCH   7   9
ENDBRANCH   1   2
BRANCH   1  21
ATOM     20  C   UNL     1      -0.855   4.351  -1.058  0.00  0.00    +0.132 C 
ATOM     21  N   UNL     1      -0.299   5.615  -0.571  0.00  0.00    -0.297 N 
ATOM     22  C   UNL     1      -0.185   6.668  -1.405  0.00  0.00    +0.247 C 
ATOM     23  O   UNL     1       0.204   7.739  -0.983  0.00  0.00    -0.270 OA
BRANCH  22  24
ATOM     24  C   UNL     1      -0.533   6.519  -2.828  0.00  0.00    +0.044 A 
ATOM     25  C   UNL     1       0.178   7.239  -3.855  0.00  0.00    +0.020 A 
ATOM     26  C   UNL     1      -0.211   7.033  -5.128  0.00  0.00    +0.046 A 
ATOM     27  S   UNL     1      -1.553   5.874  -4.959  0.00  0.00    -0.104 S 
ATOM     28  C   UNL     1      -1.557   5.690  -3.237  0.00  0.00    +0.058 A 
ENDBRANCH  22  24
ENDBRANCH   1  21
BRANCH   1  29
ATOM     29  C   UNL     1      -1.015   6.287   1.669  0.00  0.00    +0.060 C 
BRANCH  29  30
ATOM     30  C   UNL     1      -1.288   7.716   1.276  0.00  0.00    -0.010 A 
ATOM     31  C   UNL     1      -0.706   8.751   1.984  0.00  0.00    +0.006 A 
ATOM     32  C   UNL     1      -0.951  10.062   1.619  0.00  0.00    +0.000 A 
ATOM     33  C   UNL     1      -1.788  10.339   0.554  0.00  0.00    +0.003 A 
ATOM     34  C   UNL     1      -2.375   9.306  -0.152  0.00  0.00    +0.038 A 
ATOM     35  C   UNL     1      -2.125   7.993   0.209  0.00  0.00    +0.127 A 
ATOM     36  F   UNL     1      -2.699   6.982  -0.480  0.00  0.00    -0.205 F 
ENDBRANCH  29  30
ENDBRANCH   1  29
TORSDOF 7
