REMARK  Name = ZINC40827003
REMARK  9 active torsions:
REMARK  status: ('A' for Active; 'I' for Inactive)
REMARK    1  A    between atoms: C_1  and  C_2
REMARK    2  A    between atoms: C_4  and  C_39
REMARK    3  A    between atoms: C_10  and  C_11
REMARK    4  A    between atoms: C_11  and  C_12
REMARK    5  A    between atoms: N_14  and  N_15
REMARK    6  A    between atoms: C_22  and  C_38
REMARK    7  A    between atoms: C_23  and  C_25
REMARK    8  A    between atoms: C_25  and  O_27
REMARK    9  A    between atoms: O_27  and  C_28
REMARK                            x       y       z     vdW  Elec       q    Type
REMARK                         _______ _______ _______ _____ _____    ______ ____
ROOT
ATOM      1  N   UNL     1       1.583  -6.814  -2.799  0.00  0.00    -0.184 NA
ATOM      2  C   UNL     1       1.770  -7.821  -3.594  0.00  0.00    +0.070 C 
ATOM      3  C   UNL     1       0.618  -8.608  -4.201  0.00  0.00    +0.058 C 
ATOM      4  C   UNL     1       0.966 -10.099  -4.133  0.00  0.00    +0.014 C 
ATOM      5  C   UNL     1       2.185 -10.409  -5.005  0.00  0.00    +0.075 C 
ATOM      6  C   UNL     1       3.316  -9.484  -4.631  0.00  0.00    +0.115 A 
ATOM      7  C   UNL     1       3.121  -8.286  -3.983  0.00  0.00    +0.042 A 
ATOM      8  C   UNL     1       4.376  -7.694  -3.802  0.00  0.00    +0.011 A 
ATOM      9  C   UNL     1       5.287  -8.552  -4.356  0.00  0.00    +0.215 A 
ATOM     10  O   UNL     1       4.622  -9.629  -4.843  0.00  0.00    -0.452 OA
ATOM     11  C   UNL     1       4.667  -6.376  -3.132  0.00  0.00    +0.048 C 
ENDROOT
BRANCH   1  14
ATOM     12  C   UNL     1       0.086  -5.370  -1.639  0.00  0.00    +0.237 C 
ATOM     13  O   UNL     1       1.038  -4.771  -1.185  0.00  0.00    -0.274 OA
ATOM     14  N   UNL     1       0.281  -6.417  -2.465  0.00  0.00    -0.206 N 
ATOM     15  H   UNL     1      -0.480  -6.896  -2.829  0.00  0.00    +0.177 HD
BRANCH  12  16
ATOM     16  C   UNL     1      -1.314  -4.944  -1.280  0.00  0.00    +0.136 C 
BRANCH  16  26
ATOM     17  C   UNL     1      -0.881  -2.839   5.265  0.00  0.00    +0.044 C 
ATOM     18  C   UNL     1      -0.979  -3.168   3.797  0.00  0.00    -0.047 A 
ATOM     19  C   UNL     1      -1.002  -4.495   3.391  0.00  0.00    +0.007 A 
ATOM     20  C   UNL     1      -1.090  -4.811   2.064  0.00  0.00    -0.039 A 
ATOM     21  C   UNL     1      -1.157  -3.793   1.114  0.00  0.00    +0.027 A 
ATOM     22  C   UNL     1      -1.134  -2.448   1.519  0.00  0.00    +0.136 A 
ATOM     23  C   UNL     1      -1.050  -2.148   2.873  0.00  0.00    +0.050 A 
ATOM     24  O   UNL     1      -1.212  -1.693   0.405  0.00  0.00    -0.463 OA
ATOM     25  C   UNL     1      -1.283  -2.465  -0.694  0.00  0.00    +0.200 A 
ATOM     26  C   UNL     1      -1.256  -3.760  -0.350  0.00  0.00    +0.007 A 
ATOM     27  C   UNL     1      -1.114  -6.254   1.630  0.00  0.00    +0.044 C 
ENDBRANCH  16  26
ENDBRANCH  12  16
ENDBRANCH   1  14
BRANCH   9  28
ATOM     28  C   UNL     1       6.737  -8.348  -4.402  0.00  0.00    +0.380 C 
ATOM     29  O   UNL     1       7.226  -7.344  -3.921  0.00  0.00    -0.241 OA
BRANCH  28  30
ATOM     30  O   UNL     1       7.530  -9.274  -4.980  0.00  0.00    -0.418 OA
BRANCH  30  31
ATOM     31  C   UNL     1       8.857  -9.003  -5.081  0.00  0.00    +0.158 A 
ATOM     32  C   UNL     1       9.358  -8.444  -6.223  0.00  0.00    +0.048 A 
ATOM     33  C   UNL     1      10.715  -8.160  -6.346  0.00  0.00    +0.004 A 
ATOM     34  C   UNL     1      11.582  -8.430  -5.330  0.00  0.00    +0.010 A 
ATOM     35  C   UNL     1      11.105  -9.004  -4.141  0.00  0.00    +0.004 A 
ATOM     36  C   UNL     1       9.724  -9.291  -4.007  0.00  0.00    +0.113 A 
ATOM     37  N   UNL     1       9.264  -9.833  -2.876  0.00  0.00    -0.251 NA
ATOM     38  C   UNL     1      10.066 -10.103  -1.874  0.00  0.00    +0.111 A 
ATOM     39  C   UNL     1      11.433  -9.841  -1.938  0.00  0.00    +0.020 A 
ATOM     40  C   UNL     1      11.970  -9.299  -3.071  0.00  0.00    +0.011 A 
ENDBRANCH  30  31
ENDBRANCH  28  30
ENDBRANCH   9  28
TORSDOF 6
