REMARK  Name = ZINC36207765
REMARK  14 active torsions:
REMARK  status: ('A' for Active; 'I' for Inactive)
REMARK    1  A    between atoms: C_1  and  C_2
REMARK    2  A    between atoms: C_7  and  O_8
REMARK    3  A    between atoms: O_8  and  C_9
REMARK    4  A    between atoms: C_9  and  C_10
REMARK    5  A    between atoms: C_10  and  C_12
REMARK    6  A    between atoms: C_10  and  O_37
REMARK    7  A    between atoms: C_12  and  N_13
REMARK    8  A    between atoms: N_13  and  C_14
REMARK    9  A    between atoms: N_13  and  C_18
REMARK   10  A    between atoms: C_14  and  C_15
REMARK   11  A    between atoms: C_15  and  O_16
REMARK   12  A    between atoms: O_16  and  C_17
REMARK   13  A    between atoms: C_18  and  C_19
REMARK   14  A    between atoms: C_25  and  C_30
REMARK                            x       y       z     vdW  Elec       q    Type
REMARK                         _______ _______ _______ _____ _____    ______ ____
ROOT
ATOM      1  N   UNL     1      -0.040   0.231   7.354  0.00  0.00    +0.388 N 
ATOM      2  H   UNL     1       0.579   1.023   7.432  0.00  0.00    -0.081 HD
ENDROOT
BRANCH   1   3
ATOM      3  C   UNL     1       0.243  -0.490   6.106  0.00  0.00    -0.043 C 
BRANCH   3   4
ATOM      4  C   UNL     1       0.148   0.477   4.925  0.00  0.00    +0.135 C 
BRANCH   4   5
ATOM      5  O   UNL     1       1.177   1.464   5.033  0.00  0.00    -0.390 OA
ATOM      6  H   UNL     1       2.072   1.100   5.033  0.00  0.00    +0.210 HD
ENDBRANCH   4   5
BRANCH   4   7
ATOM      7  C   UNL     1       0.321  -0.296   3.616  0.00  0.00    +0.258 C 
BRANCH   7   8
ATOM      8  O   UNL     1       0.116   0.586   2.511  0.00  0.00    -0.489 OA
BRANCH   8  15
ATOM      9  C   UNL     1      -0.284   2.313   0.311  0.00  0.00    +0.047 C 
ATOM     10  C   UNL     1       0.048   0.852   0.148  0.00  0.00    -0.009 A 
ATOM     11  C   UNL     1       0.174   0.309  -1.117  0.00  0.00    +0.007 A 
ATOM     12  C   UNL     1       0.479  -1.031  -1.268  0.00  0.00    +0.000 A 
ATOM     13  C   UNL     1       0.658  -1.831  -0.154  0.00  0.00    +0.004 A 
ATOM     14  C   UNL     1       0.534  -1.293   1.112  0.00  0.00    +0.046 A 
ATOM     15  C   UNL     1       0.234   0.053   1.266  0.00  0.00    +0.124 A 
ENDBRANCH   8  15
ENDBRANCH   7   8
ENDBRANCH   4   7
ENDBRANCH   3   4
ENDBRANCH   1   3
BRANCH   1  16
ATOM     16  C   UNL     1      -1.433   0.697   7.344  0.00  0.00    -0.050 C 
BRANCH  16  17
ATOM     17  C   UNL     1      -1.688   1.568   8.576  0.00  0.00    +0.141 C 
BRANCH  17  18
ATOM     18  O   UNL     1      -0.890   2.751   8.495  0.00  0.00    -0.385 OA
ATOM     19  C   UNL     1      -1.136   3.690   9.544  0.00  0.00    +0.193 C 
ENDBRANCH  17  18
ENDBRANCH  16  17
ENDBRANCH   1  16
BRANCH   1  20
ATOM     20  C   UNL     1       0.168  -0.668   8.497  0.00  0.00    -0.003 C 
BRANCH  20  21
ATOM     21  C   UNL     1       1.631  -1.012   8.606  0.00  0.00    +0.094 A 
ATOM     22  N   UNL     1       2.033  -1.934   9.518  0.00  0.00    -0.312 N 
ATOM     23  H   UNL     1       1.373  -2.360  10.086  0.00  0.00    +0.170 HD
ATOM     24  C   UNL     1       3.330  -2.269   9.647  0.00  0.00    +0.260 A 
ATOM     25  O   UNL     1       3.676  -3.100  10.470  0.00  0.00    -0.267 OA
ATOM     26  C   UNL     1       4.298  -1.636   8.803  0.00  0.00    +0.080 A 
ATOM     27  C   UNL     1       5.743  -1.827   8.752  0.00  0.00    +0.004 A 
ATOM     28  C   UNL     1       6.463  -1.107   7.859  0.00  0.00    +0.056 A 
ATOM     29  S   UNL     1       5.229  -0.124   7.030  0.00  0.00    -0.076 S 
ATOM     30  C   UNL     1       3.789  -0.697   7.893  0.00  0.00    +0.116 A 
ATOM     31  N   UNL     1       2.489  -0.421   7.819  0.00  0.00    -0.229 NA
BRANCH  27  32
ATOM     32  C   UNL     1       6.410  -2.790   9.661  0.00  0.00    -0.016 A 
ATOM     33  C   UNL     1       6.145  -2.759  11.029  0.00  0.00    +0.010 A 
ATOM     34  C   UNL     1       6.769  -3.658  11.870  0.00  0.00    +0.020 A 
ATOM     35  C   UNL     1       7.657  -4.589  11.357  0.00  0.00    +0.041 A 
ATOM     36  C   UNL     1       7.923  -4.623   9.999  0.00  0.00    +0.020 A 
ATOM     37  C   UNL     1       7.301  -3.732   9.149  0.00  0.00    +0.010 A 
ATOM     38 CL   UNL     1       8.438  -5.717  12.421  0.00  0.00    -0.084 Cl
ENDBRANCH  27  32
ENDBRANCH  20  21
ENDBRANCH   1  20
TORSDOF 12
