REMARK  Name = ZINC36389963
REMARK  9 active torsions:
REMARK  status: ('A' for Active; 'I' for Inactive)
REMARK    1  A    between atoms: C_1  and  C_2
REMARK    2  A    between atoms: C_6  and  S_25
REMARK    3  A    between atoms: N_10  and  C_11
REMARK    4  A    between atoms: C_11  and  C_12
REMARK    5  A    between atoms: N_14  and  C_15
REMARK    6  A    between atoms: C_20  and  C_24
REMARK    7  A    between atoms: C_21  and  C_22
REMARK    8  A    between atoms: C_21  and  C_23
REMARK    9  A    between atoms: S_25  and  N_28
REMARK                            x       y       z     vdW  Elec       q    Type
REMARK                         _______ _______ _______ _____ _____    ______ ____
ROOT
ATOM      1  C   UNL     1       0.489   1.657  -0.407  0.00  0.00    +0.028 C 
ATOM      2  C   UNL     1       0.380   0.131  -0.395  0.00  0.00    +0.075 C 
ATOM      3  C   UNL     1      -1.093  -0.299  -0.490  0.00  0.00    +0.059 C 
ATOM      4  C   UNL     1      -1.347  -1.069   0.786  0.00  0.00    -0.023 A 
ATOM      5  C   UNL     1      -2.486  -1.694   1.256  0.00  0.00    +0.034 A 
ATOM      6  C   UNL     1      -2.469  -2.343   2.476  0.00  0.00    +0.105 A 
ATOM      7  C   UNL     1      -1.307  -2.367   3.227  0.00  0.00    +0.030 A 
ATOM      8  C   UNL     1      -0.168  -1.745   2.762  0.00  0.00    +0.025 A 
ATOM      9  C   UNL     1      -0.178  -1.087   1.530  0.00  0.00    +0.034 A 
ATOM     10  N   UNL     1       0.854  -0.402   0.885  0.00  0.00    -0.318 N 
ENDROOT
BRANCH   6  11
ATOM     11  S   UNL     1      -3.922  -3.139   3.074  0.00  0.00    +0.056 S 
ATOM     12  O   UNL     1      -3.796  -3.207   4.488  0.00  0.00    -0.153 OA
ATOM     13  O   UNL     1      -5.024  -2.505   2.438  0.00  0.00    -0.153 OA
BRANCH  11  14
ATOM     14  N   UNL     1      -3.890  -4.699   2.521  0.00  0.00    -0.204 NA
ATOM     15  H   UNL     1      -4.306  -5.407   3.038  0.00  0.00    +0.144 HD
ATOM     16  H   UNL     1      -3.454  -4.906   1.679  0.00  0.00    +0.144 HD
ENDBRANCH  11  14
ENDBRANCH   6  11
BRANCH  10  17
ATOM     17  C   UNL     1       2.212  -0.241   1.411  0.00  0.00    +0.201 C 
BRANCH  17  18
ATOM     18  C   UNL     1       2.284   1.017   2.238  0.00  0.00    +0.231 C 
ATOM     19  O   UNL     1       1.298   1.710   2.375  0.00  0.00    -0.274 OA
ATOM     20  N   UNL     1       3.444   1.371   2.825  0.00  0.00    -0.311 N 
ATOM     21  H   UNL     1       4.232   0.816   2.716  0.00  0.00    +0.149 HD
BRANCH  20  22
ATOM     22  C   UNL     1       3.514   2.593   3.630  0.00  0.00    +0.080 C 
ATOM     23  C   UNL     1       3.723   3.825   2.720  0.00  0.00    +0.027 C 
ATOM     24  C   UNL     1       5.087   4.427   3.176  0.00  0.00    -0.003 C 
ATOM     25  C   UNL     1       4.797   5.024   4.588  0.00  0.00    +0.005 C 
ATOM     26  C   UNL     1       4.589   3.792   5.498  0.00  0.00    +0.009 C 
ATOM     27  C   UNL     1       4.772   2.567   4.551  0.00  0.00    -0.008 C 
ATOM     28  C   UNL     1       5.864   3.120   3.568  0.00  0.00    -0.025 C 
ATOM     29  C   UNL     1       7.179   3.428   4.286  0.00  0.00    +0.012 C 
ATOM     30  C   UNL     1       6.075   2.197   2.366  0.00  0.00    +0.012 C 
ATOM     31  C   UNL     1       5.072   1.231   5.235  0.00  0.00    +0.013 C 
ENDBRANCH  20  22
ENDBRANCH  17  18
ENDBRANCH  10  17
TORSDOF 5
