REMARK  Name = ZINC39692285
REMARK  8 active torsions:
REMARK  status: ('A' for Active; 'I' for Inactive)
REMARK    1  A    between atoms: C_1  and  C_2
REMARK    2  A    between atoms: C_4  and  C_16
REMARK    3  A    between atoms: C_11  and  C_13
REMARK    4  A    between atoms: C_16  and  S_17
REMARK    5  A    between atoms: S_17  and  C_18
REMARK    6  A    between atoms: C_21  and  C_26
REMARK    7  A    between atoms: N_22  and  C_23
REMARK    8  A    between atoms: C_23  and  C_24
REMARK                            x       y       z     vdW  Elec       q    Type
REMARK                         _______ _______ _______ _____ _____    ______ ____
ROOT
ATOM      1  S   UNL     1      -2.225   2.140   1.651  0.00  0.00    -0.081 S 
ENDROOT
BRANCH   1   2
ATOM      2  C   UNL     1      -2.531   3.875   1.646  0.00  0.00    +0.192 A 
ATOM      3  N   UNL     1      -3.119   4.560   0.691  0.00  0.00    -0.122 NA
ATOM      4  N   UNL     1      -3.180   5.803   1.012  0.00  0.00    -0.128 NA
ATOM      5  C   UNL     1      -2.635   5.988   2.192  0.00  0.00    +0.165 A 
ATOM      6  N   UNL     1      -2.208   4.758   2.636  0.00  0.00    -0.298 N 
BRANCH   5   7
ATOM      7  C   UNL     1      -2.510   7.274   2.910  0.00  0.00    +0.019 A 
ATOM      8  C   UNL     1      -1.575   7.415   3.937  0.00  0.00    +0.013 A 
ATOM      9  C   UNL     1      -1.463   8.618   4.603  0.00  0.00    +0.021 A 
ATOM     10  C   UNL     1      -2.275   9.684   4.255  0.00  0.00    +0.041 A 
ATOM     11  C   UNL     1      -3.204   9.550   3.237  0.00  0.00    +0.021 A 
ATOM     12  C   UNL     1      -3.322   8.354   2.559  0.00  0.00    +0.013 A 
ATOM     13 CL   UNL     1      -2.128  11.194   5.098  0.00  0.00    -0.084 Cl
ENDBRANCH   5   7
BRANCH   6  14
ATOM     14  C   UNL     1      -1.542   4.459   3.906  0.00  0.00    +0.152 C 
BRANCH  14  15
ATOM     15  C   UNL     1      -0.049   4.449   3.701  0.00  0.00    -0.013 C 
ATOM     16  C   UNL     1       0.721   5.196   4.453  0.00  0.00    +0.005 C 
ENDBRANCH  14  15
ENDBRANCH   6  14
ENDBRANCH   1   2
BRANCH   1  17
ATOM     17  C   UNL     1      -2.893   1.572   0.063  0.00  0.00    +0.113 C 
BRANCH  17  21
ATOM     18  C   UNL     1      -0.270   1.734  -0.789  0.00  0.00    +0.041 C 
ATOM     19  C   UNL     1      -0.283   0.228  -0.844  0.00  0.00    -0.039 C 
ATOM     20  C   UNL     1      -1.386  -0.471  -0.511  0.00  0.00    +0.009 C 
ATOM     21  C   UNL     1      -2.692   0.083  -0.062  0.00  0.00    -0.023 C 
ATOM     22  C   UNL     1      -3.692  -0.770   0.231  0.00  0.00    +0.074 C 
ATOM     23  C   UNL     1      -3.497  -2.212   0.110  0.00  0.00    +0.261 C 
ATOM     24  O   UNL     1      -4.415  -2.970   0.381  0.00  0.00    -0.269 OA
ATOM     25  N   UNL     1      -2.324  -2.713  -0.293  0.00  0.00    -0.170 NA
ATOM     26  C   UNL     1      -1.311  -1.944  -0.594  0.00  0.00    +0.098 C 
ATOM     27  S   UNL     1       0.345  -2.282  -1.148  0.00  0.00    -0.088 S 
ATOM     28  C   UNL     1       0.937  -0.547  -1.280  0.00  0.00    +0.192 C 
BRANCH  28  29
ATOM     29  C   UNL     1       1.312  -0.208  -2.700  0.00  0.00    +0.373 C 
ATOM     30  O   UNL     1       2.477   0.005  -2.989  0.00  0.00    -0.245 OA
ATOM     31  O   UNL     1       0.450  -0.148  -3.560  0.00  0.00    -0.245 OA
ENDBRANCH  28  29
ENDBRANCH  17  21
ENDBRANCH   1  17
TORSDOF 7
