REMARK  Name = ZINC50441422
REMARK  7 active torsions:
REMARK  status: ('A' for Active; 'I' for Inactive)
REMARK    1  A    between atoms: C_1  and  C_2
REMARK    2  A    between atoms: C_3  and  C_20
REMARK    3  A    between atoms: C_4  and  O_8
REMARK    4  A    between atoms: N_5  and  C_7
REMARK    5  A    between atoms: O_8  and  C_9
REMARK    6  A    between atoms: C_12  and  N_16
REMARK    7  A    between atoms: C_20  and  O_21
REMARK                            x       y       z     vdW  Elec       q    Type
REMARK                         _______ _______ _______ _____ _____    ______ ____
ROOT
ATOM      1  O   UNL     1       0.539  -2.986  -1.308  0.00  0.00    -0.436 OA
ENDROOT
BRANCH   1   2
ATOM      2  C   UNL     1       0.693  -4.205  -0.727  0.00  0.00    +0.158 A 
ATOM      3  C   UNL     1       1.925  -4.577  -0.209  0.00  0.00    +0.063 A 
ATOM      4  C   UNL     1       2.079  -5.818   0.381  0.00  0.00    +0.051 A 
ATOM      5  C   UNL     1       1.006  -6.687   0.456  0.00  0.00    +0.129 A 
ATOM      6  C   UNL     1      -0.223  -6.319  -0.059  0.00  0.00    +0.051 A 
ATOM      7  C   UNL     1      -0.384  -5.077  -0.645  0.00  0.00    +0.063 A 
ATOM      8 BR   UNL     1      -2.067  -4.571  -1.342  0.00  0.00    -0.046 Br
ATOM      9 BR   UNL     1       3.393  -3.390  -0.312  0.00  0.00    -0.046 Br
BRANCH   5  10
ATOM     10  N   UNL     1       1.174  -8.015   1.089  0.00  0.00    +0.056 N 
ATOM     11  O   UNL     1       2.248  -8.338   1.540  0.00  0.00    -0.126 OA
ATOM     12  O   UNL     1       0.237  -8.775   1.155  0.00  0.00    -0.126 OA
ENDBRANCH   5  10
ENDBRANCH   1   2
BRANCH   1  16
ATOM     13  C   UNL     1      -0.253   1.644   0.268  0.00  0.00    +0.068 C 
ATOM     14  C   UNL     1      -0.045   0.152   0.243  0.00  0.00    +0.069 A 
ATOM     15  C   UNL     1       0.174  -0.626  -0.898  0.00  0.00    +0.062 A 
ATOM     16  C   UNL     1       0.313  -1.919  -0.500  0.00  0.00    +0.224 A 
ATOM     17  N   UNL     1       0.185  -1.949   0.845  0.00  0.00    -0.235 N 
ATOM     18  N   UNL     1      -0.033  -0.638   1.286  0.00  0.00    -0.173 NA
ATOM     19  C   UNL     1       0.266  -3.141   1.692  0.00  0.00    +0.176 C 
BRANCH  15  20
ATOM     20  C   UNL     1       0.243  -0.121  -2.316  0.00  0.00    +0.198 C 
BRANCH  20  21
ATOM     21  O   UNL     1       1.594   0.221  -2.634  0.00  0.00    -0.390 OA
ATOM     22  H   UNL     1       1.714   0.554  -3.534  0.00  0.00    +0.210 HD
ENDBRANCH  20  21
ENDBRANCH  15  20
ENDBRANCH   1  16
TORSDOF 5
