REMARK  Name = ZINC09014931
REMARK  6 active torsions:
REMARK  status: ('A' for Active; 'I' for Inactive)
REMARK    1  A    between atoms: C_6  and  N_7
REMARK    2  A    between atoms: C_8  and  C_10
REMARK    3  A    between atoms: C_10  and  S_11
REMARK    4  A    between atoms: S_11  and  C_12
REMARK    5  A    between atoms: C_13  and  C_27
REMARK    6  A    between atoms: C_20  and  C_25
REMARK                            x       y       z     vdW  Elec       q    Type
REMARK                         _______ _______ _______ _____ _____    ______ ____
ROOT
ATOM      1  C   UNL     1      -1.206   2.092   0.033  0.00  0.00    +0.082 C 
ATOM      2  C   UNL     1      -0.017   1.428   0.023  0.00  0.00    +0.065 C 
ATOM      3  C   UNL     1       1.278   2.198   0.025  0.00  0.00    +0.032 C 
ATOM      4  C   UNL     1       1.658   2.561  -1.413  0.00  0.00    +0.014 C 
ATOM      5  C   UNL     1       2.972   3.345  -1.410  0.00  0.00    +0.001 C 
ATOM      6  C   UNL     1       4.077   2.486  -0.791  0.00  0.00    +0.000 C 
ATOM      7  C   UNL     1       3.697   2.123   0.646  0.00  0.00    +0.001 C 
ATOM      8  C   UNL     1       2.383   1.339   0.643  0.00  0.00    +0.014 C 
ATOM      9  C   UNL     1       1.109   3.478   0.845  0.00  0.00    +0.188 C 
ATOM     10  C   UNL     1      -0.158   4.179   0.430  0.00  0.00    +0.235 C 
ATOM     11  O   UNL     1      -0.204   5.391   0.433  0.00  0.00    -0.274 OA
ATOM     12  N   UNL     1      -1.239   3.470   0.055  0.00  0.00    -0.278 N 
ATOM     13  H   UNL     1      -2.156   4.004  -0.236  0.00  0.00    +0.155 HD
ENDROOT
BRANCH   9  14
ATOM     14  C   UNL     1       1.034   3.137   2.275  0.00  0.00    +0.076 C 
ATOM     15  N   UNL     1       0.977   2.874   3.379  0.00  0.00    -0.196 NA
ENDBRANCH   9  14
BRANCH   2  16
ATOM     16  C   UNL     1       0.002  -0.003   0.006  0.00  0.00    +0.098 C 
ATOM     17  N   UNL     1       0.018  -1.139  -0.008  0.00  0.00    -0.191 NA
ENDBRANCH   2  16
BRANCH   1  18
ATOM     18  S   UNL     1      -2.715   1.182   0.023  0.00  0.00    -0.100 S 
BRANCH  18  19
ATOM     19  C   UNL     1      -3.905   2.546   0.041  0.00  0.00    +0.171 C 
BRANCH  19  21
ATOM     20  N   UNL     1      -6.362   2.827   0.047  0.00  0.00    -0.285 N 
ATOM     21  C   UNL     1      -5.306   1.990   0.036  0.00  0.00    +0.227 C 
ATOM     22  O   UNL     1      -5.482   0.790   0.022  0.00  0.00    -0.275 OA
ATOM     23  H   UNL     1      -6.204   3.912   0.137  0.00  0.00    +0.155 HD
BRANCH  20  29
ATOM     24  C   UNL     1      -8.638   3.028  -0.738  0.00  0.00    +0.024 A 
ATOM     25  C   UNL     1      -9.917   2.518  -0.843  0.00  0.00    +0.017 A 
ATOM     26  C   UNL     1     -10.229   1.304  -0.258  0.00  0.00    +0.018 A 
ATOM     27  C   UNL     1      -9.259   0.594   0.428  0.00  0.00    +0.017 A 
ATOM     28  C   UNL     1      -7.977   1.097   0.531  0.00  0.00    +0.024 A 
ATOM     29  C   UNL     1      -7.661   2.315  -0.055  0.00  0.00    +0.033 A 
ATOM     30 BR   UNL     1     -11.983   0.612  -0.397  0.00  0.00    -0.050 Br
ENDBRANCH  20  29
ENDBRANCH  19  21
ENDBRANCH  18  19
ENDBRANCH   1  18
TORSDOF 6
