REMARK  Name = ZINC04770788
REMARK  6 active torsions:
REMARK  status: ('A' for Active; 'I' for Inactive)
REMARK    1  A    between atoms: C_1  and  C_2
REMARK    2  A    between atoms: C_4  and  C_20
REMARK    3  A    between atoms: C_4  and  C_22
REMARK    4  A    between atoms: C_5  and  C_15
REMARK    5  A    between atoms: C_5  and  C_17
REMARK    6  A    between atoms: C_12  and  O_14
REMARK                            x       y       z     vdW  Elec       q    Type
REMARK                         _______ _______ _______ _____ _____    ______ ____
ROOT
ATOM      1  C   UNL     1      -1.663  -2.420  -2.347  0.00  0.00    +0.041 C 
ATOM      2  C   UNL     1      -1.585  -0.894  -2.412  0.00  0.00    +0.155 C 
ATOM      3  C   UNL     1      -0.119  -0.460  -2.487  0.00  0.00    +0.195 C 
ATOM      4  C   UNL     1      -0.044   1.070  -2.488  0.00  0.00    +0.174 C 
ATOM      5  C   UNL     1      -0.744   1.603  -1.232  0.00  0.00    +0.080 C 
ATOM      6  C   UNL     1      -0.004   1.096   0.008  0.00  0.00    +0.011 C 
ATOM      7  C   UNL     1      -0.712   1.600   1.267  0.00  0.00    +0.001 C 
ATOM      8  C   UNL     1      -2.149   1.076   1.287  0.00  0.00    +0.005 C 
ATOM      9  C   UNL     1      -2.892   1.585   0.051  0.00  0.00    +0.065 C 
ATOM     10  C   UNL     1      -2.186   1.092  -1.212  0.00  0.00    +0.172 C 
ATOM     11  O   UNL     1      -2.187  -0.336  -1.241  0.00  0.00    -0.343 OA
ENDROOT
BRANCH   4  12
ATOM     12  C   UNL     1      -0.733   1.608  -3.716  0.00  0.00    +0.234 C 
ATOM     13  O   UNL     1      -1.137   0.845  -4.567  0.00  0.00    -0.274 OA
ATOM     14  N   UNL     1      -0.899   2.937  -3.867  0.00  0.00    -0.328 N 
ATOM     15  H   UNL     1      -0.575   3.547  -3.186  0.00  0.00    +0.145 HD
ATOM     16  H   UNL     1      -1.342   3.283  -4.658  0.00  0.00    +0.145 HD
ENDBRANCH   4  12
BRANCH  10  17
ATOM     17  O   UNL     1      -2.881   1.590  -2.357  0.00  0.00    -0.364 OA
ATOM     18  H   UNL     1      -3.804   1.306  -2.412  0.00  0.00    +0.213 HD
ENDBRANCH  10  17
BRANCH   4  19
ATOM     19  C   UNL     1       1.365   1.495  -2.484  0.00  0.00    +0.082 C 
ATOM     20  N   UNL     1       2.453   1.822  -2.482  0.00  0.00    -0.195 NA
ENDBRANCH   4  19
BRANCH   3  21
ATOM     21  C   UNL     1       0.485  -0.982  -3.723  0.00  0.00    +0.089 C 
ATOM     22  N   UNL     1       0.951  -1.385  -4.678  0.00  0.00    -0.195 NA
ENDBRANCH   3  21
BRANCH   3  23
ATOM     23  C   UNL     1       0.610  -0.987  -1.322  0.00  0.00    +0.089 C 
ATOM     24  N   UNL     1       1.173  -1.394  -0.423  0.00  0.00    -0.195 NA
ENDBRANCH   3  23
TORSDOF 5
