REMARK  Name = ZINC39579972
REMARK  17 active torsions:
REMARK  status: ('A' for Active; 'I' for Inactive)
REMARK    1  A    between atoms: C_1  and  C_2
REMARK    2  A    between atoms: C_2  and  C_4
REMARK    3  A    between atoms: C_2  and  S_8
REMARK    4  A    between atoms: C_4  and  O_6
REMARK    5  A    between atoms: O_6  and  C_7
REMARK    6  A    between atoms: S_8  and  C_9
REMARK    7  A    between atoms: N_15  and  C_17
REMARK    8  A    between atoms: C_19  and  O_35
REMARK    9  A    between atoms: C_21  and  O_31
REMARK   10  A    between atoms: C_23  and  C_26
REMARK   11  A    between atoms: C_26  and  O_27
REMARK   12  A    between atoms: O_27  and  C_28
REMARK   13  A    between atoms: C_28  and  C_30
REMARK   14  A    between atoms: O_31  and  C_32
REMARK   15  A    between atoms: C_32  and  C_34
REMARK   16  A    between atoms: O_35  and  C_36
REMARK   17  A    between atoms: C_36  and  C_38
REMARK                            x       y       z     vdW  Elec       q    Type
REMARK                         _______ _______ _______ _____ _____    ______ ____
ROOT
ATOM      1  C   UNL     1      -1.363   1.782  -4.529  0.00  0.00    +0.287 C 
ATOM      2  C   UNL     1      -0.585   2.882  -3.780  0.00  0.00    +0.270 C 
ATOM      3  C   UNL     1       0.902   2.516  -4.006  0.00  0.00    +0.253 C 
ATOM      4  C   UNL     1       0.815   1.012  -4.367  0.00  0.00    +0.203 C 
ATOM      5  O   UNL     1      -0.396   0.922  -5.155  0.00  0.00    -0.341 OA
ENDROOT
BRANCH   1  12
ATOM      6  C   UNL     1      -2.365  -0.093  -1.525  0.00  0.00    +0.184 A 
ATOM      7  C   UNL     1      -3.705  -0.400  -1.872  0.00  0.00    +0.308 A 
ATOM      8  O   UNL     1      -4.477  -1.108  -1.019  0.00  0.00    -0.263 OA
ATOM      9  N   UNL     1      -4.200   0.005  -3.026  0.00  0.00    -0.150 NA
ATOM     10  C   UNL     1      -3.451   0.706  -3.881  0.00  0.00    +0.370 A 
ATOM     11  O   UNL     1      -3.928   1.071  -4.944  0.00  0.00    -0.243 OA
ATOM     12  N   UNL     1      -2.174   1.013  -3.582  0.00  0.00    -0.179 N 
ATOM     13  N   UNL     1      -1.625   0.600  -2.360  0.00  0.00    -0.153 NA
BRANCH   6  14
ATOM     14  S   UNL     1      -1.700  -0.632   0.015  0.00  0.00    -0.084 S 
BRANCH  14  16
ATOM     15  C   UNL     1      -0.019   1.526   0.010  0.00  0.00    +0.031 C 
ATOM     16  C   UNL     1       0.002  -0.004   0.002  0.00  0.00    +0.158 C 
BRANCH  16  17
ATOM     17  C   UNL     1       0.731  -0.503   1.223  0.00  0.00    +0.320 C 
ATOM     18  O   UNL     1       0.107  -0.890   2.183  0.00  0.00    -0.250 OA
BRANCH  17  19
ATOM     19  O   UNL     1       2.073  -0.519   1.244  0.00  0.00    -0.467 OA
ATOM     20  C   UNL     1       2.698  -1.005   2.434  0.00  0.00    +0.280 C 
ENDBRANCH  17  19
ENDBRANCH  16  17
ENDBRANCH  14  16
ENDBRANCH   6  14
ENDBRANCH   1  12
BRANCH   4  21
ATOM     21  C   UNL     1       2.030   0.585  -5.193  0.00  0.00    +0.267 C 
BRANCH  21  22
ATOM     22  O   UNL     1       1.985  -0.826  -5.413  0.00  0.00    -0.462 OA
BRANCH  22  23
ATOM     23  C   UNL     1       2.987  -1.365  -6.127  0.00  0.00    +0.304 C 
ATOM     24  O   UNL     1       3.873  -0.660  -6.551  0.00  0.00    -0.251 OA
ATOM     25  C   UNL     1       3.006  -2.846  -6.399  0.00  0.00    +0.136 C 
ENDBRANCH  22  23
ENDBRANCH  21  22
ENDBRANCH   4  21
BRANCH   3  26
ATOM     26  O   UNL     1       1.453   3.270  -5.088  0.00  0.00    -0.455 OA
BRANCH  26  27
ATOM     27  C   UNL     1       2.765   3.550  -5.029  0.00  0.00    +0.304 C 
ATOM     28  O   UNL     1       3.423   3.169  -4.090  0.00  0.00    -0.251 OA
ATOM     29  C   UNL     1       3.416   4.342  -6.134  0.00  0.00    +0.136 C 
ENDBRANCH  26  27
ENDBRANCH   3  26
BRANCH   2  30
ATOM     30  O   UNL     1      -0.877   4.166  -4.334  0.00  0.00    -0.453 OA
BRANCH  30  31
ATOM     31  C   UNL     1      -1.894   4.850  -3.785  0.00  0.00    +0.304 C 
ATOM     32  O   UNL     1      -2.515   4.373  -2.865  0.00  0.00    -0.251 OA
ATOM     33  C   UNL     1      -2.261   6.211  -4.317  0.00  0.00    +0.136 C 
ENDBRANCH  30  31
ENDBRANCH   2  30
TORSDOF 12
