REMARK  Name = ZINC10474977
REMARK  7 active torsions:
REMARK  status: ('A' for Active; 'I' for Inactive)
REMARK    1  A    between atoms: C_4  and  C_7
REMARK    2  A    between atoms: C_7  and  O_8
REMARK    3  A    between atoms: O_8  and  C_9
REMARK    4  A    between atoms: C_12  and  C_16
REMARK    5  A    between atoms: C_16  and  N_46
REMARK    6  A    between atoms: C_17  and  C_18
REMARK    7  A    between atoms: C_17  and  N_46
REMARK                            x       y       z     vdW  Elec       q    Type
REMARK                         _______ _______ _______ _____ _____    ______ ____
ROOT
ATOM      1  C   UNL     1      -5.297  -0.739   5.514  0.00  0.00    +0.149 A 
ATOM      2  C   UNL     1      -5.733   0.406   4.861  0.00  0.00    +0.061 A 
ATOM      3  C   UNL     1      -5.372   0.629   3.545  0.00  0.00    +0.020 A 
ATOM      4  C   UNL     1      -4.577  -0.285   2.880  0.00  0.00    -0.062 A 
ATOM      5  C   UNL     1      -4.146  -1.429   3.526  0.00  0.00    +0.020 A 
ATOM      6  C   UNL     1      -4.499  -1.655   4.844  0.00  0.00    +0.061 A 
ATOM      7 BR   UNL     1      -3.902  -3.216   5.729  0.00  0.00    -0.046 Br
ATOM      8 BR   UNL     1      -6.820   1.658   5.770  0.00  0.00    -0.046 Br
ENDROOT
BRANCH   1   9
ATOM      9  O   UNL     1      -5.650  -0.961   6.807  0.00  0.00    -0.485 OA
BRANCH   9  10
ATOM     10  C   UNL     1      -6.860  -1.687   7.034  0.00  0.00    +0.264 C 
BRANCH  10  14
ATOM     11  C   UNL     1      -7.503  -2.107  11.236  0.00  0.00    +0.000 A 
ATOM     12  C   UNL     1      -8.014  -1.012  10.565  0.00  0.00    +0.000 A 
ATOM     13  C   UNL     1      -7.805  -0.875   9.205  0.00  0.00    +0.007 A 
ATOM     14  C   UNL     1      -7.087  -1.835   8.517  0.00  0.00    -0.010 A 
ATOM     15  C   UNL     1      -6.581  -2.933   9.187  0.00  0.00    +0.007 A 
ATOM     16  C   UNL     1      -6.784  -3.066  10.548  0.00  0.00    +0.000 A 
ENDBRANCH  10  14
ENDBRANCH   9  10
ENDBRANCH   1   9
BRANCH   4  17
ATOM     17  C   UNL     1      -4.186  -0.039   1.446  0.00  0.00    -0.046 C 
BRANCH  17  18
ATOM     18  N   UNL     1      -2.921   0.719   1.413  0.00  0.00    +0.384 N 
ATOM     19  H   UNL     1      -2.189   0.176   1.886  0.00  0.00    -0.085 HD
ATOM     20  H   UNL     1      -3.050   1.615   1.898  0.00  0.00    -0.085 HD
BRANCH  18  21
ATOM     21  C   UNL     1      -2.513   0.975   0.019  0.00  0.00    -0.046 C 
BRANCH  21  22
ATOM     22  C   UNL     1      -1.220   1.749   0.017  0.00  0.00    -0.061 A 
ATOM     23  C   UNL     1      -0.013   1.076   0.008  0.00  0.00    +0.005 A 
ATOM     24  C   UNL     1       1.176   1.782   0.000  0.00  0.00    +0.050 A 
ATOM     25  C   UNL     1       1.160   3.167   0.008  0.00  0.00    +0.166 A 
ATOM     26  C   UNL     1      -0.057   3.845   0.022  0.00  0.00    +0.166 A 
ATOM     27  C   UNL     1      -1.244   3.131   0.031  0.00  0.00    +0.051 A 
ATOM     28  O   UNL     1       0.192   5.188   0.026  0.00  0.00    -0.453 OA
ATOM     29  C   UNL     1       1.561   5.326  -0.398  0.00  0.00    +0.466 C 
ATOM     30  O   UNL     1       2.171   4.084   0.002  0.00  0.00    -0.453 OA
ENDBRANCH  21  22
ENDBRANCH  18  21
ENDBRANCH  17  18
ENDBRANCH   4  17
TORSDOF 7
