REMARK  Name = ZINC13203914
REMARK  12 active torsions:
REMARK  status: ('A' for Active; 'I' for Inactive)
REMARK    1  A    between atoms: C_1  and  C_2
REMARK    2  A    between atoms: C_2  and  C_3
REMARK    3  A    between atoms: C_8  and  N_9
REMARK    4  A    between atoms: C_10  and  C_12
REMARK    5  A    between atoms: C_12  and  N_13
REMARK    6  A    between atoms: N_13  and  C_14
REMARK    7  A    between atoms: C_15  and  C_17
REMARK    8  A    between atoms: C_17  and  S_18
REMARK    9  A    between atoms: S_18  and  C_19
REMARK   10  A    between atoms: C_22  and  C_27
REMARK   11  A    between atoms: N_23  and  C_24
REMARK   12  A    between atoms: C_24  and  C_25
REMARK                            x       y       z     vdW  Elec       q    Type
REMARK                         _______ _______ _______ _____ _____    ______ ____
ROOT
ATOM      1  N   UNL     1       3.368  11.965   0.021  0.00  0.00    -0.295 N 
ATOM      2  C   UNL     1       1.991  12.264   0.423  0.00  0.00    +0.132 C 
ATOM      3  C   UNL     1       3.741  10.690  -0.207  0.00  0.00    +0.226 C 
ATOM      4  O   UNL     1       4.881  10.442  -0.540  0.00  0.00    -0.275 OA
ENDROOT
BRANCH   1   5
ATOM      5  C   UNL     1       4.339  13.051  -0.132  0.00  0.00    +0.203 C 
BRANCH   5   7
ATOM      6  N   UNL     1       5.118  14.566  -1.926  0.00  0.00    -0.284 N 
ATOM      7  C   UNL     1       4.303  13.560  -1.550  0.00  0.00    +0.235 C 
ATOM      8  O   UNL     1       3.542  13.064  -2.353  0.00  0.00    -0.274 OA
ATOM      9  H   UNL     1       5.669  15.016  -1.266  0.00  0.00    +0.155 HD
BRANCH   6  15
ATOM     10  C   UNL     1       5.566  16.250  -3.598  0.00  0.00    -0.026 A 
ATOM     11  C   UNL     1       5.615  16.637  -4.923  0.00  0.00    +0.005 A 
ATOM     12  C   UNL     1       5.269  15.743  -5.919  0.00  0.00    +0.000 A 
ATOM     13  C   UNL     1       4.873  14.459  -5.593  0.00  0.00    +0.002 A 
ATOM     14  C   UNL     1       4.827  14.064  -4.271  0.00  0.00    +0.023 A 
ATOM     15  C   UNL     1       5.169  14.961  -3.267  0.00  0.00    +0.037 A 
BRANCH  10  17
ATOM     16  C   UNL     1       7.414  17.025  -2.137  0.00  0.00    +0.009 C 
ATOM     17  C   UNL     1       5.945  17.225  -2.513  0.00  0.00    +0.033 C 
ENDBRANCH  10  17
ENDBRANCH   6  15
ENDBRANCH   5   7
ENDBRANCH   1   5
BRANCH   3  18
ATOM     18  C   UNL     1       2.742   9.573  -0.049  0.00  0.00    +0.173 C 
BRANCH  18  19
ATOM     19  S   UNL     1       3.541   7.992  -0.423  0.00  0.00    -0.077 S 
BRANCH  19  20
ATOM     20  C   UNL     1       2.185   6.896  -0.166  0.00  0.00    +0.193 A 
ATOM     21  N   UNL     1       0.968   7.234   0.196  0.00  0.00    -0.122 NA
ATOM     22  N   UNL     1       0.228   6.188   0.290  0.00  0.00    -0.128 NA
ATOM     23  C   UNL     1       0.928   5.114  -0.006  0.00  0.00    +0.172 A 
ATOM     24  N   UNL     1       2.205   5.536  -0.302  0.00  0.00    -0.291 N 
BRANCH  23  25
ATOM     25  C   UNL     1       0.440   3.726  -0.013  0.00  0.00    +0.056 A 
ATOM     26  C   UNL     1      -0.851   3.263   0.002  0.00  0.00    +0.019 A 
ATOM     27  C   UNL     1      -1.065   1.903  -0.015  0.00  0.00    +0.008 A 
ATOM     28  C   UNL     1       0.003   1.064  -0.035  0.00  0.00    +0.046 A 
ATOM     29  S   UNL     1       1.375   2.205  -0.044  0.00  0.00    -0.094 S 
ENDBRANCH  23  25
BRANCH  24  30
ATOM     30  C   UNL     1       3.346   4.701  -0.686  0.00  0.00    +0.250 C 
BRANCH  30  31
ATOM     31  C   UNL     1       3.376   4.549  -2.185  0.00  0.00    +0.375 C 
ATOM     32  O   UNL     1       2.530   5.083  -2.863  0.00  0.00    -0.244 OA
ATOM     33  O   UNL     1       4.341   3.820  -2.767  0.00  0.00    -0.244 OA
ENDBRANCH  30  31
ENDBRANCH  24  30
ENDBRANCH  19  20
ENDBRANCH  18  19
ENDBRANCH   3  18
TORSDOF 10
