REMARK  Name = ZINC35845812
REMARK  6 active torsions:
REMARK  status: ('A' for Active; 'I' for Inactive)
REMARK    1  A    between atoms: C_4  and  C_7
REMARK    2  A    between atoms: C_7  and  C_8
REMARK    3  A    between atoms: C_7  and  N_14
REMARK    4  A    between atoms: C_15  and  C_17
REMARK    5  A    between atoms: C_17  and  N_18
REMARK    6  A    between atoms: C_26  and  C_28
REMARK                            x       y       z     vdW  Elec       q    Type
REMARK                         _______ _______ _______ _____ _____    ______ ____
ROOT
ATOM      1  C   UNL     1       3.722  -2.906  -3.171  0.00  0.00    +0.020 C 
ENDROOT
BRANCH   1   2
ATOM      2  N   UNL     1       3.996  -2.485  -4.551  0.00  0.00    +0.395 N 
ATOM      3  C   UNL     1       5.386  -2.021  -4.653  0.00  0.00    -0.055 C 
ATOM      4  C   UNL     1       5.595  -1.292  -5.986  0.00  0.00    +0.103 C 
ATOM      5  N   UNL     1       5.092  -2.156  -7.061  0.00  0.00    -0.353 N 
ATOM      6  C   UNL     1       5.334  -2.067  -8.393  0.00  0.00    +0.086 A 
ATOM      7  C   UNL     1       4.673  -3.071  -9.008  0.00  0.00    +0.019 A 
ATOM      8  C   UNL     1       3.996  -3.807  -8.012  0.00  0.00    +0.021 A 
ATOM      9  C   UNL     1       4.266  -3.226  -6.834  0.00  0.00    +0.009 A 
ATOM     10  C   UNL     1       3.778  -3.622  -5.462  0.00  0.00    +0.011 C 
ATOM     11  H   UNL     1       3.373  -1.732  -4.801  0.00  0.00    -0.080 HD
BRANCH  10  12
ATOM     12  C   UNL     1       2.309  -3.953  -5.520  0.00  0.00    -0.055 A 
ATOM     13  C   UNL     1       1.373  -2.937  -5.551  0.00  0.00    +0.004 A 
ATOM     14  C   UNL     1       0.025  -3.240  -5.605  0.00  0.00    +0.020 A 
ATOM     15  C   UNL     1      -0.386  -4.560  -5.627  0.00  0.00    +0.041 A 
ATOM     16  C   UNL     1       0.551  -5.577  -5.595  0.00  0.00    +0.020 A 
ATOM     17  C   UNL     1       1.899  -5.273  -5.548  0.00  0.00    +0.004 A 
ATOM     18 CL   UNL     1      -2.079  -4.942  -5.693  0.00  0.00    -0.084 Cl
ENDBRANCH  10  12
ENDBRANCH   1   2
BRANCH   1  20
ATOM     19  N   UNL     1       3.611  -1.865  -0.930  0.00  0.00    -0.306 N 
ATOM     20  C   UNL     1       3.825  -1.716  -2.253  0.00  0.00    +0.197 C 
ATOM     21  O   UNL     1       4.099  -0.624  -2.704  0.00  0.00    -0.278 OA
ATOM     22  H   UNL     1       3.392  -2.738  -0.569  0.00  0.00    +0.150 HD
BRANCH  19  23
ATOM     23  C   UNL     1       3.711  -0.707  -0.038  0.00  0.00    +0.133 C 
BRANCH  23  27
ATOM     24  C   UNL     1      -0.017   1.378   0.010  0.00  0.00    +0.000 A 
ATOM     25  C   UNL     1       1.171   2.086   0.002  0.00  0.00    +0.000 A 
ATOM     26  C   UNL     1       2.377   1.411  -0.013  0.00  0.00    +0.006 A 
ATOM     27  C   UNL     1       2.396   0.029  -0.020  0.00  0.00    -0.023 A 
ATOM     28  C   UNL     1       1.208  -0.679  -0.012  0.00  0.00    +0.006 A 
ATOM     29  C   UNL     1       0.002  -0.004   0.002  0.00  0.00    +0.000 A 
ENDBRANCH  23  27
BRANCH  23  30
ATOM     30  C   UNL     1       4.044  -1.175   1.356  0.00  0.00    -0.023 A 
ATOM     31  C   UNL     1       3.455  -2.320   1.860  0.00  0.00    +0.006 A 
ATOM     32  C   UNL     1       3.760  -2.748   3.138  0.00  0.00    +0.000 A 
ATOM     33  C   UNL     1       4.654  -2.033   3.912  0.00  0.00    +0.000 A 
ATOM     34  C   UNL     1       5.243  -0.888   3.408  0.00  0.00    +0.000 A 
ATOM     35  C   UNL     1       4.941  -0.462   2.128  0.00  0.00    +0.006 A 
ENDBRANCH  23  30
ENDBRANCH  19  23
ENDBRANCH   1  20
TORSDOF 6
