REMARK  Name = ZINC35594726
REMARK  8 active torsions:
REMARK  status: ('A' for Active; 'I' for Inactive)
REMARK    1  A    between atoms: C_1  and  C_2
REMARK    2  A    between atoms: C_7  and  C_8
REMARK    3  A    between atoms: C_11  and  C_34
REMARK    4  A    between atoms: N_13  and  C_27
REMARK    5  A    between atoms: N_15  and  C_20
REMARK    6  A    between atoms: C_20  and  C_21
REMARK    7  A    between atoms: N_23  and  C_24
REMARK    8  A    between atoms: C_32  and  C_33
REMARK                            x       y       z     vdW  Elec       q    Type
REMARK                         _______ _______ _______ _____ _____    ______ ____
ROOT
ATOM      1  C   UNL     1       0.983   1.702   1.285  0.00  0.00    +0.112 C 
ATOM      2  C   UNL     1       1.964   1.335   2.369  0.00  0.00    +0.038 A 
ATOM      3  C   UNL     1       2.880   0.270   2.361  0.00  0.00    +0.100 A 
ATOM      4  N   UNL     1       3.553   0.305   3.496  0.00  0.00    -0.164 NA
ATOM      5  N   UNL     1       3.084   1.389   4.253  0.00  0.00    -0.217 N 
ATOM      6  C   UNL     1       2.108   1.998   3.536  0.00  0.00    +0.137 A 
ATOM      7  N   UNL     1       1.345   3.119   3.897  0.00  0.00    -0.246 N 
ATOM      8  C   UNL     1       0.017   3.058   3.758  0.00  0.00    +0.231 C 
ATOM      9  O   UNL     1      -0.639   4.078   3.765  0.00  0.00    -0.274 OA
ATOM     10  C   UNL     1      -0.666   1.733   3.594  0.00  0.00    +0.166 C 
ATOM     11  S   UNL     1      -0.700   1.242   1.835  0.00  0.00    -0.138 S 
ENDROOT
BRANCH   1  18
ATOM     12  C   UNL     1       3.304   2.461  -0.258  0.00  0.00    +0.044 C 
ATOM     13  C   UNL     1       2.433   1.320  -0.718  0.00  0.00    -0.046 A 
ATOM     14  C   UNL     1       2.749   0.633  -1.875  0.00  0.00    +0.003 A 
ATOM     15  C   UNL     1       1.950  -0.413  -2.297  0.00  0.00    +0.000 A 
ATOM     16  C   UNL     1       0.837  -0.773  -1.561  0.00  0.00    +0.000 A 
ATOM     17  C   UNL     1       0.522  -0.087  -0.404  0.00  0.00    +0.005 A 
ATOM     18  C   UNL     1       1.323   0.957   0.020  0.00  0.00    -0.027 A 
ENDBRANCH   1  18
BRANCH   5  19
ATOM     19  C   UNL     1       3.542   1.772   5.521  0.00  0.00    +0.070 A 
ATOM     20  C   UNL     1       2.645   1.902   6.574  0.00  0.00    +0.028 A 
ATOM     21  C   UNL     1       3.099   2.280   7.822  0.00  0.00    +0.002 A 
ATOM     22  C   UNL     1       4.444   2.530   8.024  0.00  0.00    +0.000 A 
ATOM     23  C   UNL     1       5.339   2.401   6.978  0.00  0.00    +0.005 A 
ATOM     24  C   UNL     1       4.892   2.018   5.729  0.00  0.00    -0.025 A 
ATOM     25  C   UNL     1       5.869   1.872   4.590  0.00  0.00    +0.046 C 
ENDBRANCH   5  19
BRANCH   3  26
ATOM     26  C   UNL     1       3.059  -0.721   1.271  0.00  0.00    +0.002 A 
ATOM     27  C   UNL     1       4.285  -0.827   0.617  0.00  0.00    +0.010 A 
ATOM     28  C   UNL     1       4.446  -1.750  -0.397  0.00  0.00    +0.001 A 
ATOM     29  C   UNL     1       3.393  -2.568  -0.764  0.00  0.00    +0.000 A 
ATOM     30  C   UNL     1       2.174  -2.467  -0.118  0.00  0.00    +0.001 A 
ATOM     31  C   UNL     1       2.004  -1.552   0.901  0.00  0.00    +0.010 A 
ENDBRANCH   3  26
BRANCH   7  32
ATOM     32  C   UNL     1       1.988   4.328   4.416  0.00  0.00    +0.210 C 
BRANCH  32  33
ATOM     33  C   UNL     1       2.311   5.255   3.272  0.00  0.00    +0.231 C 
ATOM     34  O   UNL     1       2.030   4.937   2.136  0.00  0.00    -0.274 OA
ATOM     35  N   UNL     1       2.910   6.438   3.512  0.00  0.00    -0.311 N 
ATOM     36  H   UNL     1       3.135   6.693   4.420  0.00  0.00    +0.149 HD
BRANCH  35  37
ATOM     37  C   UNL     1       3.224   7.339   2.400  0.00  0.00    +0.073 C 
ATOM     38  C   UNL     1       4.597   8.014   2.403  0.00  0.00    +0.024 C 
ATOM     39  C   UNL     1       3.342   8.832   2.712  0.00  0.00    +0.024 C 
ENDBRANCH  35  37
ENDBRANCH  32  33
ENDBRANCH   7  32
TORSDOF 6
