REMARK  Name = ZINC09251131
REMARK  8 active torsions:
REMARK  status: ('A' for Active; 'I' for Inactive)
REMARK    1  A    between atoms: C_1  and  O_2
REMARK    2  A    between atoms: O_2  and  C_3
REMARK    3  A    between atoms: C_5  and  O_29
REMARK    4  A    between atoms: C_8  and  N_9
REMARK    5  A    between atoms: N_12  and  C_13
REMARK    6  A    between atoms: C_13  and  C_14
REMARK    7  A    between atoms: C_18  and  N_19
REMARK    8  A    between atoms: O_29  and  C_30
REMARK                            x       y       z     vdW  Elec       q    Type
REMARK                         _______ _______ _______ _____ _____    ______ ____
ROOT
ATOM      1  N   UNL     1       1.072   0.727   6.192  0.00  0.00    -0.266 N 
ATOM      2  C   UNL     1       0.596   1.003   7.423  0.00  0.00    +0.304 C 
ATOM      3  O   UNL     1      -0.461   1.592   7.548  0.00  0.00    -0.252 OA
ATOM      4  N   UNL     1       1.290   0.626   8.514  0.00  0.00    -0.295 N 
ATOM      5  H   UNL     1       1.872   0.187   6.092  0.00  0.00    +0.156 HD
ATOM      6  H   UNL     1       2.133   0.156   8.415  0.00  0.00    +0.151 HD
ENDROOT
BRANCH   1  12
ATOM      7  C   UNL     1       0.635   0.640   3.812  0.00  0.00    +0.145 A 
ATOM      8  C   UNL     1      -0.017   1.130   2.693  0.00  0.00    +0.094 A 
ATOM      9  C   UNL     1      -0.892   2.199   2.814  0.00  0.00    +0.142 A 
ATOM     10  C   UNL     1      -1.110   2.782   4.054  0.00  0.00    +0.084 A 
ATOM     11  C   UNL     1      -0.464   2.291   5.174  0.00  0.00    +0.050 A 
ATOM     12  C   UNL     1       0.412   1.222   5.057  0.00  0.00    +0.078 A 
ATOM     13 CL   UNL     1      -2.200   4.125   4.202  0.00  0.00    -0.080 Cl
BRANCH   7  15
ATOM     14  C   UNL     1       1.675  -0.956   2.387  0.00  0.00    +0.277 C 
ATOM     15  O   UNL     1       1.494  -0.409   3.695  0.00  0.00    -0.493 OA
ENDBRANCH   7  15
BRANCH   9  16
ATOM     16  O   UNL     1      -1.532   2.681   1.715  0.00  0.00    -0.494 OA
ATOM     17  C   UNL     1      -1.256   2.037   0.469  0.00  0.00    +0.277 C 
ENDBRANCH   9  16
ENDBRANCH   1  12
BRANCH   4  18
ATOM     18  C   UNL     1       0.772   0.925   9.852  0.00  0.00    +0.144 C 
BRANCH  18  19
ATOM     19  C   UNL     1       1.730   0.401  10.890  0.00  0.00    +0.004 A 
ATOM     20  C   UNL     1       2.755   1.217  11.371  0.00  0.00    -0.030 A 
ATOM     21  C   UNL     1       3.579   0.672  12.306  0.00  0.00    -0.005 A 
ATOM     22  S   UNL     1       2.944  -0.968  12.530  0.00  0.00    -0.075 S 
ATOM     23  C   UNL     1       1.594  -0.865  11.364  0.00  0.00    +0.089 A 
ATOM     24  C   UNL     1       4.745   1.319  12.981  0.00  0.00    +0.043 C 
ATOM     25  C   UNL     1       5.113   2.588  12.196  0.00  0.00    +0.005 C 
ATOM     26  C   UNL     1       3.835   3.385  11.922  0.00  0.00    +0.005 C 
ATOM     27  C   UNL     1       2.970   2.651  10.897  0.00  0.00    +0.036 C 
BRANCH  23  28
ATOM     28  N   UNL     1       0.644  -1.836  11.026  0.00  0.00    -0.317 N 
ATOM     29  C   UNL     1      -0.070  -2.592  11.911  0.00  0.00    +0.092 A 
ATOM     30  C   UNL     1      -0.883  -3.408  11.207  0.00  0.00    +0.019 A 
ATOM     31  C   UNL     1      -0.655  -3.155   9.840  0.00  0.00    +0.019 A 
ATOM     32  C   UNL     1       0.283  -2.189   9.758  0.00  0.00    +0.092 A 
ENDBRANCH  23  28
ENDBRANCH  18  19
ENDBRANCH   4  18
TORSDOF 6
