REMARK  Name = ZINC08896733
REMARK  7 active torsions:
REMARK  status: ('A' for Active; 'I' for Inactive)
REMARK    1  A    between atoms: C_1  and  C_2
REMARK    2  A    between atoms: C_9  and  N_14
REMARK    3  A    between atoms: C_10  and  C_11
REMARK    4  A    between atoms: N_14  and  C_15
REMARK    5  A    between atoms: C_15  and  N_17
REMARK    6  A    between atoms: C_18  and  C_20
REMARK    7  A    between atoms: C_23  and  C_25
REMARK                            x       y       z     vdW  Elec       q    Type
REMARK                         _______ _______ _______ _____ _____    ______ ____
ROOT
ATOM      1  C   UNL     1      -3.570  -6.204   0.396  0.00  0.00    +0.142 C 
ATOM      2  S   UNL     1      -4.597  -4.962  -0.181  0.00  0.00    -0.018 S 
ENDROOT
BRANCH   1   3
ATOM      3  N   UNL     1      -4.026  -7.469   0.484  0.00  0.00    -0.261 N 
ATOM      4  C   UNL     1      -5.290  -7.757   0.117  0.00  0.00    +0.285 C 
ATOM      5  O   UNL     1      -6.021  -6.874  -0.293  0.00  0.00    -0.266 OA
ATOM      6  H   UNL     1      -3.443  -8.172   0.811  0.00  0.00    +0.157 HD
BRANCH   4   7
ATOM      7  C   UNL     1      -5.785  -9.131   0.212  0.00  0.00    +0.190 A 
ATOM      8  C   UNL     1      -7.050  -9.561  -0.128  0.00  0.00    +0.055 A 
ATOM      9  C   UNL     1      -7.088 -10.937   0.119  0.00  0.00    +0.050 A 
ATOM     10  C   UNL     1      -5.859 -11.293   0.596  0.00  0.00    +0.136 A 
ATOM     11  O   UNL     1      -5.081 -10.199   0.643  0.00  0.00    -0.450 OA
BRANCH  10  12
ATOM     12  C   UNL     1      -5.451 -12.657   0.990  0.00  0.00    +0.019 A 
ATOM     13  C   UNL     1      -4.159 -12.893   1.464  0.00  0.00    +0.013 A 
ATOM     14  C   UNL     1      -3.783 -14.168   1.831  0.00  0.00    +0.022 A 
ATOM     15  C   UNL     1      -4.684 -15.214   1.730  0.00  0.00    +0.059 A 
ATOM     16  C   UNL     1      -5.968 -14.988   1.260  0.00  0.00    +0.060 A 
ATOM     17  C   UNL     1      -6.357 -13.715   0.894  0.00  0.00    +0.033 A 
ATOM     18 CL   UNL     1      -7.091 -16.306   1.137  0.00  0.00    -0.082 Cl
ATOM     19 CL   UNL     1      -4.204 -16.817   2.193  0.00  0.00    -0.082 Cl
ENDBRANCH  10  12
ENDBRANCH   4   7
ENDBRANCH   1   3
BRANCH   1  20
ATOM     20  N   UNL     1      -2.305  -5.916   0.763  0.00  0.00    -0.291 N 
ATOM     21  H   UNL     1      -1.723  -6.620   1.090  0.00  0.00    +0.154 HD
BRANCH  20  29
ATOM     22  C   UNL     1      -0.019   1.526   0.010  0.00  0.00    +0.008 C 
ATOM     23  C   UNL     1       0.002  -0.004   0.002  0.00  0.00    -0.009 C 
ATOM     24  C   UNL     1       0.742  -0.514   1.242  0.00  0.00    +0.008 C 
ATOM     25  C   UNL     1       0.984  -2.020   1.121  0.00  0.00    +0.037 C 
ATOM     26  C   UNL     1      -0.340  -2.706   0.809  0.00  0.00    -0.023 A 
ATOM     27  C   UNL     1      -1.390  -2.006   0.327  0.00  0.00    -0.004 A 
ATOM     28  S   UNL     1      -2.678  -3.203   0.125  0.00  0.00    -0.077 S 
ATOM     29  C   UNL     1      -1.837  -4.615   0.673  0.00  0.00    +0.084 A 
ATOM     30  C   UNL     1      -0.579  -4.127   0.999  0.00  0.00    +0.068 A 
ATOM     31  C   UNL     1      -1.437  -0.538   0.030  0.00  0.00    +0.046 C 
BRANCH  30  32
ATOM     32  C   UNL     1       0.469  -5.011   1.516  0.00  0.00    +0.244 C 
ATOM     33  O   UNL     1       0.577  -5.192   2.715  0.00  0.00    -0.270 OA
ATOM     34  N   UNL     1       1.314  -5.624   0.664  0.00  0.00    -0.325 N 
ATOM     35  H   UNL     1       1.229  -5.480  -0.291  0.00  0.00    +0.145 HD
ATOM     36  H   UNL     1       2.008  -6.210   1.006  0.00  0.00    +0.145 HD
ENDBRANCH  30  32
ENDBRANCH  20  29
ENDBRANCH   1  20
TORSDOF 6
