REMARK  Name = ZINC09512922
REMARK  8 active torsions:
REMARK  status: ('A' for Active; 'I' for Inactive)
REMARK    1  A    between atoms: C_1  and  C_2
REMARK    2  A    between atoms: C_5  and  C_7
REMARK    3  A    between atoms: C_7  and  N_51
REMARK    4  A    between atoms: C_8  and  N_51
REMARK    5  A    between atoms: C_9  and  C_11
REMARK    6  A    between atoms: C_9  and  C_12
REMARK    7  A    between atoms: C_9  and  N_51
REMARK    8  A    between atoms: C_24  and  C_28
REMARK                            x       y       z     vdW  Elec       q    Type
REMARK                         _______ _______ _______ _____ _____    ______ ____
ROOT
ATOM      1  C   UNL     1      -2.977  -2.652   0.922  0.00  0.00    +0.097 A 
ATOM      2  N   UNL     1      -3.197  -1.315   0.924  0.00  0.00    -0.312 N 
ATOM      3  H   UNL     1      -4.096  -0.995   1.094  0.00  0.00    +0.170 HD
ATOM      4  C   UNL     1      -2.219  -0.406   0.701  0.00  0.00    +0.260 A 
ATOM      5  O   UNL     1      -2.436   0.794   0.706  0.00  0.00    -0.267 OA
ATOM      6  C   UNL     1      -0.911  -0.945   0.457  0.00  0.00    +0.075 A 
ATOM      7  C   UNL     1       0.303  -0.195   0.191  0.00  0.00    -0.023 A 
ATOM      8  C   UNL     1       1.430  -0.916  -0.013  0.00  0.00    -0.004 A 
ATOM      9  S   UNL     1       0.929  -2.613   0.140  0.00  0.00    -0.073 S 
ATOM     10  C   UNL     1      -0.783  -2.351   0.475  0.00  0.00    +0.116 A 
ATOM     11  N   UNL     1      -1.795  -3.184   0.703  0.00  0.00    -0.228 NA
ATOM     12  C   UNL     1       2.803  -0.393  -0.304  0.00  0.00    +0.046 C 
ATOM     13  C   UNL     1       2.684   1.084  -0.707  0.00  0.00    -0.009 C 
ATOM     14  C   UNL     1       1.785   1.798   0.305  0.00  0.00    +0.008 C 
ATOM     15  C   UNL     1       0.339   1.331   0.137  0.00  0.00    +0.037 C 
ATOM     16  C   UNL     1       4.072   1.728  -0.710  0.00  0.00    +0.008 C 
ENDROOT
BRANCH   1  17
ATOM     17  C   UNL     1      -4.142  -3.572   1.183  0.00  0.00    -0.004 C 
ATOM     18  C   UNL     1      -4.818  -3.180   2.498  0.00  0.00    -0.005 C 
BRANCH  17  20
ATOM     19  C   UNL     1      -4.777  -5.909   1.190  0.00  0.00    -0.095 C 
ATOM     20  N   UNL     1      -3.643  -4.962   1.252  0.00  0.00    +0.389 N 
ATOM     21  H   UNL     1      -3.022  -5.133   0.453  0.00  0.00    -0.081 HD
BRANCH  20  22
ATOM     22  C   UNL     1      -2.884  -5.165   2.503  0.00  0.00    -0.003 C 
BRANCH  22  27
ATOM     23  C   UNL     1      -2.041 -10.109   3.035  0.00  0.00    +0.086 C 
ATOM     24  C   UNL     1      -1.839  -8.659   2.679  0.00  0.00    +0.102 A 
ATOM     25  C   UNL     1      -0.745  -8.138   2.095  0.00  0.00    +0.044 A 
ATOM     26  C   UNL     1      -0.981  -6.752   1.946  0.00  0.00    +0.043 A 
ATOM     27  C   UNL     1      -2.205  -6.509   2.447  0.00  0.00    +0.089 A 
ATOM     28  O   UNL     1      -2.717  -7.667   2.895  0.00  0.00    -0.467 OA
ENDBRANCH  22  27
ENDBRANCH  20  22
ENDBRANCH  17  20
ENDBRANCH   1  17
TORSDOF 4
