REMARK  Name = ZINC67075770
REMARK  9 active torsions:
REMARK  status: ('A' for Active; 'I' for Inactive)
REMARK    1  A    between atoms: C_1  and  C_2
REMARK    2  A    between atoms: C_2  and  N_3
REMARK    3  A    between atoms: C_4  and  C_9
REMARK    4  A    between atoms: C_9  and  C_10
REMARK    5  A    between atoms: C_10  and  N_11
REMARK    6  A    between atoms: C_12  and  C_14
REMARK    7  A    between atoms: C_15  and  C_16
REMARK    8  A    between atoms: C_15  and  C_17
REMARK    9  A    between atoms: C_20  and  C_23
REMARK                            x       y       z     vdW  Elec       q    Type
REMARK                         _______ _______ _______ _____ _____    ______ ____
ROOT
ATOM      1  N   UNL     1      -3.055  -0.841  -4.479  0.00  0.00    -0.311 N 
ATOM      2  C   UNL     1      -3.517  -1.133  -5.712  0.00  0.00    +0.237 C 
ATOM      3  O   UNL     1      -2.749  -1.516  -6.574  0.00  0.00    -0.271 OA
ATOM      4  H   UNL     1      -3.667  -0.535  -3.792  0.00  0.00    +0.149 HD
ENDROOT
BRANCH   2   5
ATOM      5  C   UNL     1      -4.943  -0.989  -6.012  0.00  0.00    +0.071 C 
ATOM      6  C   UNL     1      -5.405  -1.281  -7.244  0.00  0.00    -0.038 C 
ATOM      7  C   UNL     1      -6.873  -1.133  -7.553  0.00  0.00    +0.044 C 
BRANCH   6   8
ATOM      8  C   UNL     1      -4.476  -1.745  -8.288  0.00  0.00    -0.022 A 
ATOM      9  C   UNL     1      -3.471  -0.896  -8.761  0.00  0.00    +0.009 A 
ATOM     10  C   UNL     1      -2.605  -1.337  -9.739  0.00  0.00    +0.013 A 
ATOM     11  C   UNL     1      -2.729  -2.617 -10.252  0.00  0.00    +0.055 A 
ATOM     12  C   UNL     1      -3.721  -3.463  -9.788  0.00  0.00    +0.013 A 
ATOM     13  C   UNL     1      -4.591  -3.038  -8.807  0.00  0.00    +0.009 A 
BRANCH  11  14
ATOM     14  C   UNL     1      -1.778  -3.091 -11.321  0.00  0.00    +0.417 C 
ATOM     15  F   UNL     1      -0.664  -3.690 -10.722  0.00  0.00    -0.166 F 
ATOM     16  F   UNL     1      -2.425  -4.024 -12.139  0.00  0.00    -0.166 F 
ATOM     17  F   UNL     1      -1.363  -2.001 -12.093  0.00  0.00    -0.166 F 
ENDBRANCH  11  14
ENDBRANCH   6   8
ENDBRANCH   2   5
BRANCH   1  18
ATOM     18  C   UNL     1      -1.629  -0.985  -4.179  0.00  0.00    +0.112 C 
BRANCH  18  19
ATOM     19  C   UNL     1      -1.372  -0.593  -2.723  0.00  0.00    +0.095 C 
BRANCH  19  21
ATOM     20  N   UNL     1       0.688  -0.476  -1.203  0.00  0.00    -0.307 N 
ATOM     21  C   UNL     1       0.096  -0.741  -2.414  0.00  0.00    +0.133 A 
ATOM     22  N   UNL     1       1.004  -1.138  -3.245  0.00  0.00    -0.159 NA
ATOM     23  N   UNL     1       2.236  -1.141  -2.577  0.00  0.00    -0.254 N 
ATOM     24  C   UNL     1       2.009  -0.721  -1.315  0.00  0.00    +0.176 A 
ATOM     25  S   UNL     1       3.182  -0.536  -0.082  0.00  0.00    -0.011 S 
ATOM     26  H   UNL     1       3.094  -1.394  -2.953  0.00  0.00    +0.191 HD
BRANCH  20  28
ATOM     27  C   UNL     1      -0.019   1.526   0.010  0.00  0.00    +0.027 C 
ATOM     28  C   UNL     1       0.002  -0.004   0.002  0.00  0.00    +0.122 C 
ENDBRANCH  20  28
ENDBRANCH  19  21
ENDBRANCH  18  19
ENDBRANCH   1  18
TORSDOF 7
