REMARK  Name = ZINC02112886
REMARK  7 active torsions:
REMARK  status: ('A' for Active; 'I' for Inactive)
REMARK    1  A    between atoms: C_1  and  C_2
REMARK    2  A    between atoms: C_2  and  O_3
REMARK    3  A    between atoms: O_3  and  C_4
REMARK    4  A    between atoms: C_7  and  C_12
REMARK    5  A    between atoms: C_9  and  O_10
REMARK    6  A    between atoms: O_10  and  C_11
REMARK    7  A    between atoms: N_31  and  C_34
REMARK                            x       y       z     vdW  Elec       q    Type
REMARK                         _______ _______ _______ _____ _____    ______ ____
ROOT
ATOM      1  C   UNL     1       5.390   3.012  -0.296  0.00  0.00    +0.154 C 
ATOM      2  C   UNL     1       5.964   2.239   0.870  0.00  0.00    +0.046 A 
ATOM      3  C   UNL     1       5.347   1.180   1.437  0.00  0.00    -0.015 A 
ATOM      4  C   UNL     1       6.206   0.713   2.507  0.00  0.00    +0.003 A 
ATOM      5  C   UNL     1       6.092  -0.335   3.425  0.00  0.00    +0.010 A 
ATOM      6  C   UNL     1       7.120  -0.490   4.321  0.00  0.00    +0.001 A 
ATOM      7  C   UNL     1       8.225   0.347   4.326  0.00  0.00    +0.002 A 
ATOM      8  C   UNL     1       8.364   1.391   3.428  0.00  0.00    +0.026 A 
ATOM      9  C   UNL     1       7.335   1.572   2.506  0.00  0.00    +0.047 A 
ATOM     10  N   UNL     1       7.153   2.481   1.504  0.00  0.00    -0.356 N 
ATOM     11  H   UNL     1       7.773   3.191   1.275  0.00  0.00    +0.166 HD
ATOM     12  C   UNL     1       4.014   0.628   1.002  0.00  0.00    +0.069 C 
ATOM     13  C   UNL     1       3.696   1.152  -0.406  0.00  0.00    +0.167 C 
ATOM     14  N   UNL     1       3.985   2.585  -0.461  0.00  0.00    -0.276 N 
ATOM     15  C   UNL     1       3.045   3.511  -0.658  0.00  0.00    +0.234 C 
ATOM     16  O   UNL     1       3.382   4.676  -0.619  0.00  0.00    -0.274 OA
ATOM     17  C   UNL     1       1.607   3.211  -0.929  0.00  0.00    +0.204 C 
ATOM     18  N   UNL     1       1.345   1.782  -0.971  0.00  0.00    -0.288 N 
ATOM     19  C   UNL     1       2.271   0.853  -0.744  0.00  0.00    +0.237 C 
ATOM     20  O   UNL     1       1.937  -0.311  -0.815  0.00  0.00    -0.274 OA
ENDROOT
BRANCH  18  21
ATOM     21  C   UNL     1      -0.014   1.339  -1.289  0.00  0.00    +0.077 C 
ATOM     22  C   UNL     1      -0.986   1.883  -0.240  0.00  0.00    +0.022 C 
ATOM     23  C   UNL     1      -2.419   1.770  -0.765  0.00  0.00    +0.002 C 
ATOM     24  C   UNL     1      -2.882   0.315  -0.674  0.00  0.00    +0.000 C 
ATOM     25  C   UNL     1      -2.236  -0.497  -1.797  0.00  0.00    +0.000 C 
ATOM     26  C   UNL     1      -2.307   0.293  -3.105  0.00  0.00    +0.000 C 
ATOM     27  C   UNL     1      -0.895   0.694  -3.537  0.00  0.00    +0.002 C 
ATOM     28  C   UNL     1      -0.411   1.860  -2.671  0.00  0.00    +0.022 C 
ENDBRANCH  18  21
BRANCH   1  32
ATOM     29  C   UNL     1       5.551   7.206   0.527  0.00  0.00    +0.162 A 
ATOM     30  C   UNL     1       4.995   6.336   1.452  0.00  0.00    +0.050 A 
ATOM     31  C   UNL     1       4.945   4.981   1.183  0.00  0.00    +0.009 A 
ATOM     32  C   UNL     1       5.447   4.490  -0.008  0.00  0.00    -0.018 A 
ATOM     33  C   UNL     1       6.007   5.352  -0.933  0.00  0.00    +0.055 A 
ATOM     34  C   UNL     1       6.056   6.712  -0.671  0.00  0.00    +0.162 A 
BRANCH  34  35
ATOM     35  O   UNL     1       6.602   7.562  -1.582  0.00  0.00    -0.491 OA
ATOM     36  C   UNL     1       7.101   6.984  -2.791  0.00  0.00    +0.277 C 
ENDBRANCH  34  35
BRANCH  29  37
ATOM     37  O   UNL     1       5.602   8.539   0.791  0.00  0.00    -0.489 OA
BRANCH  37  39
ATOM     38  C   UNL     1       5.210  10.493   2.158  0.00  0.00    +0.048 C 
ATOM     39  C   UNL     1       5.064   8.974   2.041  0.00  0.00    +0.226 C 
ENDBRANCH  37  39
ENDBRANCH  29  37
ENDBRANCH   1  32
TORSDOF 5
