REMARK  Name = ZINC36872194
REMARK  7 active torsions:
REMARK  status: ('A' for Active; 'I' for Inactive)
REMARK    1  A    between atoms: C_11  and  C_14
REMARK    2  A    between atoms: C_14  and  C_16
REMARK    3  A    between atoms: C_16  and  O_17
REMARK    4  A    between atoms: O_17  and  C_18
REMARK    5  A    between atoms: C_18  and  C_20
REMARK    6  A    between atoms: C_20  and  N_21
REMARK    7  A    between atoms: C_22  and  C_24
REMARK                            x       y       z     vdW  Elec       q    Type
REMARK                         _______ _______ _______ _____ _____    ______ ____
ROOT
ATOM      1  O   UNL     1       9.535  -2.291  -0.105  0.00  0.00    -0.455 OA
ENDROOT
BRANCH   1   2
ATOM      2  C   UNL     1      10.503  -3.221  -0.120  0.00  0.00    +0.325 C 
ATOM      3  O   UNL     1      10.214  -4.394  -0.123  0.00  0.00    -0.249 OA
BRANCH   2   4
ATOM      4  C   UNL     1      11.950  -2.801  -0.132  0.00  0.00    +0.224 C 
BRANCH   4   5
ATOM      5  N   UNL     1      12.804  -3.992  -0.147  0.00  0.00    -0.304 N 
ATOM      6  C   UNL     1      14.145  -3.860  -0.160  0.00  0.00    +0.220 C 
ATOM      7  O   UNL     1      14.645  -2.755  -0.160  0.00  0.00    -0.275 OA
ATOM      8  H   UNL     1      12.403  -4.875  -0.147  0.00  0.00    +0.149 HD
BRANCH   6   9
ATOM      9  C   UNL     1      15.023  -5.084  -0.175  0.00  0.00    +0.048 C 
ATOM     10  C   UNL     1      14.746  -5.926   1.073  0.00  0.00    +0.019 C 
ATOM     11  C   UNL     1      15.637  -7.169   1.057  0.00  0.00    -0.009 C 
ATOM     12  C   UNL     1      17.107  -6.743   1.044  0.00  0.00    +0.007 C 
ATOM     13  C   UNL     1      17.383  -5.902  -0.204  0.00  0.00    -0.009 C 
ATOM     14  C   UNL     1      16.492  -4.659  -0.188  0.00  0.00    +0.019 C 
ATOM     15  C   UNL     1      17.081  -6.730  -1.454  0.00  0.00    +0.007 C 
ATOM     16  C   UNL     1      15.612  -7.156  -1.441  0.00  0.00    -0.009 C 
ATOM     17  C   UNL     1      15.336  -7.997  -0.193  0.00  0.00    +0.007 C 
ATOM     18  C   UNL     1      14.721  -5.913  -1.426  0.00  0.00    +0.019 C 
ENDBRANCH   6   9
ENDBRANCH   4   5
ENDBRANCH   2   4
ENDBRANCH   1   2
BRANCH   1  19
ATOM     19  C   UNL     1       8.185  -2.760  -0.094  0.00  0.00    +0.311 C 
BRANCH  19  20
ATOM     20  C   UNL     1       7.244  -1.583  -0.078  0.00  0.00    +0.200 C 
ATOM     21  O   UNL     1       7.686  -0.454  -0.077  0.00  0.00    -0.288 OA
BRANCH  20  32
ATOM     22  C   UNL     1      -0.017   1.379   0.010  0.00  0.00    +0.000 A 
ATOM     23  C   UNL     1       1.171   2.089   0.002  0.00  0.00    +0.001 A 
ATOM     24  C   UNL     1       2.378   1.423  -0.013  0.00  0.00    +0.009 A 
ATOM     25  C   UNL     1       2.405   0.027  -0.021  0.00  0.00    -0.014 A 
ATOM     26  C   UNL     1       1.205  -0.678  -0.013  0.00  0.00    -0.035 A 
ATOM     27  C   UNL     1       0.002  -0.004   0.002  0.00  0.00    +0.004 A 
ATOM     28  C   UNL     1       1.541  -2.149  -0.024  0.00  0.00    +0.071 C 
ATOM     29  C   UNL     1       3.049  -2.233  -0.040  0.00  0.00    -0.035 A 
ATOM     30  C   UNL     1       3.541  -0.929  -0.037  0.00  0.00    -0.013 A 
ATOM     31  C   UNL     1       4.917  -0.714  -0.050  0.00  0.00    +0.020 A 
ATOM     32  C   UNL     1       5.789  -1.804  -0.064  0.00  0.00    +0.021 A 
ATOM     33  C   UNL     1       5.278  -3.106  -0.066  0.00  0.00    +0.012 A 
ATOM     34  C   UNL     1       3.913  -3.310  -0.054  0.00  0.00    +0.005 A 
ENDBRANCH  20  32
ENDBRANCH  19  20
ENDBRANCH   1  19
TORSDOF 7
