REMARK  Name = ZINC58088571
REMARK  7 active torsions:
REMARK  status: ('A' for Active; 'I' for Inactive)
REMARK    1  A    between atoms: C_1  and  C_2
REMARK    2  A    between atoms: C_5  and  C_8
REMARK    3  A    between atoms: C_8  and  N_9
REMARK    4  A    between atoms: C_14  and  C_32
REMARK    5  A    between atoms: C_15  and  C_25
REMARK    6  A    between atoms: C_20  and  C_24
REMARK    7  A    between atoms: C_25  and  C_26
REMARK                            x       y       z     vdW  Elec       q    Type
REMARK                         _______ _______ _______ _____ _____    ______ ____
ROOT
ATOM      1  N   UNL     1       1.451  -4.747  -0.032  0.00  0.00    -0.262 NA
ATOM      2  C   UNL     1       1.515  -6.201   0.173  0.00  0.00    +0.126 C 
ATOM      3  C   UNL     1       2.934  -6.675  -0.017  0.00  0.00    +0.009 A 
ATOM      4  C   UNL     1       3.296  -7.900   0.469  0.00  0.00    +0.020 A 
ATOM      5  C   UNL     1       4.606  -8.360   0.303  0.00  0.00    +0.022 A 
ATOM      6  C   UNL     1       5.016  -9.669   0.818  0.00  0.00    -0.030 A 
ATOM      7  C   UNL     1       6.304 -10.053   0.623  0.00  0.00    +0.045 A 
ATOM      8  C   UNL     1       7.193  -9.197  -0.058  0.00  0.00    +0.341 A 
ATOM      9  O   UNL     1       8.344  -9.558  -0.222  0.00  0.00    -0.245 OA
ATOM     10  O   UNL     1       6.818  -8.002  -0.530  0.00  0.00    -0.422 OA
ATOM     11  C   UNL     1       5.553  -7.563  -0.366  0.00  0.00    +0.146 A 
ATOM     12  C   UNL     1       5.170  -6.323  -0.853  0.00  0.00    +0.034 A 
ATOM     13  C   UNL     1       3.867  -5.880  -0.678  0.00  0.00    +0.133 A 
ATOM     14  O   UNL     1       3.519  -4.657  -1.159  0.00  0.00    -0.476 OA
ATOM     15  C   UNL     1       2.123  -4.381  -1.290  0.00  0.00    +0.319 C 
ATOM     16  C   UNL     1       6.170  -5.455  -1.572  0.00  0.00    +0.051 C 
ATOM     17  C   UNL     1       4.039 -10.560   1.542  0.00  0.00    +0.045 C 
ENDROOT
BRANCH   1  18
ATOM     18  C   UNL     1       0.059  -4.275  -0.021  0.00  0.00    +0.123 C 
BRANCH  18  23
ATOM     19  C   UNL     1      -0.018   1.503   0.010  0.00  0.00    +0.044 C 
ATOM     20  C   UNL     1       0.002  -0.004   0.002  0.00  0.00    -0.050 A 
ATOM     21  C   UNL     1       0.006  -0.689  -1.199  0.00  0.00    +0.003 A 
ATOM     22  C   UNL     1       0.025  -2.071  -1.206  0.00  0.00    +0.005 A 
ATOM     23  C   UNL     1       0.040  -2.768  -0.013  0.00  0.00    -0.033 A 
ATOM     24  C   UNL     1       0.037  -2.084   1.188  0.00  0.00    +0.005 A 
ATOM     25  C   UNL     1       0.023  -0.702   1.195  0.00  0.00    +0.003 A 
ENDBRANCH  18  23
ENDBRANCH   1  18
BRANCH   7  26
ATOM     26  C   UNL     1       6.781 -11.389   1.132  0.00  0.00    +0.077 C 
BRANCH  26  27
ATOM     27  C   UNL     1       6.688 -12.410   0.028  0.00  0.00    -0.043 A 
ATOM     28  C   UNL     1       5.528 -13.143  -0.141  0.00  0.00    +0.004 A 
ATOM     29  C   UNL     1       5.443 -14.079  -1.154  0.00  0.00    +0.000 A 
ATOM     30  C   UNL     1       6.518 -14.283  -1.999  0.00  0.00    +0.000 A 
ATOM     31  C   UNL     1       7.678 -13.550  -1.831  0.00  0.00    +0.000 A 
ATOM     32  C   UNL     1       7.761 -12.610  -0.821  0.00  0.00    +0.004 A 
ENDBRANCH  26  27
ENDBRANCH   7  26
TORSDOF 4
