REMARK  Name = ZINC37605477
REMARK  3 active torsions:
REMARK  status: ('A' for Active; 'I' for Inactive)
REMARK    1  A    between atoms: C_3  and  C_7
REMARK    2  A    between atoms: C_9  and  C_12
REMARK    3  A    between atoms: C_14  and  N_20
REMARK                            x       y       z     vdW  Elec       q    Type
REMARK                         _______ _______ _______ _____ _____    ______ ____
ROOT
ATOM      1  C   UNL     1       3.684   2.033  -0.023  0.00  0.00    +0.204 A 
ATOM      2  N   UNL     1       4.884   1.432  -0.043  0.00  0.00    -0.187 NA
ATOM      3  C   UNL     1       5.837   2.336  -0.046  0.00  0.00    +0.262 A 
ATOM      4  O   UNL     1       5.263   3.552  -0.027  0.00  0.00    -0.332 OA
ATOM      5  N   UNL     1       3.860   3.332  -0.018  0.00  0.00    -0.056 NA
ENDROOT
BRANCH   3   6
ATOM      6  C   UNL     1       7.288   2.064  -0.066  0.00  0.00    +0.076 A 
ATOM      7  C   UNL     1       8.199   3.122  -0.061  0.00  0.00    +0.041 A 
ATOM      8  C   UNL     1       9.558   2.861  -0.080  0.00  0.00    +0.061 A 
ATOM      9  C   UNL     1      10.015   1.545  -0.104  0.00  0.00    +0.147 A 
ATOM     10  C   UNL     1       9.114   0.495  -0.108  0.00  0.00    +0.079 A 
ATOM     11  C   UNL     1       7.754   0.746  -0.084  0.00  0.00    +0.139 A 
ATOM     12  F   UNL     1       6.877  -0.281  -0.083  0.00  0.00    -0.205 F 
ATOM     13  F   UNL     1      11.342   1.293  -0.122  0.00  0.00    -0.203 F 
BRANCH   8  14
ATOM     14  N   UNL     1      10.474   3.919  -0.076  0.00  0.00    -0.356 N 
ATOM     15  H   UNL     1      10.157   4.835  -0.059  0.00  0.00    +0.142 HD
ATOM     16  H   UNL     1      11.427   3.736  -0.089  0.00  0.00    +0.142 HD
ENDBRANCH   8  14
ENDBRANCH   3   6
BRANCH   1  19
ATOM     17  C   UNL     1      -0.017   1.379   0.010  0.00  0.00    +0.020 A 
ATOM     18  C   UNL     1       1.182   2.072   0.002  0.00  0.00    +0.014 A 
ATOM     19  C   UNL     1       2.371   1.339  -0.013  0.00  0.00    +0.041 A 
ATOM     20  C   UNL     1       2.306  -0.052  -0.020  0.00  0.00    +0.122 A 
ATOM     21  N   UNL     1       1.142  -0.668  -0.012  0.00  0.00    -0.263 NA
ATOM     22  C   UNL     1       0.002  -0.004   0.002  0.00  0.00    +0.111 A 
ENDBRANCH   1  19
TORSDOF 3
