REMARK  Name = ZINC57927519
REMARK  6 active torsions:
REMARK  status: ('A' for Active; 'I' for Inactive)
REMARK    1  A    between atoms: C_1  and  C_2
REMARK    2  A    between atoms: C_5  and  N_9
REMARK    3  A    between atoms: C_6  and  C_8
REMARK    4  A    between atoms: C_10  and  C_12
REMARK    5  A    between atoms: C_12  and  N_13
REMARK    6  A    between atoms: C_21  and  C_25
REMARK                            x       y       z     vdW  Elec       q    Type
REMARK                         _______ _______ _______ _____ _____    ______ ____
ROOT
ATOM      1  C   UNL     1      -0.134  -6.343  -1.187  0.00  0.00    +0.209 C 
ENDROOT
BRANCH   1   2
ATOM      2  N   UNL     1      -0.232  -6.826  -2.567  0.00  0.00    -0.259 N 
ATOM      3  C   UNL     1      -1.491  -6.973  -3.161  0.00  0.00    +0.058 A 
ATOM      4  C   UNL     1      -2.616  -6.404  -2.588  0.00  0.00    +0.025 A 
ATOM      5  C   UNL     1      -3.852  -6.566  -3.188  0.00  0.00    +0.002 A 
ATOM      6  C   UNL     1      -3.970  -7.292  -4.359  0.00  0.00    +0.002 A 
ATOM      7  C   UNL     1      -2.851  -7.862  -4.940  0.00  0.00    +0.025 A 
ATOM      8  C   UNL     1      -1.612  -7.702  -4.346  0.00  0.00    +0.049 A 
ATOM      9  N   UNL     1      -0.458  -8.257  -4.916  0.00  0.00    -0.332 N 
ATOM     10  C   UNL     1       0.822  -7.570  -4.688  0.00  0.00    +0.154 C 
ATOM     11  C   UNL     1       0.890  -7.118  -3.252  0.00  0.00    +0.240 C 
ATOM     12  O   UNL     1       1.968  -7.020  -2.705  0.00  0.00    -0.273 OA
ATOM     13  C   UNL     1       0.920  -6.352  -5.609  0.00  0.00    +0.038 C 
ATOM     14  H   UNL     1      -0.502  -9.070  -5.444  0.00  0.00    +0.147 HD
ENDBRANCH   1   2
BRANCH   1  16
ATOM     15  N   UNL     1       0.059  -4.170  -0.021  0.00  0.00    -0.284 N 
ATOM     16  C   UNL     1      -0.040  -4.839  -1.187  0.00  0.00    +0.235 C 
ATOM     17  O   UNL     1      -0.054  -4.230  -2.236  0.00  0.00    -0.274 OA
ATOM     18  H   UNL     1       0.135  -4.658   0.814  0.00  0.00    +0.155 HD
BRANCH  15  23
ATOM     19  C   UNL     1       0.025   1.503   0.005  0.00  0.00    +0.044 C 
ATOM     20  C   UNL     1       0.034  -0.004  -0.002  0.00  0.00    -0.050 A 
ATOM     21  C   UNL     1       0.632  -0.685  -1.046  0.00  0.00    +0.005 A 
ATOM     22  C   UNL     1       0.641  -2.066  -1.055  0.00  0.00    +0.024 A 
ATOM     23  C   UNL     1       0.051  -2.771  -0.014  0.00  0.00    +0.036 A 
ATOM     24  C   UNL     1      -0.548  -2.083   1.033  0.00  0.00    -0.029 A 
ATOM     25  C   UNL     1      -0.550  -0.702   1.039  0.00  0.00    +0.008 A 
ATOM     26  C   UNL     1      -1.190  -2.843   2.165  0.00  0.00    +0.045 C 
ENDBRANCH  15  23
ENDBRANCH   1  16
TORSDOF 3
