REMARK  Name = ZINC39466555
REMARK  6 active torsions:
REMARK  status: ('A' for Active; 'I' for Inactive)
REMARK    1  A    between atoms: C_1  and  O_2
REMARK    2  A    between atoms: O_2  and  C_3
REMARK    3  A    between atoms: P_12  and  C_28
REMARK    4  A    between atoms: C_20  and  C_21
REMARK    5  A    between atoms: C_26  and  O_27
REMARK    6  A    between atoms: C_28  and  C_29
REMARK                            x       y       z     vdW  Elec       q    Type
REMARK                         _______ _______ _______ _____ _____    ______ ____
ROOT
ATOM      1  C   UNL     1       0.606  -0.607  -1.056  0.00  0.00    +0.124 C 
ATOM      2  C   UNL     1       1.153   0.130  -2.027  0.00  0.00    +0.023 C 
ATOM      3  C   UNL     1       1.824  -0.568  -3.178  0.00  0.00    +0.019 C 
ATOM      4  C   UNL     1       2.838   0.338  -3.868  0.00  0.00    -0.002 C 
ATOM      5  C   UNL     1       3.518  -0.432  -5.009  0.00  0.00    -0.020 C 
ATOM      6  C   UNL     1       4.541   0.515  -5.651  0.00  0.00    +0.156 C 
ATOM      7  O   UNL     1       5.145  -0.134  -6.785  0.00  0.00    -0.319 OA
ATOM      8  P   UNL     1       5.739  -1.634  -6.572  0.00  0.00    +0.262 P 
ATOM      9  O   UNL     1       7.077  -1.570  -5.944  0.00  0.00    -0.274 OA
ATOM     10  N   UNL     1       4.669  -2.385  -5.564  0.00  0.00    -0.291 NA
ATOM     11  N   UNL     1       4.173  -1.641  -4.512  0.00  0.00    +0.397 N 
ATOM     12  C   UNL     1       3.219  -2.524  -3.818  0.00  0.00    -0.046 C 
ATOM     13  C   UNL     1       2.574  -1.797  -2.647  0.00  0.00    +0.005 C 
ATOM     14  C   UNL     1       1.607  -2.671  -1.896  0.00  0.00    -0.013 C 
ATOM     15  C   UNL     1       0.666  -2.086  -1.136  0.00  0.00    +0.023 C 
ATOM     16  H   UNL     1       4.411  -3.310  -5.705  0.00  0.00    +0.111 HD
ATOM     17  H   UNL     1       4.919  -1.386  -3.882  0.00  0.00    -0.055 HD
ENDROOT
BRANCH  15  18
ATOM     18  C   UNL     1      -0.307  -2.916  -0.386  0.00  0.00    +0.027 A 
ATOM     19  C   UNL     1       0.086  -3.581   0.773  0.00  0.00    +0.012 A 
ATOM     20  C   UNL     1      -0.824  -4.352   1.467  0.00  0.00    +0.001 A 
ATOM     21  C   UNL     1      -2.127  -4.467   1.016  0.00  0.00    +0.004 A 
ATOM     22  C   UNL     1      -2.528  -3.812  -0.133  0.00  0.00    +0.046 A 
ATOM     23  C   UNL     1      -1.626  -3.030  -0.836  0.00  0.00    +0.125 A 
BRANCH  23  24
ATOM     24  O   UNL     1      -2.021  -2.380  -1.962  0.00  0.00    -0.506 OA
ATOM     25  H   UNL     1      -1.909  -2.896  -2.773  0.00  0.00    +0.292 HD
ENDBRANCH  23  24
ENDBRANCH  15  18
BRANCH   1  27
ATOM     26  C   UNL     1      -0.017   1.425   0.010  0.00  0.00    +0.277 C 
ATOM     27  O   UNL     1       0.002  -0.004   0.002  0.00  0.00    -0.495 OA
ENDBRANCH   1  27
BRANCH   8  28
ATOM     28  C   UNL     1       5.832  -2.510  -8.168  0.00  0.00    +0.147 C 
BRANCH  28  29
ATOM     29  C   UNL     1       6.735  -1.751  -9.105  0.00  0.00    -0.037 A 
ATOM     30  C   UNL     1       6.212  -0.773  -9.930  0.00  0.00    +0.004 A 
ATOM     31  C   UNL     1       7.040  -0.077 -10.790  0.00  0.00    +0.000 A 
ATOM     32  C   UNL     1       8.393  -0.359 -10.825  0.00  0.00    +0.000 A 
ATOM     33  C   UNL     1       8.917  -1.336 -10.000  0.00  0.00    +0.000 A 
ATOM     34  C   UNL     1       8.089  -2.029  -9.137  0.00  0.00    +0.004 A 
ENDBRANCH  28  29
ENDBRANCH   8  28
TORSDOF 5
