REMARK  Name = ZINC06443937
REMARK  9 active torsions:
REMARK  status: ('A' for Active; 'I' for Inactive)
REMARK    1  A    between atoms: C_1  and  C_2
REMARK    2  A    between atoms: C_12  and  C_14
REMARK    3  A    between atoms: C_14  and  C_16
REMARK    4  A    between atoms: C_14  and  N_67
REMARK    5  A    between atoms: N_20  and  C_21
REMARK    6  A    between atoms: C_26  and  C_27
REMARK    7  A    between atoms: C_26  and  N_67
REMARK    8  A    between atoms: C_34  and  C_35
REMARK    9  A    between atoms: C_34  and  N_67
REMARK                            x       y       z     vdW  Elec       q    Type
REMARK                         _______ _______ _______ _____ _____    ______ ____
ROOT
ATOM      1  C   UNL     1       0.311  -2.468   4.493  0.00  0.00    +0.040 C 
ENDROOT
BRANCH   1  13
ATOM      2  C   UNL     1       3.017   0.558  -0.677  0.00  0.00    +0.046 C 
ATOM      3  C   UNL     1       1.737   0.823   0.073  0.00  0.00    -0.026 A 
ATOM      4  C   UNL     1       0.915   1.862  -0.305  0.00  0.00    +0.005 A 
ATOM      5  C   UNL     1      -0.270   2.113   0.374  0.00  0.00    +0.001 A 
ATOM      6  C   UNL     1      -0.637   1.339   1.439  0.00  0.00    +0.010 A 
ATOM      7  C   UNL     1       0.184   0.283   1.844  0.00  0.00    -0.001 A 
ATOM      8  C   UNL     1       1.383   0.022   1.154  0.00  0.00    +0.052 A 
ATOM      9  N   UNL     1       2.188  -1.022   1.557  0.00  0.00    -0.322 N 
ATOM     10  H   UNL     1       3.014  -1.200   1.081  0.00  0.00    +0.169 HD
ATOM     11  C   UNL     1       1.846  -1.796   2.603  0.00  0.00    +0.251 A 
ATOM     12  O   UNL     1       2.583  -2.709   2.932  0.00  0.00    -0.268 OA
ATOM     13  C   UNL     1       0.655  -1.576   3.328  0.00  0.00    +0.011 A 
ATOM     14  C   UNL     1      -0.180  -0.566   2.981  0.00  0.00    +0.017 A 
ENDBRANCH   1  13
BRANCH   1  15
ATOM     15  C   UNL     1      -0.939  -1.959   5.162  0.00  0.00    +0.143 A 
ATOM     16  N   UNL     1      -1.037  -0.914   5.947  0.00  0.00    -0.115 NA
ATOM     17  N   UNL     1      -2.267  -0.807   6.316  0.00  0.00    -0.023 NA
ATOM     18  N   UNL     1      -2.954  -1.762   5.795  0.00  0.00    -0.044 NA
ATOM     19  N   UNL     1      -2.172  -2.494   5.076  0.00  0.00    -0.227 N 
BRANCH  19  20
ATOM     20  C   UNL     1      -2.552  -3.684   4.311  0.00  0.00    +0.111 C 
ATOM     21  C   UNL     1      -3.656  -3.326   3.293  0.00  0.00    +0.027 C 
ATOM     22  C   UNL     1      -4.580  -4.570   3.284  0.00  0.00    +0.002 C 
ATOM     23  C   UNL     1      -4.592  -5.000   4.772  0.00  0.00    +0.002 C 
ATOM     24  C   UNL     1      -3.147  -4.747   5.250  0.00  0.00    +0.027 C 
ENDBRANCH  19  20
ENDBRANCH   1  15
BRANCH   1  25
ATOM     25  N   UNL     1       1.443  -2.472   5.443  0.00  0.00    +0.397 N 
ATOM     26  H   UNL     1       2.297  -2.744   4.943  0.00  0.00    -0.079 HD
BRANCH  25  27
ATOM     27  C   UNL     1       1.190  -3.445   6.527  0.00  0.00    -0.039 C 
BRANCH  27  28
ATOM     28  C   UNL     1       1.429  -4.834   5.994  0.00  0.00    -0.046 A 
ATOM     29  C   UNL     1       0.356  -5.646   5.675  0.00  0.00    +0.003 A 
ATOM     30  C   UNL     1       0.575  -6.919   5.183  0.00  0.00    +0.000 A 
ATOM     31  C   UNL     1       1.866  -7.384   5.017  0.00  0.00    +0.001 A 
ATOM     32  C   UNL     1       2.939  -6.575   5.340  0.00  0.00    +0.020 A 
ATOM     33  C   UNL     1       2.721  -5.299   5.829  0.00  0.00    +0.042 A 
ATOM     34 CL   UNL     1       4.068  -4.283   6.236  0.00  0.00    -0.083 Cl
ENDBRANCH  27  28
ENDBRANCH  25  27
BRANCH  25  35
ATOM     35  C   UNL     1       1.630  -1.120   6.011  0.00  0.00    -0.001 C 
BRANCH  35  36
ATOM     36  C   UNL     1       2.983  -1.055   6.670  0.00  0.00    +0.089 A 
ATOM     37  C   UNL     1       4.124  -0.645   6.086  0.00  0.00    +0.042 A 
ATOM     38  C   UNL     1       5.143  -0.745   7.062  0.00  0.00    +0.041 A 
ATOM     39  C   UNL     1       4.564  -1.210   8.184  0.00  0.00    +0.195 A 
ATOM     40  O   UNL     1       3.255  -1.390   7.942  0.00  0.00    -0.470 OA
ENDBRANCH  35  36
ENDBRANCH  25  35
ENDBRANCH   1  25
TORSDOF 8
