REMARK  Name = ZINC35710257
REMARK  8 active torsions:
REMARK  status: ('A' for Active; 'I' for Inactive)
REMARK    1  A    between atoms: C_4  and  C_31
REMARK    2  A    between atoms: C_5  and  C_7
REMARK    3  A    between atoms: C_7  and  N_8
REMARK    4  A    between atoms: N_8  and  C_9
REMARK    5  A    between atoms: N_8  and  C_17
REMARK    6  A    between atoms: C_9  and  C_10
REMARK    7  A    between atoms: C_17  and  C_18
REMARK    8  A    between atoms: C_20  and  C_23
REMARK                            x       y       z     vdW  Elec       q    Type
REMARK                         _______ _______ _______ _____ _____    ______ ____
ROOT
ATOM      1  N   UNL     1       1.552  -2.777   1.398  0.00  0.00    +0.391 N 
ATOM      2  H   UNL     1       2.318  -2.362   1.907  0.00  0.00    -0.080 HD
ENDROOT
BRANCH   1   3
ATOM      3  C   UNL     1       1.496  -2.205   0.046  0.00  0.00    -0.041 C 
BRANCH   3   8
ATOM      4  C   UNL     1       0.118   1.308   0.149  0.00  0.00    +0.000 A 
ATOM      5  C   UNL     1       1.272   2.053   0.306  0.00  0.00    +0.001 A 
ATOM      6  C   UNL     1       2.498   1.420   0.379  0.00  0.00    +0.012 A 
ATOM      7  C   UNL     1       2.571   0.042   0.295  0.00  0.00    +0.056 A 
ATOM      8  C   UNL     1       1.417  -0.703   0.138  0.00  0.00    -0.052 A 
ATOM      9  C   UNL     1       0.190  -0.070   0.064  0.00  0.00    +0.002 A 
BRANCH   7  10
ATOM     10  C   UNL     1       3.908  -0.649   0.373  0.00  0.00    +0.418 C 
ATOM     11  F   UNL     1       4.926   0.310   0.416  0.00  0.00    -0.166 F 
ATOM     12  F   UNL     1       3.960  -1.435   1.529  0.00  0.00    -0.166 F 
ATOM     13  F   UNL     1       4.080  -1.462  -0.753  0.00  0.00    -0.166 F 
ENDBRANCH   7  10
ENDBRANCH   3   8
ENDBRANCH   1   3
BRANCH   1  14
ATOM     14  C   UNL     1       1.754  -4.229   1.308  0.00  0.00    -0.042 C 
BRANCH  14  15
ATOM     15  C   UNL     1       3.103  -4.512   0.699  0.00  0.00    -0.064 A 
ATOM     16  C   UNL     1       3.230  -4.636  -0.672  0.00  0.00    +0.004 A 
ATOM     17  C   UNL     1       4.467  -4.895  -1.231  0.00  0.00    +0.038 A 
ATOM     18  C   UNL     1       5.580  -5.030  -0.418  0.00  0.00    +0.123 A 
ATOM     19  C   UNL     1       5.452  -4.905   0.955  0.00  0.00    +0.038 A 
ATOM     20  C   UNL     1       4.214  -4.641   1.512  0.00  0.00    +0.004 A 
ATOM     21  F   UNL     1       6.789  -5.283  -0.964  0.00  0.00    -0.205 F 
ENDBRANCH  14  15
ENDBRANCH   1  14
BRANCH   1  22
ATOM     22  C   UNL     1       0.291  -2.500   2.099  0.00  0.00    +0.020 C 
BRANCH  22  23
ATOM     23  C   UNL     1       0.388  -2.993   3.520  0.00  0.00    +0.179 A 
ATOM     24  N   UNL     1       0.733  -2.272   4.544  0.00  0.00    -0.210 NA
ATOM     25  C   UNL     1       0.706  -3.059   5.654  0.00  0.00    +0.164 A 
ATOM     26  C   UNL     1       0.324  -4.303   5.254  0.00  0.00    +0.230 A 
ATOM     27  O   UNL     1       0.126  -4.243   3.927  0.00  0.00    -0.449 OA
BRANCH  25  28
ATOM     28  C   UNL     1       1.028  -2.643   7.031  0.00  0.00    +0.268 C 
ATOM     29  O   UNL     1       1.082  -3.471   7.920  0.00  0.00    -0.268 OA
ATOM     30  N   UNL     1       1.264  -1.344   7.305  0.00  0.00    -0.296 N 
ATOM     31  C   UNL     1       1.066  -0.314   6.276  0.00  0.00    +0.108 C 
ATOM     32  C   UNL     1       0.134   0.767   6.832  0.00  0.00    +0.019 C 
ATOM     33  C   UNL     1       0.704   1.296   8.150  0.00  0.00    +0.003 C 
ATOM     34  C   UNL     1       0.784   0.157   9.168  0.00  0.00    +0.019 C 
ATOM     35  C   UNL     1       1.718  -0.931   8.640  0.00  0.00    +0.108 C 
ENDBRANCH  25  28
ENDBRANCH  22  23
ENDBRANCH   1  22
TORSDOF 8
