REMARK  Name = ZINC36145492
REMARK  17 active torsions:
REMARK  status: ('A' for Active; 'I' for Inactive)
REMARK    1  A    between atoms: C_1  and  C_2
REMARK    2  A    between atoms: C_5  and  C_8
REMARK    3  A    between atoms: C_8  and  N_9
REMARK    4  A    between atoms: N_9  and  C_10
REMARK    5  A    between atoms: N_9  and  C_14
REMARK    6  A    between atoms: C_10  and  C_11
REMARK    7  A    between atoms: C_11  and  O_12
REMARK    8  A    between atoms: O_12  and  C_13
REMARK    9  A    between atoms: C_14  and  C_15
REMARK   10  A    between atoms: C_18  and  C_20
REMARK   11  A    between atoms: C_20  and  C_21
REMARK   12  A    between atoms: C_20  and  C_29
REMARK   13  A    between atoms: C_20  and  O_37
REMARK   14  A    between atoms: C_24  and  O_27
REMARK   15  A    between atoms: O_27  and  C_28
REMARK   16  A    between atoms: C_32  and  O_35
REMARK   17  A    between atoms: O_35  and  C_36
REMARK                            x       y       z     vdW  Elec       q    Type
REMARK                         _______ _______ _______ _____ _____    ______ ____
ROOT
ATOM      1  C   UNL     1       3.383  -6.723   0.818  0.00  0.00    +0.089 A 
ATOM      2  C   UNL     1       4.404  -7.006   1.647  0.00  0.00    +0.043 A 
ATOM      3  C   UNL     1       5.542  -7.224   0.836  0.00  0.00    +0.048 A 
ATOM      4  C   UNL     1       5.148  -7.060  -0.440  0.00  0.00    +0.146 A 
ATOM      5  O   UNL     1       3.838  -6.763  -0.445  0.00  0.00    -0.463 OA
ENDROOT
BRANCH   1   6
ATOM      6  C   UNL     1       1.967  -6.419   1.235  0.00  0.00    -0.003 C 
BRANCH   6   7
ATOM      7  N   UNL     1       1.853  -4.995   1.580  0.00  0.00    +0.389 N 
ATOM      8  H   UNL     1       2.546  -4.761   2.274  0.00  0.00    -0.081 HD
BRANCH   7   9
ATOM      9  C   UNL     1       2.071  -4.182   0.376  0.00  0.00    -0.042 C 
BRANCH   9  14
ATOM     10  C   UNL     1       2.091   1.416   1.810  0.00  0.00    +0.044 C 
ATOM     11  C   UNL     1       2.086  -0.044   1.436  0.00  0.00    -0.050 A 
ATOM     12  C   UNL     1       3.266  -0.764   1.446  0.00  0.00    +0.003 A 
ATOM     13  C   UNL     1       3.261  -2.103   1.103  0.00  0.00    +0.002 A 
ATOM     14  C   UNL     1       2.076  -2.722   0.751  0.00  0.00    -0.064 A 
ATOM     15  C   UNL     1       0.896  -2.002   0.742  0.00  0.00    +0.002 A 
ATOM     16  C   UNL     1       0.901  -0.664   1.089  0.00  0.00    +0.003 A 
ENDBRANCH   9  14
ENDBRANCH   7   9
BRANCH   7  17
ATOM     17  C   UNL     1       0.512  -4.727   2.116  0.00  0.00    -0.049 C 
BRANCH  17  18
ATOM     18  C   UNL     1       0.342  -5.454   3.451  0.00  0.00    +0.141 C 
BRANCH  18  19
ATOM     19  O   UNL     1       1.276  -4.934   4.399  0.00  0.00    -0.385 OA
ATOM     20  C   UNL     1       1.200  -5.549   5.687  0.00  0.00    +0.193 C 
ENDBRANCH  18  19
ENDBRANCH  17  18
ENDBRANCH   7  17
ENDBRANCH   6   7
ENDBRANCH   1   6
BRANCH   4  21
ATOM     21  C   UNL     1       6.026  -7.194  -1.657  0.00  0.00    +0.174 C 
BRANCH  21  22
ATOM     22  C   UNL     1       5.198  -7.667  -2.824  0.00  0.00    -0.004 A 
ATOM     23  C   UNL     1       5.427  -8.916  -3.371  0.00  0.00    +0.011 A 
ATOM     24  C   UNL     1       4.670  -9.351  -4.441  0.00  0.00    +0.046 A 
ATOM     25  C   UNL     1       3.679  -8.534  -4.967  0.00  0.00    +0.120 A 
ATOM     26  C   UNL     1       3.452  -7.282  -4.416  0.00  0.00    +0.046 A 
ATOM     27  C   UNL     1       4.208  -6.853  -3.343  0.00  0.00    +0.011 A 
BRANCH  25  28
ATOM     28  O   UNL     1       2.933  -8.960  -6.020  0.00  0.00    -0.495 OA
ATOM     29  C   UNL     1       1.932  -8.066  -6.509  0.00  0.00    +0.277 C 
ENDBRANCH  25  28
ENDBRANCH  21  22
BRANCH  21  30
ATOM     30  C   UNL     1       6.638  -5.856  -1.984  0.00  0.00    -0.004 A 
ATOM     31  C   UNL     1       5.878  -4.706  -1.879  0.00  0.00    +0.011 A 
ATOM     32  C   UNL     1       6.437  -3.478  -2.179  0.00  0.00    +0.046 A 
ATOM     33  C   UNL     1       7.761  -3.401  -2.585  0.00  0.00    +0.120 A 
ATOM     34  C   UNL     1       8.521  -4.556  -2.689  0.00  0.00    +0.046 A 
ATOM     35  C   UNL     1       7.960  -5.781  -2.383  0.00  0.00    +0.011 A 
BRANCH  33  36
ATOM     36  O   UNL     1       8.313  -2.194  -2.881  0.00  0.00    -0.495 OA
ATOM     37  C   UNL     1       9.681  -2.190  -3.293  0.00  0.00    +0.277 C 
ENDBRANCH  33  36
ENDBRANCH  21  30
BRANCH  21  38
ATOM     38  O   UNL     1       7.064  -8.141  -1.394  0.00  0.00    -0.372 OA
ATOM     39  H   UNL     1       7.637  -7.901  -0.653  0.00  0.00    +0.212 HD
ENDBRANCH  21  38
ENDBRANCH   4  21
TORSDOF 13
