REMARK  Name = ZINC09119981
REMARK  11 active torsions:
REMARK  status: ('A' for Active; 'I' for Inactive)
REMARK    1  A    between atoms: C_1  and  C_2
REMARK    2  A    between atoms: C_2  and  N_3
REMARK    3  A    between atoms: C_12  and  C_14
REMARK    4  A    between atoms: C_14  and  O_16
REMARK    5  A    between atoms: O_16  and  C_17
REMARK    6  A    between atoms: C_17  and  C_18
REMARK    7  A    between atoms: N_20  and  C_21
REMARK    8  A    between atoms: C_22  and  C_30
REMARK    9  A    between atoms: C_30  and  O_32
REMARK   10  A    between atoms: O_32  and  C_33
REMARK   11  A    between atoms: C_33  and  C_34
REMARK                            x       y       z     vdW  Elec       q    Type
REMARK                         _______ _______ _______ _____ _____    ______ ____
ROOT
ATOM      1  C   UNL     1       3.405  -6.488  -0.068  0.00  0.00    +0.255 C 
ATOM      2  O   UNL     1       2.268  -6.910  -0.059  0.00  0.00    -0.272 OA
ATOM      3  N   UNL     1       4.442  -7.349  -0.083  0.00  0.00    -0.277 N 
ATOM      4  H   UNL     1       5.352  -7.012  -0.090  0.00  0.00    +0.155 HD
ENDROOT
BRANCH   3   5
ATOM      5  C   UNL     1       4.209  -8.715  -0.088  0.00  0.00    +0.086 A 
ATOM      6  C   UNL     1       5.137  -9.749  -0.109  0.00  0.00    +0.091 A 
ATOM      7  C   UNL     1       4.625 -11.109  -0.106  0.00  0.00    -0.021 A 
ATOM      8  C   UNL     1       3.279 -11.218  -0.094  0.00  0.00    -0.004 A 
ATOM      9  S   UNL     1       2.690  -9.548  -0.079  0.00  0.00    -0.077 S 
ATOM     10  C   UNL     1       2.475 -12.481  -0.095  0.00  0.00    +0.043 C 
ATOM     11  C   UNL     1       3.399 -13.643  -0.489  0.00  0.00    +0.005 C 
ATOM     12  C   UNL     1       4.686 -13.551   0.337  0.00  0.00    +0.005 C 
ATOM     13  C   UNL     1       5.512 -12.348  -0.121  0.00  0.00    +0.037 C 
BRANCH   6  14
ATOM     14  C   UNL     1       6.576  -9.478  -0.129  0.00  0.00    +0.342 C 
ATOM     15  O   UNL     1       7.189  -9.373   0.916  0.00  0.00    -0.245 OA
BRANCH  14  16
ATOM     16  O   UNL     1       7.220  -9.345  -1.306  0.00  0.00    -0.461 OA
BRANCH  16  17
ATOM     17  C   UNL     1       8.646  -9.078  -1.250  0.00  0.00    +0.229 C 
ATOM     18  C   UNL     1       9.200  -8.960  -2.672  0.00  0.00    +0.048 C 
ENDBRANCH  16  17
ENDBRANCH  14  16
ENDBRANCH   6  14
ENDBRANCH   3   5
BRANCH   1  19
ATOM     19  C   UNL     1       3.658  -5.003  -0.062  0.00  0.00    +0.328 C 
BRANCH  19  20
ATOM     20  O   UNL     1       2.390  -4.296  -0.045  0.00  0.00    -0.451 OA
BRANCH  20  21
ATOM     21  C   UNL     1       2.441  -2.949  -0.038  0.00  0.00    +0.360 C 
ATOM     22  O   UNL     1       3.515  -2.381  -0.045  0.00  0.00    -0.243 OA
BRANCH  21  32
ATOM     23  N   UNL     1      -1.098  -2.162   0.000  0.00  0.00    -0.229 N 
ATOM     24  C   UNL     1      -1.221  -0.819   0.009  0.00  0.00    +0.275 A 
ATOM     25  O   UNL     1      -2.319  -0.294   0.022  0.00  0.00    -0.266 OA
ATOM     26  C   UNL     1       0.002  -0.004   0.002  0.00  0.00    +0.050 A 
ATOM     27  C   UNL     1      -0.017   1.387   0.010  0.00  0.00    +0.014 A 
ATOM     28  C   UNL     1       1.176   2.079   0.002  0.00  0.00    +0.001 A 
ATOM     29  C   UNL     1       2.389   1.403  -0.013  0.00  0.00    +0.001 A 
ATOM     30  C   UNL     1       2.428   0.024  -0.021  0.00  0.00    +0.011 A 
ATOM     31  C   UNL     1       1.237  -0.693  -0.013  0.00  0.00    +0.021 A 
ATOM     32  C   UNL     1       1.192  -2.164  -0.021  0.00  0.00    +0.176 A 
ATOM     33  N   UNL     1       0.028  -2.769  -0.014  0.00  0.00    -0.161 NA
BRANCH  23  35
ATOM     34  C   UNL     1      -2.759  -3.243  -1.433  0.00  0.00    +0.029 C 
ATOM     35  C   UNL     1      -2.320  -2.970   0.007  0.00  0.00    +0.144 C 
ENDBRANCH  23  35
ENDBRANCH  21  32
ENDBRANCH  20  21
ENDBRANCH  19  20
ENDBRANCH   1  19
TORSDOF 9
