REMARK  Name = ZINC15170591
REMARK  6 active torsions:
REMARK  status: ('A' for Active; 'I' for Inactive)
REMARK    1  A    between atoms: C_3  and  C_6
REMARK    2  A    between atoms: C_6  and  C_8
REMARK    3  A    between atoms: C_6  and  N_29
REMARK    4  A    between atoms: C_8  and  N_9
REMARK    5  A    between atoms: C_17  and  C_19
REMARK    6  A    between atoms: C_19  and  N_20
REMARK                            x       y       z     vdW  Elec       q    Type
REMARK                         _______ _______ _______ _____ _____    ______ ____
ROOT
ATOM      1  N   UNL     1       4.549   1.315   1.311  0.00  0.00    -0.330 N 
ATOM      2  C   UNL     1       5.328   1.409   2.450  0.00  0.00    +0.131 A 
ATOM      3  C   UNL     1       6.713   1.090   2.406  0.00  0.00    +0.051 A 
ATOM      4  C   UNL     1       7.515   0.652   1.252  0.00  0.00    -0.025 A 
ATOM      5  C   UNL     1       8.819   0.421   1.471  0.00  0.00    -0.004 A 
ATOM      6  S   UNL     1       9.067   0.770   3.197  0.00  0.00    -0.073 S 
ATOM      7  C   UNL     1       7.408   1.227   3.621  0.00  0.00    +0.114 A 
ATOM      8  N   UNL     1       6.797   1.616   4.724  0.00  0.00    -0.223 NA
ATOM      9  C   UNL     1       5.508   1.892   4.707  0.00  0.00    +0.146 A 
ATOM     10  N   UNL     1       4.794   1.791   3.599  0.00  0.00    -0.216 NA
ATOM     11  C   UNL     1       9.536  -0.021   0.224  0.00  0.00    +0.043 C 
ATOM     12  C   UNL     1       8.588   0.375  -0.929  0.00  0.00    +0.010 C 
ATOM     13  C   UNL     1       7.218   0.369  -0.224  0.00  0.00    +0.037 C 
ATOM     14  H   UNL     1       5.002   0.996   0.360  0.00  0.00    +0.147 HD
ENDROOT
BRANCH   1  15
ATOM     15  C   UNL     1       3.122   1.640   1.370  0.00  0.00    +0.095 C 
BRANCH  15  16
ATOM     16  C   UNL     1       2.499   1.455  -0.015  0.00  0.00    +0.016 C 
BRANCH  16  17
ATOM     17  N   UNL     1       3.242   2.256  -0.997  0.00  0.00    +0.387 N 
ATOM     18  C   UNL     1       3.271   3.672  -0.607  0.00  0.00    -0.078 C 
ATOM     19  C   UNL     1       4.171   4.449  -1.570  0.00  0.00    -0.019 C 
ATOM     20  C   UNL     1       3.631   4.303  -2.996  0.00  0.00    -0.004 C 
ATOM     21  C   UNL     1       3.566   2.817  -3.359  0.00  0.00    -0.019 C 
ATOM     22  C   UNL     1       2.683   2.088  -2.344  0.00  0.00    -0.078 C 
ATOM     23  H   UNL     1       4.280   1.893  -1.016  0.00  0.00    -0.081 HD
ENDBRANCH  16  17
BRANCH  16  26
ATOM     24  C   UNL     1      -1.154   1.940   0.021  0.00  0.00    +0.041 A 
ATOM     25  C   UNL     1      -0.017   1.103  -0.025  0.00  0.00    +0.043 A 
ATOM     26  C   UNL     1       1.061   1.906   0.017  0.00  0.00    +0.093 A 
ATOM     27  O   UNL     1       0.639   3.179   0.092  0.00  0.00    -0.469 OA
ATOM     28  C   UNL     1      -0.704   3.205   0.099  0.00  0.00    +0.195 A 
ENDBRANCH  16  26
ENDBRANCH  15  16
ENDBRANCH   1  15
BRANCH   9  29
ATOM     29  C   UNL     1       4.833   2.334   5.979  0.00  0.00    +0.160 C 
BRANCH  29  30
ATOM     30  N   UNL     1       4.325   1.158   6.699  0.00  0.00    -0.291 NA
ATOM     31  C   UNL     1       3.245   0.505   5.946  0.00  0.00    +0.113 C 
ATOM     32  C   UNL     1       2.788  -0.746   6.700  0.00  0.00    +0.175 C 
ATOM     33  O   UNL     1       2.381  -0.378   8.021  0.00  0.00    -0.377 OA
ATOM     34  C   UNL     1       3.410   0.260   8.783  0.00  0.00    +0.175 C 
ATOM     35  C   UNL     1       3.873   1.521   8.050  0.00  0.00    +0.113 C 
ENDBRANCH  29  30
ENDBRANCH   9  29
TORSDOF 6
