REMARK  Name = ZINC33941676
REMARK  7 active torsions:
REMARK  status: ('A' for Active; 'I' for Inactive)
REMARK    1  A    between atoms: C_1  and  N_2
REMARK    2  A    between atoms: N_2  and  C_3
REMARK    3  A    between atoms: N_2  and  C_4
REMARK    4  A    between atoms: C_4  and  C_5
REMARK    5  A    between atoms: C_5  and  C_6
REMARK    6  A    between atoms: C_6  and  S_7
REMARK    7  A    between atoms: S_7  and  C_8
REMARK                            x       y       z     vdW  Elec       q    Type
REMARK                         _______ _______ _______ _____ _____    ______ ____
ROOT
ATOM      1  C   UNL     1      -5.965  -0.837  -2.651  0.00  0.00    +0.211 A 
ATOM      2  N   UNL     1      -6.843  -0.667  -3.631  0.00  0.00    -0.201 NA
ATOM      3  C   UNL     1      -8.065  -1.177  -3.505  0.00  0.00    +0.162 A 
ATOM      4  C   UNL     1      -8.377  -1.883  -2.325  0.00  0.00    +0.137 A 
ATOM      5  C   UNL     1      -9.776  -2.324  -2.465  0.00  0.00    +0.030 A 
ATOM      6  C   UNL     1     -10.641  -3.049  -1.648  0.00  0.00    +0.027 A 
ATOM      7  C   UNL     1     -11.928  -3.307  -2.071  0.00  0.00    +0.019 A 
ATOM      8  C   UNL     1     -12.362  -2.847  -3.305  0.00  0.00    +0.017 A 
ATOM      9  C   UNL     1     -11.516  -2.129  -4.123  0.00  0.00    +0.027 A 
ATOM     10  C   UNL     1     -10.215  -1.858  -3.714  0.00  0.00    +0.050 A 
ATOM     11  N   UNL     1      -9.171  -1.174  -4.317  0.00  0.00    -0.338 N 
ATOM     12  H   UNL     1      -9.216  -0.753  -5.190  0.00  0.00    +0.167 HD
ATOM     13 BR   UNL     1     -13.104  -4.292  -0.965  0.00  0.00    -0.050 Br
ATOM     14  N   UNL     1      -7.455  -2.018  -1.383  0.00  0.00    -0.143 NA
ATOM     15  N   UNL     1      -6.282  -1.511  -1.550  0.00  0.00    -0.122 NA
ENDROOT
BRANCH   1  16
ATOM     16  S   UNL     1      -4.346  -0.163  -2.815  0.00  0.00    -0.084 S 
BRANCH  16  17
ATOM     17  C   UNL     1      -3.513  -0.640  -1.275  0.00  0.00    +0.075 C 
BRANCH  17  18
ATOM     18  C   UNL     1      -2.078  -0.110  -1.286  0.00  0.00    -0.008 C 
BRANCH  18  19
ATOM     19  C   UNL     1      -1.376  -0.512   0.012  0.00  0.00    -0.079 C 
BRANCH  19  21
ATOM     20  C   UNL     1      -0.018   1.465   0.010  0.00  0.00    -0.097 C 
ATOM     21  N   UNL     1       0.002  -0.004   0.002  0.00  0.00    +0.376 N 
ATOM     22  C   UNL     1       0.713  -0.491   1.192  0.00  0.00    -0.097 C 
ATOM     23  H   UNL     1       0.474  -0.330  -0.828  0.00  0.00    -0.083 HD
ENDBRANCH  19  21
ENDBRANCH  18  19
ENDBRANCH  17  18
ENDBRANCH  16  17
ENDBRANCH   1  16
TORSDOF 5
