REMARK  Name = ZINC24215227
REMARK  10 active torsions:
REMARK  status: ('A' for Active; 'I' for Inactive)
REMARK    1  A    between atoms: C_1  and  C_2
REMARK    2  A    between atoms: C_3  and  C_14
REMARK    3  A    between atoms: C_4  and  C_13
REMARK    4  A    between atoms: N_5  and  C_7
REMARK    5  A    between atoms: N_21  and  C_22
REMARK    6  A    between atoms: C_22  and  C_23
REMARK    7  A    between atoms: N_25  and  C_26
REMARK    8  A    between atoms: C_27  and  C_38
REMARK    9  A    between atoms: N_29  and  C_32
REMARK   10  A    between atoms: C_30  and  C_31
REMARK                            x       y       z     vdW  Elec       q    Type
REMARK                         _______ _______ _______ _____ _____    ______ ____
ROOT
ATOM      1  C   UNL     1       1.743   2.403   0.858  0.00  0.00    +0.054 C 
ATOM      2  C   UNL     1       0.622   1.893   1.719  0.00  0.00    +0.204 C 
ATOM      3  O   UNL     1       0.537   0.699   1.915  0.00  0.00    -0.277 OA
ATOM      4  N   UNL     1      -0.290   2.699   2.272  0.00  0.00    -0.318 N 
ATOM      5  C   UNL     1      -0.295   4.146   2.074  0.00  0.00    +0.085 C 
ATOM      6  C   UNL     1       1.067   4.610   1.556  0.00  0.00    -0.058 C 
ATOM      7  N   UNL     1       1.449   3.770   0.409  0.00  0.00    +0.397 N 
ATOM      8  H   UNL     1      -1.060   2.227   2.901  0.00  0.00    +0.149 HD
ATOM      9  H   UNL     1       0.603   3.731  -0.293  0.00  0.00    -0.079 HD
ENDROOT
BRANCH   1  12
ATOM     10  C   UNL     1      -0.167   2.319  -1.669  0.00  0.00    +0.068 C 
ATOM     11  C   UNL     1       1.058   1.468  -1.458  0.00  0.00    +0.063 A 
ATOM     12  C   UNL     1       1.901   1.506  -0.342  0.00  0.00    -0.009 A 
ATOM     13  C   UNL     1       2.886   0.598  -0.533  0.00  0.00    +0.044 A 
ATOM     14  N   UNL     1       2.670   0.000  -1.726  0.00  0.00    -0.237 N 
ATOM     15  N   UNL     1       1.518   0.566  -2.288  0.00  0.00    -0.171 NA
ATOM     16  C   UNL     1       4.020   0.304   0.416  0.00  0.00    +0.066 C 
BRANCH  14  17
ATOM     17  C   UNL     1       3.460  -1.004  -2.302  0.00  0.00    +0.066 A 
ATOM     18  C   UNL     1       3.760  -0.963  -3.657  0.00  0.00    +0.028 A 
ATOM     19  C   UNL     1       4.543  -1.951  -4.220  0.00  0.00    +0.002 A 
ATOM     20  C   UNL     1       5.020  -2.987  -3.438  0.00  0.00    +0.000 A 
ATOM     21  C   UNL     1       4.719  -3.034  -2.089  0.00  0.00    +0.002 A 
ATOM     22  C   UNL     1       3.940  -2.046  -1.519  0.00  0.00    +0.028 A 
ENDBRANCH  14  17
ENDBRANCH   1  12
BRANCH   7  23
ATOM     23  C   UNL     1       2.594   4.347  -0.308  0.00  0.00    +0.020 C 
BRANCH  23  24
ATOM     24  C   UNL     1       2.178   5.640  -0.961  0.00  0.00    +0.201 C 
ATOM     25  O   UNL     1       1.040   6.041  -0.842  0.00  0.00    -0.278 OA
ATOM     26  N   UNL     1       3.071   6.350  -1.679  0.00  0.00    -0.284 N 
ATOM     27  H   UNL     1       4.076   5.942  -1.865  0.00  0.00    +0.155 HD
BRANCH  26  28
ATOM     28  C   UNL     1       2.719   7.613  -2.190  0.00  0.00    +0.078 A 
ATOM     29  C   UNL     1       1.529   7.929  -2.862  0.00  0.00    +0.082 A 
ATOM     30  N   UNL     1       1.560   9.198  -3.182  0.00  0.00    -0.170 NA
ATOM     31  N   UNL     1       2.773   9.736  -2.733  0.00  0.00    -0.235 N 
ATOM     32  C   UNL     1       3.472   8.740  -2.124  0.00  0.00    +0.063 A 
ATOM     33  C   UNL     1       4.834   8.866  -1.492  0.00  0.00    +0.068 C 
ATOM     34  C   UNL     1       0.404   6.972  -3.163  0.00  0.00    +0.069 C 
BRANCH  31  35
ATOM     35  C   UNL     1       3.192  11.065  -2.885  0.00  0.00    +0.066 A 
ATOM     36  C   UNL     1       2.292  12.105  -2.696  0.00  0.00    +0.028 A 
ATOM     37  C   UNL     1       2.709  13.413  -2.840  0.00  0.00    +0.002 A 
ATOM     38  C   UNL     1       4.020  13.688  -3.184  0.00  0.00    +0.000 A 
ATOM     39  C   UNL     1       4.918  12.655  -3.379  0.00  0.00    +0.002 A 
ATOM     40  C   UNL     1       4.508  11.344  -3.230  0.00  0.00    +0.028 A 
ENDBRANCH  31  35
ENDBRANCH  26  28
ENDBRANCH  23  24
ENDBRANCH   7  23
TORSDOF 6
