REMARK  Name = ZINC36029196
REMARK  10 active torsions:
REMARK  status: ('A' for Active; 'I' for Inactive)
REMARK    1  A    between atoms: C_1  and  C_2
REMARK    2  A    between atoms: C_2  and  C_3
REMARK    3  A    between atoms: C_2  and  C_4
REMARK    4  A    between atoms: C_4  and  C_5
REMARK    5  A    between atoms: N_9  and  C_28
REMARK    6  A    between atoms: N_14  and  S_17
REMARK    7  A    between atoms: S_17  and  C_20
REMARK    8  A    between atoms: C_23  and  O_26
REMARK    9  A    between atoms: O_26  and  C_27
REMARK   10  A    between atoms: C_28  and  C_29
REMARK                            x       y       z     vdW  Elec       q    Type
REMARK                         _______ _______ _______ _____ _____    ______ ____
ROOT
ATOM      1  C   UNL     1      -0.106  -0.437   2.462  0.00  0.00    +0.019 C 
ATOM      2  C   UNL     1       0.591  -0.931   3.712  0.00  0.00    +0.201 C 
ATOM      3  O   UNL     1       1.167  -1.992   3.829  0.00  0.00    -0.277 OA
ATOM      4  N   UNL     1       0.463   0.008   4.672  0.00  0.00    -0.306 N 
ATOM      5  C   UNL     1      -0.303   1.142   4.149  0.00  0.00    +0.006 C 
ATOM      6  N   UNL     1      -0.281   1.020   2.675  0.00  0.00    +0.401 N 
ATOM      7  C   UNL     1      -1.746   1.080   4.648  0.00  0.00    +0.023 C 
ATOM      8  C   UNL     1      -1.758   1.166   6.178  0.00  0.00    +0.109 C 
ATOM      9  N   UNL     1      -1.019   2.367   6.589  0.00  0.00    -0.177 NA
ATOM     10  C   UNL     1       0.353   2.557   6.099  0.00  0.00    +0.109 C 
ATOM     11  C   UNL     1       0.348   2.458   4.570  0.00  0.00    +0.023 C 
ATOM     12  H   UNL     1       0.497   1.532   2.287  0.00  0.00    -0.082 HD
ATOM     13  H   UNL     1      -1.152   1.337   2.276  0.00  0.00    -0.082 HD
ENDROOT
BRANCH   9  14
ATOM     14  S   UNL     1      -1.720   3.488   7.587  0.00  0.00    +0.061 S 
ATOM     15  O   UNL     1      -1.046   4.717   7.353  0.00  0.00    -0.153 OA
ATOM     16  O   UNL     1      -3.125   3.348   7.431  0.00  0.00    -0.153 OA
BRANCH  14  17
ATOM     17  C   UNL     1      -1.347   3.016   9.243  0.00  0.00    +0.106 A 
ATOM     18  C   UNL     1      -2.199   2.169   9.927  0.00  0.00    +0.032 A 
ATOM     19  C   UNL     1      -1.909   1.798  11.226  0.00  0.00    +0.047 A 
ATOM     20  C   UNL     1      -0.763   2.276  11.844  0.00  0.00    +0.120 A 
ATOM     21  C   UNL     1       0.090   3.126  11.155  0.00  0.00    +0.047 A 
ATOM     22  C   UNL     1      -0.201   3.490   9.855  0.00  0.00    +0.032 A 
BRANCH  20  23
ATOM     23  O   UNL     1      -0.476   1.913  13.122  0.00  0.00    -0.495 OA
ATOM     24  C   UNL     1       0.721   2.444  13.694  0.00  0.00    +0.277 C 
ENDBRANCH  20  23
ENDBRANCH  14  17
ENDBRANCH   9  14
BRANCH   1  25
ATOM     25  C   UNL     1       0.762  -0.696   1.230  0.00  0.00    -0.004 C 
BRANCH  25  27
ATOM     26  C   UNL     1       0.984  -0.283  -1.224  0.00  0.00    +0.007 C 
ATOM     27  C   UNL     1       0.055  -0.156  -0.015  0.00  0.00    -0.018 C 
ATOM     28  C   UNL     1      -1.222  -0.961  -0.265  0.00  0.00    +0.007 C 
ENDBRANCH  25  27
ENDBRANCH   1  25
BRANCH   4  29
ATOM     29  C   UNL     1       1.006  -0.092   6.029  0.00  0.00    +0.180 C 
BRANCH  29  30
ATOM     30  C   UNL     1       2.458   0.314   6.020  0.00  0.00    +0.122 A 
ATOM     31  C   UNL     1       2.937   1.530   6.337  0.00  0.00    +0.046 A 
ATOM     32  C   UNL     1       4.342   1.467   6.194  0.00  0.00    +0.041 A 
ATOM     33  C   UNL     1       4.638   0.216   5.798  0.00  0.00    +0.195 A 
ATOM     34  O   UNL     1       3.493  -0.480   5.700  0.00  0.00    -0.466 OA
ENDBRANCH  29  30
ENDBRANCH   4  29
TORSDOF 7
