REMARK  Name = ZINC40110581
REMARK  14 active torsions:
REMARK  status: ('A' for Active; 'I' for Inactive)
REMARK    1  A    between atoms: C_1  and  N_2
REMARK    2  A    between atoms: N_2  and  C_3
REMARK    3  A    between atoms: N_2  and  S_4
REMARK    4  A    between atoms: S_4  and  C_7
REMARK    5  A    between atoms: C_10  and  C_13
REMARK    6  A    between atoms: C_13  and  C_15
REMARK    7  A    between atoms: N_19  and  C_32
REMARK    8  A    between atoms: C_20  and  C_22
REMARK    9  A    between atoms: C_25  and  O_30
REMARK   10  A    between atoms: C_26  and  O_28
REMARK   11  A    between atoms: O_28  and  C_29
REMARK   12  A    between atoms: O_30  and  C_31
REMARK   13  A    between atoms: C_32  and  C_33
REMARK   14  A    between atoms: C_33  and  O_34
REMARK                            x       y       z     vdW  Elec       q    Type
REMARK                         _______ _______ _______ _____ _____    ______ ____
ROOT
ATOM      1  C   UNL     1       6.344  -3.614  -2.890  0.00  0.00    +0.076 C 
ATOM      2  C   UNL     1       7.688  -3.765  -2.834  0.00  0.00    +0.249 C 
ATOM      3  C   UNL     1       8.006  -4.992  -2.072  0.00  0.00    +0.288 C 
ATOM      4  O   UNL     1       9.128  -5.401  -1.847  0.00  0.00    -0.266 OA
ATOM      5  N   UNL     1       6.871  -5.587  -1.665  0.00  0.00    -0.281 N 
ATOM      6  C   UNL     1       5.742  -4.776  -2.135  0.00  0.00    +0.145 C 
ATOM      7  O   UNL     1       8.595  -2.927  -3.386  0.00  0.00    -0.282 OA
ENDROOT
BRANCH   6   8
ATOM      8  C   UNL     1       4.939  -4.272  -0.964  0.00  0.00    -0.019 A 
ATOM      9  C   UNL     1       5.560  -3.554   0.041  0.00  0.00    +0.009 A 
ATOM     10  C   UNL     1       4.827  -3.090   1.118  0.00  0.00    +0.050 A 
ATOM     11  C   UNL     1       3.467  -3.344   1.191  0.00  0.00    +0.162 A 
ATOM     12  C   UNL     1       2.842  -4.066   0.179  0.00  0.00    +0.162 A 
ATOM     13  C   UNL     1       3.581  -4.524  -0.899  0.00  0.00    +0.055 A 
BRANCH  12  14
ATOM     14  O   UNL     1       1.507  -4.318   0.247  0.00  0.00    -0.491 OA
ATOM     15  C   UNL     1       0.951  -5.148  -0.775  0.00  0.00    +0.277 C 
ENDBRANCH  12  14
BRANCH  11  16
ATOM     16  O   UNL     1       2.745  -2.889   2.250  0.00  0.00    -0.491 OA
ATOM     17  C   UNL     1       3.454  -2.155   3.251  0.00  0.00    +0.277 C 
ENDBRANCH  11  16
ENDBRANCH   6   8
BRANCH   1  18
ATOM     18  C   UNL     1       5.613  -2.528  -3.551  0.00  0.00    +0.195 C 
ATOM     19  O   UNL     1       5.707  -1.389  -3.134  0.00  0.00    -0.287 OA
BRANCH  18  23
ATOM     20  C   UNL     1       3.169  -3.359  -6.925  0.00  0.00    +0.105 A 
ATOM     21  C   UNL     1       3.179  -2.088  -6.378  0.00  0.00    +0.029 A 
ATOM     22  C   UNL     1       3.970  -1.811  -5.283  0.00  0.00    +0.013 A 
ATOM     23  C   UNL     1       4.762  -2.818  -4.725  0.00  0.00    +0.022 A 
ATOM     24  C   UNL     1       4.747  -4.098  -5.282  0.00  0.00    +0.013 A 
ATOM     25  C   UNL     1       3.946  -4.363  -6.374  0.00  0.00    +0.029 A 
BRANCH  20  26
ATOM     26  S   UNL     1       2.155  -3.704  -8.324  0.00  0.00    +0.060 S 
ATOM     27  O   UNL     1       2.661  -4.896  -8.909  0.00  0.00    -0.153 OA
ATOM     28  O   UNL     1       2.039  -2.488  -9.051  0.00  0.00    -0.153 OA
BRANCH  26  30
ATOM     29  C   UNL     1      -0.379  -3.013  -7.678  0.00  0.00    +0.131 C 
ATOM     30  N   UNL     1       0.641  -4.061  -7.756  0.00  0.00    -0.183 NA
ATOM     31  C   UNL     1       0.322  -5.427  -7.331  0.00  0.00    +0.131 C 
ENDBRANCH  26  30
ENDBRANCH  20  26
ENDBRANCH  18  23
ENDBRANCH   1  18
BRANCH   5  32
ATOM     32  C   UNL     1       6.778  -6.824  -0.886  0.00  0.00    +0.137 C 
BRANCH  32  33
ATOM     33  C   UNL     1       6.933  -6.502   0.602  0.00  0.00    +0.175 C 
BRANCH  33  34
ATOM     34  O   UNL     1       5.796  -5.763   1.051  0.00  0.00    -0.393 OA
ATOM     35  H   UNL     1       5.827  -5.524   1.987  0.00  0.00    +0.209 HD
ENDBRANCH  33  34
ENDBRANCH  32  33
ENDBRANCH   5  32
TORSDOF 10
