REMARK  Name = ZINC59368842
REMARK  9 active torsions:
REMARK  status: ('A' for Active; 'I' for Inactive)
REMARK    1  A    between atoms: C_1  and  N_2
REMARK    2  A    between atoms: N_2  and  C_3
REMARK    3  A    between atoms: N_2  and  S_4
REMARK    4  A    between atoms: S_4  and  C_7
REMARK    5  A    between atoms: C_11  and  C_13
REMARK    6  A    between atoms: N_15  and  S_16
REMARK    7  A    between atoms: S_16  and  C_19
REMARK    8  A    between atoms: C_19  and  C_20
REMARK    9  A    between atoms: C_23  and  N_26
REMARK                            x       y       z     vdW  Elec       q    Type
REMARK                         _______ _______ _______ _____ _____    ______ ____
ROOT
ATOM      1  C   UNL     1       4.419  -3.590  -1.441  0.00  0.00    +0.296 C 
ATOM      2  O   UNL     1       3.795  -4.522  -0.685  0.00  0.00    -0.264 OA
ATOM      3  N   UNL     1       5.660  -3.760  -1.789  0.00  0.00    -0.090 NA
ENDROOT
BRANCH   1   8
ATOM      4  C   UNL     1       1.682  -1.059  -1.905  0.00  0.00    +0.106 A 
ATOM      5  C   UNL     1       2.323  -0.107  -2.678  0.00  0.00    +0.030 A 
ATOM      6  C   UNL     1       3.643  -0.283  -3.050  0.00  0.00    +0.022 A 
ATOM      7  C   UNL     1       4.330  -1.413  -2.651  0.00  0.00    +0.053 A 
ATOM      8  C   UNL     1       3.689  -2.377  -1.871  0.00  0.00    +0.063 A 
ATOM      9  C   UNL     1       2.358  -2.190  -1.496  0.00  0.00    +0.043 A 
ATOM     10 CL   UNL     1       5.987  -1.634  -3.120  0.00  0.00    -0.083 Cl
BRANCH   4  11
ATOM     11  S   UNL     1      -0.000  -0.824  -1.437  0.00  0.00    +0.060 S 
ATOM     12  O   UNL     1      -0.531  -2.115  -1.167  0.00  0.00    -0.153 OA
ATOM     13  O   UNL     1      -0.572   0.049  -2.401  0.00  0.00    -0.153 OA
BRANCH  11  15
ATOM     14  C   UNL     1      -0.018   1.461   0.010  0.00  0.00    +0.131 C 
ATOM     15  N   UNL     1       0.002  -0.004   0.002  0.00  0.00    -0.183 NA
ATOM     16  C   UNL     1       0.024  -0.743   1.267  0.00  0.00    +0.131 C 
ENDBRANCH  11  15
ENDBRANCH   4  11
ENDBRANCH   1   8
BRANCH   3  17
ATOM     17  S   UNL     1       6.477  -5.117  -1.306  0.00  0.00    +0.077 S 
ATOM     18  O   UNL     1       6.529  -5.025   0.111  0.00  0.00    -0.151 OA
ATOM     19  O   UNL     1       5.796  -6.193  -1.937  0.00  0.00    -0.151 OA
BRANCH  17  20
ATOM     20  C   UNL     1       8.140  -4.934  -2.007  0.00  0.00    +0.228 C 
BRANCH  20  21
ATOM     21  C   UNL     1       8.979  -6.127  -1.627  0.00  0.00    -0.024 A 
ATOM     22  C   UNL     1       9.715  -6.109  -0.457  0.00  0.00    +0.007 A 
ATOM     23  C   UNL     1      10.485  -7.203  -0.108  0.00  0.00    +0.033 A 
ATOM     24  C   UNL     1      10.518  -8.315  -0.930  0.00  0.00    +0.126 A 
ATOM     25  C   UNL     1       9.781  -8.333  -2.099  0.00  0.00    +0.033 A 
ATOM     26  C   UNL     1       9.008  -7.240  -2.445  0.00  0.00    +0.007 A 
BRANCH  24  27
ATOM     27  N   UNL     1      11.344  -9.486  -0.557  0.00  0.00    +0.056 N 
ATOM     28  O   UNL     1      11.988  -9.470   0.466  0.00  0.00    -0.126 OA
ATOM     29  O   UNL     1      11.373 -10.458  -1.275  0.00  0.00    -0.126 OA
ENDBRANCH  24  27
ENDBRANCH  20  21
ENDBRANCH  17  20
ENDBRANCH   3  17
TORSDOF 7
