REMARK  Name = ZINC28403031
REMARK  1 active torsions:
REMARK  status: ('A' for Active; 'I' for Inactive)
REMARK    1  A    between atoms: C_5  and  C_6
REMARK                            x       y       z     vdW  Elec       q    Type
REMARK                         _______ _______ _______ _____ _____    ______ ____
ROOT
ATOM      1  C   UNL     1       2.144   0.761  -0.014  0.00  0.00    +0.206 A 
ATOM      2  N   UNL     1       1.301  -0.256  -0.012  0.00  0.00    -0.201 NA
ATOM      3  C   UNL     1       0.002  -0.004   0.002  0.00  0.00    +0.176 A 
ATOM      4  S   UNL     1      -0.021   1.730   0.012  0.00  0.00    +0.049 S 
ATOM      5  N   UNL     1       1.670   1.994  -0.003  0.00  0.00    -0.184 NA
ATOM      6  N   UNL     1      -1.059  -0.891   0.007  0.00  0.00    -0.336 N 
ATOM      7  H   UNL     1      -2.092  -0.513   0.019  0.00  0.00    +0.144 HD
ATOM      8  H   UNL     1      -0.870  -1.975  -0.001  0.00  0.00    +0.144 HD
ENDROOT
BRANCH   1  13
ATOM      9  C   UNL     1       4.567   1.481  -0.033  0.00  0.00    +0.054 A 
ATOM     10  C   UNL     1       5.806   0.809  -0.048  0.00  0.00    +0.057 A 
ATOM     11  C   UNL     1       5.538  -0.512  -0.052  0.00  0.00    +0.171 A 
ATOM     12  O   UNL     1       4.206  -0.681  -0.035  0.00  0.00    -0.445 OA
ATOM     13  C   UNL     1       3.602   0.523  -0.029  0.00  0.00    +0.174 A 
ATOM     14 BR   UNL     1       6.825  -1.898  -0.071  0.00  0.00    -0.008 Br
ENDBRANCH   1  13
TORSDOF 1
