REMARK  Name = ZINC38902090
REMARK  12 active torsions:
REMARK  status: ('A' for Active; 'I' for Inactive)
REMARK    1  A    between atoms: C_1  and  C_2
REMARK    2  A    between atoms: C_2  and  C_3
REMARK    3  A    between atoms: C_2  and  C_4
REMARK    4  A    between atoms: C_2  and  C_5
REMARK    5  A    between atoms: C_8  and  C_11
REMARK    6  A    between atoms: C_13  and  C_16
REMARK    7  A    between atoms: C_16  and  N_17
REMARK    8  A    between atoms: C_21  and  C_24
REMARK    9  A    between atoms: N_26  and  C_27
REMARK   10  A    between atoms: N_26  and  C_34
REMARK   11  A    between atoms: C_27  and  C_28
REMARK   12  A    between atoms: C_34  and  C_35
REMARK                            x       y       z     vdW  Elec       q    Type
REMARK                         _______ _______ _______ _____ _____    ______ ____
ROOT
ATOM      1  N   UNL     1       6.380  -3.332  -6.648  0.00  0.00    +0.386 N 
ATOM      2  C   UNL     1       6.644  -2.920  -5.264  0.00  0.00    -0.078 C 
ATOM      3  C   UNL     1       7.549  -3.951  -4.585  0.00  0.00    -0.018 C 
ATOM      4  C   UNL     1       8.871  -4.046  -5.353  0.00  0.00    +0.009 C 
ATOM      5  C   UNL     1       8.577  -4.403  -6.812  0.00  0.00    +0.059 C 
ATOM      6  C   UNL     1       7.635  -3.356  -7.409  0.00  0.00    -0.065 C 
ATOM      7  H   UNL     1       5.969  -4.254  -6.650  0.00  0.00    -0.081 HD
ENDROOT
BRANCH   5   8
ATOM      8  C   UNL     1       9.866  -4.425  -7.594  0.00  0.00    +0.217 C 
ATOM      9  O   UNL     1      10.058  -3.608  -8.469  0.00  0.00    -0.275 OA
ATOM     10  N   UNL     1      10.805  -5.352  -7.320  0.00  0.00    -0.293 N 
BRANCH  10  11
ATOM     11  C   UNL     1      12.099  -5.309  -8.005  0.00  0.00    +0.143 C 
BRANCH  11  12
ATOM     12  C   UNL     1      13.061  -4.465  -7.210  0.00  0.00    -0.030 A 
ATOM     13  C   UNL     1      13.146  -3.106  -7.445  0.00  0.00    +0.005 A 
ATOM     14  C   UNL     1      14.028  -2.331  -6.715  0.00  0.00    +0.000 A 
ATOM     15  C   UNL     1      14.825  -2.917  -5.749  0.00  0.00    +0.000 A 
ATOM     16  C   UNL     1      14.740  -4.276  -5.513  0.00  0.00    +0.000 A 
ATOM     17  C   UNL     1      13.854  -5.049  -6.240  0.00  0.00    +0.005 A 
ENDBRANCH  11  12
ENDBRANCH  10  11
BRANCH  10  18
ATOM     18  C   UNL     1      10.531  -6.403  -6.337  0.00  0.00    +0.143 C 
BRANCH  18  19
ATOM     19  C   UNL     1      10.051  -7.643  -7.047  0.00  0.00    -0.030 A 
ATOM     20  C   UNL     1       8.696  -7.884  -7.177  0.00  0.00    +0.005 A 
ATOM     21  C   UNL     1       8.255  -9.021  -7.828  0.00  0.00    +0.000 A 
ATOM     22  C   UNL     1       9.170  -9.916  -8.350  0.00  0.00    +0.000 A 
ATOM     23  C   UNL     1      10.525  -9.675  -8.221  0.00  0.00    +0.000 A 
ATOM     24  C   UNL     1      10.965  -8.536  -7.573  0.00  0.00    +0.005 A 
ENDBRANCH  18  19
ENDBRANCH  10  18
ENDBRANCH   5   8
BRANCH   1  25
ATOM     25  C   UNL     1       5.449  -2.381  -7.271  0.00  0.00    +0.022 C 
BRANCH  25  28
ATOM     26  C   UNL     1       2.513  -2.040  -5.165  0.00  0.00    +0.202 A 
ATOM     27  N   UNL     1       3.766  -1.726  -5.539  0.00  0.00    -0.193 NA
ATOM     28  C   UNL     1       4.119  -2.445  -6.565  0.00  0.00    +0.211 A 
ATOM     29  O   UNL     1       3.099  -3.251  -6.889  0.00  0.00    -0.340 OA
ATOM     30  N   UNL     1       2.061  -2.977  -5.961  0.00  0.00    -0.056 NA
BRANCH  26  34
ATOM     31  C   UNL     1       0.381  -0.295  -1.925  0.00  0.00    -0.042 A 
ATOM     32  C   UNL     1      -0.216  -1.280  -2.692  0.00  0.00    +0.005 A 
ATOM     33  C   UNL     1       0.472  -1.849  -3.744  0.00  0.00    +0.012 A 
ATOM     34  C   UNL     1       1.769  -1.431  -4.034  0.00  0.00    +0.022 A 
ATOM     35  C   UNL     1       2.365  -0.439  -3.258  0.00  0.00    +0.012 A 
ATOM     36  C   UNL     1       1.666   0.128  -2.211  0.00  0.00    +0.005 A 
BRANCH  31  38
ATOM     37  C   UNL     1      -0.524   1.827  -1.015  0.00  0.00    +0.015 C 
ATOM     38  C   UNL     1      -0.375   0.323  -0.777  0.00  0.00    -0.013 C 
ATOM     39  C   UNL     1       0.393   0.086   0.525  0.00  0.00    +0.015 C 
ATOM     40  C   UNL     1      -1.761  -0.317  -0.675  0.00  0.00    +0.015 C 
ENDBRANCH  31  38
ENDBRANCH  26  34
ENDBRANCH  25  28
ENDBRANCH   1  25
TORSDOF 9
