REMARK  Name = ZINC43093387
REMARK  10 active torsions:
REMARK  status: ('A' for Active; 'I' for Inactive)
REMARK    1  A    between atoms: C_1  and  C_2
REMARK    2  A    between atoms: C_2  and  C_3
REMARK    3  A    between atoms: C_3  and  C_5
REMARK    4  A    between atoms: C_3  and  N_23
REMARK    5  A    between atoms: C_5  and  C_7
REMARK    6  A    between atoms: C_5  and  N_14
REMARK    7  A    between atoms: N_14  and  C_15
REMARK    8  A    between atoms: N_14  and  C_18
REMARK    9  A    between atoms: C_15  and  C_16
REMARK   10  A    between atoms: C_16  and  O_17
REMARK                            x       y       z     vdW  Elec       q    Type
REMARK                         _______ _______ _______ _____ _____    ______ ____
ROOT
ATOM      1  C   UNL     1      -0.636  -2.525   0.229  0.00  0.00    -0.051 C 
ENDROOT
BRANCH   1   2
ATOM      2  C   UNL     1      -0.032  -3.778   0.808  0.00  0.00    -0.048 A 
ATOM      3  C   UNL     1       1.071  -4.355   0.208  0.00  0.00    +0.003 A 
ATOM      4  C   UNL     1       1.625  -5.504   0.740  0.00  0.00    +0.000 A 
ATOM      5  C   UNL     1       1.077  -6.076   1.873  0.00  0.00    +0.001 A 
ATOM      6  C   UNL     1      -0.026  -5.499   2.474  0.00  0.00    +0.015 A 
ATOM      7  C   UNL     1      -0.578  -4.347   1.945  0.00  0.00    +0.019 A 
ATOM      8 BR   UNL     1      -2.083  -3.553   2.771  0.00  0.00    -0.050 Br
ENDBRANCH   1   2
BRANCH   1   9
ATOM      9  N   UNL     1      -0.325  -2.449  -1.205  0.00  0.00    +0.387 N 
ATOM     10  H   UNL     1       0.667  -2.310  -1.327  0.00  0.00    -0.081 HD
BRANCH   9  11
ATOM     11  C   UNL     1      -1.054  -1.324  -1.806  0.00  0.00    -0.068 C 
ATOM     12  C   UNL     1      -0.832  -1.306  -3.333  0.00  0.00    -0.015 C 
ATOM     13  C   UNL     1      -0.747   0.200  -3.686  0.00  0.00    -0.002 C 
ATOM     14  C   UNL     1       0.030   0.790  -2.482  0.00  0.00    -0.002 C 
ATOM     15  C   UNL     1      -0.506   0.008  -1.266  0.00  0.00    -0.015 C 
ENDBRANCH   9  11
BRANCH   9  16
ATOM     16  C   UNL     1      -0.728  -3.700  -1.861  0.00  0.00    -0.049 C 
BRANCH  16  17
ATOM     17  C   UNL     1       0.141  -3.931  -3.099  0.00  0.00    +0.137 C 
BRANCH  17  18
ATOM     18  O   UNL     1       1.520  -3.885  -2.728  0.00  0.00    -0.397 OA
ATOM     19  H   UNL     1       2.130  -4.024  -3.466  0.00  0.00    +0.209 HD
ENDBRANCH  17  18
ENDBRANCH  16  17
ENDBRANCH   9  16
ENDBRANCH   1   9
BRANCH   1  20
ATOM     20  C   UNL     1      -0.057  -1.302   0.942  0.00  0.00    -0.085 C 
BRANCH  20  21
ATOM     21  N   UNL     1      -0.221  -1.457   2.393  0.00  0.00    +0.379 N 
ATOM     22  H   UNL     1       0.162  -0.651   2.863  0.00  0.00    -0.090 HD
ATOM     23  H   UNL     1      -1.202  -1.541   2.613  0.00  0.00    -0.090 HD
ATOM     24  H   UNL     1       0.265  -2.287   2.699  0.00  0.00    -0.090 HD
ENDBRANCH  20  21
BRANCH  20  26
ATOM     25  C   UNL     1       1.985   0.110   1.228  0.00  0.00    +0.002 C 
ATOM     26  C   UNL     1       1.431  -1.174   0.608  0.00  0.00    -0.021 C 
ENDBRANCH  20  26
ENDBRANCH   1  20
TORSDOF 9
