REMARK  Name = ZINC58853571
REMARK  10 active torsions:
REMARK  status: ('A' for Active; 'I' for Inactive)
REMARK    1  A    between atoms: C_1  and  C_2
REMARK    2  A    between atoms: C_4  and  C_15
REMARK    3  A    between atoms: C_5  and  C_14
REMARK    4  A    between atoms: N_6  and  C_7
REMARK    5  A    between atoms: N_16  and  N_17
REMARK    6  A    between atoms: C_18  and  C_20
REMARK    7  A    between atoms: C_20  and  N_21
REMARK    8  A    between atoms: N_21  and  C_22
REMARK    9  A    between atoms: N_21  and  S_32
REMARK   10  A    between atoms: S_32  and  C_35
REMARK                            x       y       z     vdW  Elec       q    Type
REMARK                         _______ _______ _______ _____ _____    ______ ____
ROOT
ATOM      1  N   UNL     1      -0.229  -5.793  -1.980  0.00  0.00    -0.206 N 
ATOM      2  C   UNL     1      -0.103  -6.955  -1.309  0.00  0.00    +0.251 C 
ATOM      3  O   UNL     1      -0.155  -6.963  -0.097  0.00  0.00    -0.272 OA
ATOM      4  H   UNL     1      -0.188  -5.786  -2.950  0.00  0.00    +0.177 HD
ENDROOT
BRANCH   1   6
ATOM      5  C   UNL     1      -0.542  -3.477  -1.926  0.00  0.00    +0.140 C 
ATOM      6  N   UNL     1      -0.421  -4.595  -1.279  0.00  0.00    -0.188 NA
BRANCH   5  10
ATOM      7  C   UNL     1      -1.254   1.459  -0.834  0.00  0.00    +0.064 C 
ATOM      8  C   UNL     1      -1.058  -0.031  -0.726  0.00  0.00    +0.022 A 
ATOM      9  C   UNL     1      -0.899  -0.877  -1.762  0.00  0.00    +0.032 A 
ATOM     10  C   UNL     1      -0.744  -2.217  -1.188  0.00  0.00    +0.016 A 
ATOM     11  C   UNL     1      -0.824  -2.065   0.167  0.00  0.00    +0.030 A 
ATOM     12  N   UNL     1      -1.007  -0.744   0.438  0.00  0.00    -0.316 N 
ATOM     13  C   UNL     1      -0.720  -3.169   1.187  0.00  0.00    +0.064 C 
BRANCH  12  14
ATOM     14  C   UNL     1      -1.129  -0.196   1.722  0.00  0.00    +0.065 A 
ATOM     15  C   UNL     1      -2.380  -0.088   2.316  0.00  0.00    +0.027 A 
ATOM     16  C   UNL     1      -2.497   0.452   3.582  0.00  0.00    +0.002 A 
ATOM     17  C   UNL     1      -1.371   0.887   4.257  0.00  0.00    +0.002 A 
ATOM     18  C   UNL     1      -0.125   0.783   3.669  0.00  0.00    +0.022 A 
ATOM     19  C   UNL     1       0.001   0.237   2.405  0.00  0.00    +0.065 A 
ATOM     20 CL   UNL     1       1.567   0.098   1.669  0.00  0.00    -0.081 Cl
ENDBRANCH  12  14
ENDBRANCH   5  10
ENDBRANCH   1   6
BRANCH   2  21
ATOM     21  C   UNL     1       0.103  -8.243  -2.063  0.00  0.00    +0.228 C 
BRANCH  21  22
ATOM     22  N   UNL     1       0.242  -9.349  -1.113  0.00  0.00    -0.198 N 
BRANCH  22  23
ATOM     23  C   UNL     1      -0.892  -9.985  -0.613  0.00  0.00    +0.059 A 
ATOM     24  C   UNL     1      -1.550  -9.474   0.486  0.00  0.00    +0.025 A 
ATOM     25  C   UNL     1      -2.684 -10.102   0.992  0.00  0.00    +0.002 A 
ATOM     26  C   UNL     1      -3.175 -11.235   0.418  0.00  0.00    +0.008 A 
ATOM     27  C   UNL     1      -2.534 -11.789  -0.703  0.00  0.00    -0.016 A 
ATOM     28  C   UNL     1      -1.382 -11.155  -1.232  0.00  0.00    +0.005 A 
ATOM     29  C   UNL     1      -0.747 -11.707  -2.355  0.00  0.00    +0.010 A 
ATOM     30  C   UNL     1      -1.247 -12.837  -2.925  0.00  0.00    +0.001 A 
ATOM     31  C   UNL     1      -2.384 -13.457  -2.410  0.00  0.00    +0.001 A 
ATOM     32  C   UNL     1      -3.019 -12.958  -1.315  0.00  0.00    +0.008 A 
ENDBRANCH  22  23
BRANCH  22  33
ATOM     33  S   UNL     1       1.748  -9.842  -0.631  0.00  0.00    +0.043 S 
ATOM     34  O   UNL     1       1.604 -11.229  -0.356  0.00  0.00    -0.155 OA
ATOM     35  O   UNL     1       2.622  -9.395  -1.658  0.00  0.00    -0.155 OA
ATOM     36  C   UNL     1       2.069  -8.931   0.904  0.00  0.00    +0.218 C 
ENDBRANCH  22  33
ENDBRANCH  21  22
ENDBRANCH   2  21
TORSDOF 7
