REMARK  Name = ZINC39888067
REMARK  6 active torsions:
REMARK  status: ('A' for Active; 'I' for Inactive)
REMARK    1  A    between atoms: C_6  and  C_7
REMARK    2  A    between atoms: C_7  and  C_8
REMARK    3  A    between atoms: N_14  and  N_15
REMARK    4  A    between atoms: C_16  and  C_17
REMARK    5  A    between atoms: C_20  and  C_22
REMARK    6  A    between atoms: C_24  and  C_29
REMARK                            x       y       z     vdW  Elec       q    Type
REMARK                         _______ _______ _______ _____ _____    ______ ____
ROOT
ATOM      1  N   UNL     1      -6.135   0.259  -3.231  0.00  0.00    -0.152 NA
ATOM      2  C   UNL     1      -7.085   0.961  -3.796  0.00  0.00    +0.181 C 
ENDROOT
BRANCH   1   8
ATOM      3  C   UNL     1      -1.745  -1.028  -1.429  0.00  0.00    +0.144 C 
ATOM      4  C   UNL     1      -3.036  -1.830  -1.468  0.00  0.00    +0.232 C 
ATOM      5  O   UNL     1      -3.110  -2.955  -1.021  0.00  0.00    -0.274 OA
ATOM      6  N   UNL     1      -4.074  -1.224  -2.019  0.00  0.00    -0.263 N 
ATOM      7  C   UNL     1      -3.999   0.055  -2.530  0.00  0.00    +0.183 C 
ATOM      8  N   UNL     1      -4.954   0.761  -3.099  0.00  0.00    -0.127 NA
ATOM      9  S   UNL     1      -2.300   0.530  -2.237  0.00  0.00    -0.075 S 
ATOM     10  H   UNL     1      -4.920  -1.697  -2.066  0.00  0.00    +0.157 HD
BRANCH   3  11
ATOM     11  C   UNL     1      -1.293  -0.775   0.011  0.00  0.00    +0.059 C 
BRANCH  11  17
ATOM     12  C   UNL     1      -0.017   1.378   0.010  0.00  0.00    +0.005 A 
ATOM     13  C   UNL     1       1.171   2.086   0.002  0.00  0.00    +0.020 A 
ATOM     14  C   UNL     1       2.378   1.410  -0.013  0.00  0.00    +0.041 A 
ATOM     15  C   UNL     1       2.396   0.027  -0.021  0.00  0.00    +0.020 A 
ATOM     16  C   UNL     1       1.208  -0.679  -0.013  0.00  0.00    +0.005 A 
ATOM     17  C   UNL     1       0.002  -0.004   0.002  0.00  0.00    -0.046 A 
ATOM     18 CL   UNL     1       3.870   2.298  -0.023  0.00  0.00    -0.084 Cl
ENDBRANCH  11  17
ENDBRANCH   3  11
ENDBRANCH   1   8
BRANCH   2  19
ATOM     19  C   UNL     1      -8.383   0.410  -3.942  0.00  0.00    +0.148 A 
ATOM     20  C   UNL     1      -9.469   1.035  -4.521  0.00  0.00    +0.051 A 
ATOM     21  C   UNL     1     -10.537   0.133  -4.452  0.00  0.00    +0.050 A 
ATOM     22  C   UNL     1     -10.072  -0.995  -3.842  0.00  0.00    +0.137 A 
ATOM     23  O   UNL     1      -8.771  -0.819  -3.543  0.00  0.00    -0.454 OA
BRANCH  22  24
ATOM     24  C   UNL     1     -10.863  -2.208  -3.561  0.00  0.00    +0.036 A 
ATOM     25  C   UNL     1     -10.373  -3.466  -3.924  0.00  0.00    +0.025 A 
ATOM     26  C   UNL     1     -11.118  -4.596  -3.658  0.00  0.00    +0.056 A 
ATOM     27  C   UNL     1     -12.348  -4.487  -3.032  0.00  0.00    +0.014 A 
ATOM     28  C   UNL     1     -12.840  -3.247  -2.669  0.00  0.00    +0.021 A 
ATOM     29  C   UNL     1     -12.104  -2.107  -2.924  0.00  0.00    +0.052 A 
ATOM     30 CL   UNL     1     -12.719  -0.551  -2.461  0.00  0.00    -0.083 Cl
BRANCH  26  31
ATOM     31  C   UNL     1     -10.591  -5.952  -4.050  0.00  0.00    +0.417 C 
ATOM     32  F   UNL     1      -9.839  -6.482  -2.996  0.00  0.00    -0.166 F 
ATOM     33  F   UNL     1     -11.663  -6.805  -4.334  0.00  0.00    -0.166 F 
ATOM     34  F   UNL     1      -9.781  -5.828  -5.184  0.00  0.00    -0.166 F 
ENDBRANCH  26  31
ENDBRANCH  22  24
ENDBRANCH   2  19
TORSDOF 6
