REMARK  Name = ZINC08748752
REMARK  4 active torsions:
REMARK  status: ('A' for Active; 'I' for Inactive)
REMARK    1  A    between atoms: C_4  and  N_7
REMARK    2  A    between atoms: N_11  and  C_15
REMARK    3  A    between atoms: C_15  and  N_41
REMARK    4  A    between atoms: C_19  and  C_22
REMARK                            x       y       z     vdW  Elec       q    Type
REMARK                         _______ _______ _______ _____ _____    ______ ____
ROOT
ATOM      1  N   UNL     1       2.231  -1.312  -0.042  0.00  0.00    -0.223 NA
ATOM      2  C   UNL     1       1.683  -0.141  -0.267  0.00  0.00    +0.188 A 
ATOM      3  N   UNL     1       0.407   0.293   0.025  0.00  0.00    -0.276 N 
ATOM      4  H   UNL     1      -0.231  -0.295   0.460  0.00  0.00    +0.189 HD
ATOM      5  N   UNL     1       0.060   1.582  -0.312  0.00  0.00    -0.288 N 
ATOM      6  C   UNL     1       0.970   2.379  -0.916  0.00  0.00    +0.142 A 
ATOM      7  S   UNL     1       0.802   4.001  -1.436  0.00  0.00    -0.023 S 
ATOM      8  S   UNL     1       2.393   1.307  -1.033  0.00  0.00    -0.024 S 
ENDROOT
BRANCH   1  12
ATOM      9  C   UNL     1      -0.047  -4.401   1.507  0.00  0.00    +0.000 A 
ATOM     10  C   UNL     1       0.127  -4.293   0.139  0.00  0.00    +0.002 A 
ATOM     11  C   UNL     1       0.885  -3.265  -0.384  0.00  0.00    +0.028 A 
ATOM     12  C   UNL     1       1.477  -2.334   0.471  0.00  0.00    +0.067 A 
ATOM     13  C   UNL     1       1.302  -2.452   1.851  0.00  0.00    +0.028 A 
ATOM     14  C   UNL     1       0.537  -3.481   2.360  0.00  0.00    +0.002 A 
ENDBRANCH   1  12
BRANCH   5  15
ATOM     15  C   UNL     1      -1.283   2.087  -0.015  0.00  0.00    +0.068 C 
BRANCH  15  21
ATOM     16  C   UNL     1      -2.513   0.014  -0.231  0.00  0.00    -0.076 C 
ATOM     17  C   UNL     1      -3.650  -0.674  -0.990  0.00  0.00    -0.018 C 
ATOM     18  C   UNL     1      -3.268  -0.798  -2.468  0.00  0.00    +0.008 C 
ATOM     19  C   UNL     1      -2.976   0.596  -3.030  0.00  0.00    +0.077 C 
ATOM     20  C   UNL     1      -1.859   1.247  -2.211  0.00  0.00    -0.064 C 
ATOM     21  N   UNL     1      -2.298   1.359  -0.804  0.00  0.00    +0.393 N 
ATOM     22  H   UNL     1      -3.182   1.880  -0.772  0.00  0.00    -0.079 HD
BRANCH  19  23
ATOM     23  C   UNL     1      -2.535   0.476  -4.490  0.00  0.00    +0.391 C 
ATOM     24  F   UNL     1      -3.555  -0.123  -5.237  0.00  0.00    -0.171 F 
ATOM     25  F   UNL     1      -2.268   1.750  -5.003  0.00  0.00    -0.171 F 
ATOM     26  F   UNL     1      -1.380  -0.309  -4.566  0.00  0.00    -0.171 F 
ENDBRANCH  19  23
ENDBRANCH  15  21
ENDBRANCH   5  15
TORSDOF 4
