REMARK  Name = ZINC20598725
REMARK  10 active torsions:
REMARK  status: ('A' for Active; 'I' for Inactive)
REMARK    1  A    between atoms: C_1  and  C_2
REMARK    2  A    between atoms: C_2  and  C_3
REMARK    3  A    between atoms: C_2  and  N_4
REMARK    4  A    between atoms: N_4  and  C_5
REMARK    5  A    between atoms: C_8  and  C_20
REMARK    6  A    between atoms: N_10  and  C_12
REMARK    7  A    between atoms: C_12  and  C_13
REMARK    8  A    between atoms: N_22  and  C_23
REMARK    9  A    between atoms: C_23  and  C_24
REMARK   10  A    between atoms: C_24  and  C_25
REMARK                            x       y       z     vdW  Elec       q    Type
REMARK                         _______ _______ _______ _____ _____    ______ ____
ROOT
ATOM      1  C   UNL     1      -1.767   3.641   2.172  0.00  0.00    -0.055 C 
ATOM      2  C   UNL     1      -1.627   5.082   2.728  0.00  0.00    +0.014 C 
ATOM      3  C   UNL     1      -3.087   5.577   2.785  0.00  0.00    +0.142 C 
ATOM      4  N   UNL     1      -3.863   4.759   1.835  0.00  0.00    -0.289 NA
ATOM      5  C   UNL     1      -2.946   3.803   1.179  0.00  0.00    +0.070 C 
ENDROOT
BRANCH   3   6
ATOM      6  C   UNL     1      -3.153   7.029   2.385  0.00  0.00    +0.230 C 
ATOM      7  O   UNL     1      -2.756   7.375   1.293  0.00  0.00    -0.274 OA
ATOM      8  N   UNL     1      -3.653   7.941   3.241  0.00  0.00    -0.314 N 
ATOM      9  H   UNL     1      -4.014   7.627   4.232  0.00  0.00    +0.149 HD
BRANCH   8  10
ATOM     10  C   UNL     1      -3.717   9.352   2.852  0.00  0.00    +0.109 C 
BRANCH  10  11
ATOM     11  C   UNL     1      -4.321  10.170   3.996  0.00  0.00    +0.054 C 
BRANCH  11  12
ATOM     12  C   UNL     1      -4.387  11.621   3.596  0.00  0.00    -0.042 A 
ATOM     13  C   UNL     1      -5.512  12.111   2.959  0.00  0.00    +0.007 A 
ATOM     14  C   UNL     1      -5.577  13.442   2.591  0.00  0.00    +0.050 A 
ATOM     15  C   UNL     1      -4.514  14.288   2.859  0.00  0.00    +0.166 A 
ATOM     16  C   UNL     1      -3.380  13.795   3.500  0.00  0.00    +0.166 A 
ATOM     17  C   UNL     1      -3.324  12.461   3.872  0.00  0.00    +0.053 A 
ATOM     18  O   UNL     1      -2.484  14.814   3.648  0.00  0.00    -0.453 OA
ATOM     19  C   UNL     1      -2.910  15.837   2.728  0.00  0.00    +0.466 C 
ATOM     20  O   UNL     1      -4.328  15.617   2.604  0.00  0.00    -0.453 OA
ENDBRANCH  11  12
ENDBRANCH  10  11
ENDBRANCH   8  10
ENDBRANCH   3   6
BRANCH   1  21
ATOM     21  N   UNL     1      -0.544   3.225   1.473  0.00  0.00    +0.383 N 
ATOM     22  H   UNL     1       0.323   3.670   1.984  0.00  0.00    -0.085 HD
ATOM     23  H   UNL     1      -0.587   3.593   0.437  0.00  0.00    -0.085 HD
BRANCH  21  25
ATOM     24  C   UNL     1       0.446   1.332   0.276  0.00  0.00    -0.014 C 
ATOM     25  C   UNL     1      -0.412   1.762   1.468  0.00  0.00    -0.078 C 
ATOM     26  C   UNL     1       0.254   1.306   2.767  0.00  0.00    -0.014 C 
ENDBRANCH  21  25
ENDBRANCH   1  21
BRANCH   4  27
ATOM     27  C   UNL     1      -4.539   5.605   0.842  0.00  0.00    +0.120 C 
BRANCH  27  28
ATOM     28  C   UNL     1      -5.278   4.733  -0.141  0.00  0.00    -0.033 A 
ATOM     29  C   UNL     1      -4.645   4.299  -1.291  0.00  0.00    +0.006 A 
ATOM     30  C   UNL     1      -5.320   3.495  -2.189  0.00  0.00    +0.020 A 
ATOM     31  C   UNL     1      -6.633   3.134  -1.944  0.00  0.00    +0.041 A 
ATOM     32  C   UNL     1      -7.268   3.575  -0.796  0.00  0.00    +0.020 A 
ATOM     33  C   UNL     1      -6.590   4.374   0.105  0.00  0.00    +0.006 A 
ATOM     34 CL   UNL     1      -7.484   2.130  -3.075  0.00  0.00    -0.084 Cl
ENDBRANCH  27  28
ENDBRANCH   4  27
TORSDOF 8
