REMARK  Name = ZINC01510799
REMARK  2 active torsions:
REMARK  status: ('A' for Active; 'I' for Inactive)
REMARK    1  A    between atoms: C_3  and  C_6
REMARK    2  A    between atoms: N_10  and  N_14
REMARK                            x       y       z     vdW  Elec       q    Type
REMARK                         _______ _______ _______ _____ _____    ______ ____
ROOT
ATOM      1  C   UNL     1      -1.785   6.284   2.072  0.00  0.00    +0.066 C 
ATOM      2  C   UNL     1      -1.515   5.378   1.089  0.00  0.00    +0.082 C 
ATOM      3  C   UNL     1      -1.516   3.907   1.143  0.00  0.00    +0.275 C 
ATOM      4  O   UNL     1      -1.783   3.305   2.168  0.00  0.00    -0.267 OA
ATOM      5  N   UNL     1      -1.210   3.271   0.026  0.00  0.00    -0.168 N 
ATOM      6  C   UNL     1      -0.920   3.940  -1.109  0.00  0.00    +0.138 C 
ATOM      7  S   UNL     1      -0.509   3.304  -2.644  0.00  0.00    -0.026 S 
ATOM      8  S   UNL     1      -1.070   5.651  -0.620  0.00  0.00    -0.059 S 
ENDROOT
BRANCH   5   9
ATOM      9  N   UNL     1      -1.191   1.870   0.018  0.00  0.00    -0.210 N 
ATOM     10  C   UNL     1      -0.014   1.212   0.009  0.00  0.00    +0.314 C 
ATOM     11  O   UNL     1       0.002  -0.004   0.002  0.00  0.00    -0.251 OA
ATOM     12  N   UNL     1       1.143   1.901   0.001  0.00  0.00    -0.312 N 
ATOM     13  H   UNL     1      -2.024   1.373   0.019  0.00  0.00    +0.175 HD
ATOM     14  H   UNL     1       1.990   1.428  -0.009  0.00  0.00    +0.147 HD
ATOM     15  H   UNL     1       1.130   2.871   0.007  0.00  0.00    +0.147 HD
ENDBRANCH   5   9
BRANCH   1  18
ATOM     16  C   UNL     1      -1.806   9.891   1.980  0.00  0.00    +0.042 A 
ATOM     17  C   UNL     1      -1.981   8.691   2.686  0.00  0.00    +0.049 A 
ATOM     18  C   UNL     1      -1.728   7.669   1.792  0.00  0.00    +0.129 A 
ATOM     19  O   UNL     1      -1.423   8.228   0.603  0.00  0.00    -0.463 OA
ATOM     20  C   UNL     1      -1.468   9.564   0.713  0.00  0.00    +0.195 A 
ENDBRANCH   1  18
TORSDOF 2
