REMARK  Name = ZINC39448830
REMARK  5 active torsions:
REMARK  status: ('A' for Active; 'I' for Inactive)
REMARK    1  A    between atoms: C_1  and  C_2
REMARK    2  A    between atoms: C_5  and  C_8
REMARK    3  A    between atoms: C_13  and  S_15
REMARK    4  A    between atoms: S_15  and  C_16
REMARK    5  A    between atoms: C_16  and  C_17
REMARK                            x       y       z     vdW  Elec       q    Type
REMARK                         _______ _______ _______ _____ _____    ______ ____
ROOT
ATOM      1  S   UNL     1       3.091  -4.568   2.607  0.00  0.00    -0.081 S 
ENDROOT
BRANCH   1   6
ATOM      2  C   UNL     1       0.059  -4.275  -0.021  0.00  0.00    +0.200 C 
ATOM      3  N   UNL     1       0.761  -4.754  -1.218  0.00  0.00    -0.336 N 
ATOM      4  C   UNL     1       2.042  -5.010  -1.174  0.00  0.00    +0.190 C 
ATOM      5  N   UNL     1       2.754  -4.891  -0.041  0.00  0.00    -0.195 NA
ATOM      6  C   UNL     1       2.152  -4.757   1.128  0.00  0.00    +0.159 C 
ATOM      7  N   UNL     1       0.776  -4.769   1.165  0.00  0.00    -0.300 N 
ATOM      8  N   UNL     1       2.683  -5.415  -2.328  0.00  0.00    -0.329 N 
ATOM      9  H   UNL     1       2.184  -5.506  -3.154  0.00  0.00    +0.145 HD
ATOM     10  H   UNL     1       3.634  -5.609  -2.312  0.00  0.00    +0.145 HD
ATOM     11  H   UNL     1       0.297  -5.090   1.944  0.00  0.00    +0.150 HD
ATOM     12  H   UNL     1       0.272  -4.882  -2.046  0.00  0.00    +0.164 HD
BRANCH   2  17
ATOM     13  C   UNL     1      -0.018   1.503   0.010  0.00  0.00    +0.044 C 
ATOM     14  C   UNL     1       0.002  -0.004   0.002  0.00  0.00    -0.050 A 
ATOM     15  C   UNL     1       0.006  -0.689  -1.199  0.00  0.00    +0.004 A 
ATOM     16  C   UNL     1       0.025  -2.071  -1.206  0.00  0.00    +0.007 A 
ATOM     17  C   UNL     1       0.040  -2.768  -0.013  0.00  0.00    -0.007 A 
ATOM     18  C   UNL     1       0.037  -2.084   1.188  0.00  0.00    +0.007 A 
ATOM     19  C   UNL     1       0.023  -0.702   1.195  0.00  0.00    +0.004 A 
ENDBRANCH   2  17
ENDBRANCH   1   6
BRANCH   1  20
ATOM     20  C   UNL     1       4.814  -4.616   2.043  0.00  0.00    +0.173 C 
BRANCH  20  21
ATOM     21  C   UNL     1       5.734  -4.463   3.226  0.00  0.00    +0.234 C 
ATOM     22  O   UNL     1       5.273  -4.334   4.340  0.00  0.00    -0.274 OA
ATOM     23  N   UNL     1       7.070  -4.470   3.046  0.00  0.00    -0.239 N 
ATOM     24  C   UNL     1       7.627  -4.612   1.767  0.00  0.00    +0.044 A 
ATOM     25  C   UNL     1       7.252  -3.698   0.788  0.00  0.00    +0.024 A 
ATOM     26  C   UNL     1       7.794  -3.765  -0.478  0.00  0.00    +0.002 A 
ATOM     27  C   UNL     1       8.721  -4.752  -0.762  0.00  0.00    +0.000 A 
ATOM     28  C   UNL     1       9.081  -5.664   0.202  0.00  0.00    +0.005 A 
ATOM     29  C   UNL     1       8.529  -5.626   1.485  0.00  0.00    -0.025 A 
ATOM     30  C   UNL     1       8.965  -6.751   2.395  0.00  0.00    +0.042 C 
ATOM     31  C   UNL     1       8.287  -6.723   3.753  0.00  0.00    +0.042 C 
ATOM     32  C   UNL     1       8.623  -5.464   4.511  0.00  0.00    -0.025 A 
ATOM     33  C   UNL     1       7.947  -4.329   4.130  0.00  0.00    +0.044 A 
ATOM     34  C   UNL     1       8.143  -3.127   4.788  0.00  0.00    +0.024 A 
ATOM     35  C   UNL     1       9.059  -3.080   5.826  0.00  0.00    +0.002 A 
ATOM     36  C   UNL     1       9.761  -4.214   6.193  0.00  0.00    +0.000 A 
ATOM     37  C   UNL     1       9.545  -5.430   5.532  0.00  0.00    +0.005 A 
ENDBRANCH  20  21
ENDBRANCH   1  20
TORSDOF 4
