REMARK  Name = ZINC22535843
REMARK  12 active torsions:
REMARK  status: ('A' for Active; 'I' for Inactive)
REMARK    1  A    between atoms: C_1  and  C_2
REMARK    2  A    between atoms: C_4  and  C_35
REMARK    3  A    between atoms: C_5  and  C_9
REMARK    4  A    between atoms: C_7  and  C_8
REMARK    5  A    between atoms: C_9  and  C_11
REMARK    6  A    between atoms: C_9  and  N_12
REMARK    7  A    between atoms: C_13  and  C_15
REMARK    8  A    between atoms: C_15  and  N_16
REMARK    9  A    between atoms: N_16  and  C_17
REMARK   10  A    between atoms: N_16  and  S_25
REMARK   11  A    between atoms: C_17  and  C_18
REMARK   12  A    between atoms: S_25  and  C_28
REMARK                            x       y       z     vdW  Elec       q    Type
REMARK                         _______ _______ _______ _____ _____    ______ ____
ROOT
ATOM      1  N   UNL     1       4.095  -0.250   1.957  0.00  0.00    -0.163 NA
ENDROOT
BRANCH   1   2
ATOM      2  S   UNL     1       4.767  -1.762   1.888  0.00  0.00    +0.062 S 
ATOM      3  O   UNL     1       4.555  -2.359   3.160  0.00  0.00    -0.153 OA
ATOM      4  O   UNL     1       4.307  -2.356   0.682  0.00  0.00    -0.153 OA
BRANCH   2   5
ATOM      5  C   UNL     1       6.508  -1.551   1.715  0.00  0.00    +0.106 A 
ATOM      6  C   UNL     1       7.072  -1.473   0.455  0.00  0.00    +0.030 A 
ATOM      7  C   UNL     1       8.437  -1.302   0.319  0.00  0.00    +0.022 A 
ATOM      8  C   UNL     1       9.239  -1.220   1.443  0.00  0.00    +0.041 A 
ATOM      9  C   UNL     1       8.674  -1.304   2.703  0.00  0.00    +0.022 A 
ATOM     10  C   UNL     1       7.309  -1.470   2.838  0.00  0.00    +0.030 A 
ATOM     11 CL   UNL     1      10.954  -1.012   1.272  0.00  0.00    -0.084 Cl
ENDBRANCH   2   5
ENDBRANCH   1   2
BRANCH   1  12
ATOM     12  C   UNL     1       3.793   0.475   0.720  0.00  0.00    +0.205 C 
BRANCH  12  14
ATOM     13  N   UNL     1       1.848   0.817  -0.769  0.00  0.00    -0.308 N 
ATOM     14  C   UNL     1       2.353   0.245   0.342  0.00  0.00    +0.229 C 
ATOM     15  O   UNL     1       1.648  -0.456   1.037  0.00  0.00    -0.274 OA
ATOM     16  H   UNL     1       2.488   1.452  -1.400  0.00  0.00    +0.149 HD
BRANCH  13  17
ATOM     17  C   UNL     1       0.448   0.593  -1.137  0.00  0.00    +0.100 C 
ATOM     18  C   UNL     1      -0.433   1.639  -0.451  0.00  0.00    +0.033 C 
BRANCH  17  23
ATOM     19  C   UNL     1      -0.134   1.046  -6.869  0.00  0.00    +0.044 C 
ATOM     20  C   UNL     1       0.017   0.928  -5.374  0.00  0.00    -0.047 A 
ATOM     21  C   UNL     1      -0.871   0.157  -4.648  0.00  0.00    +0.007 A 
ATOM     22  C   UNL     1      -0.731   0.048  -3.277  0.00  0.00    -0.045 A 
ATOM     23  C   UNL     1       0.296   0.711  -2.632  0.00  0.00    -0.024 A 
ATOM     24  C   UNL     1       1.181   1.487  -3.357  0.00  0.00    +0.009 A 
ATOM     25  C   UNL     1       1.044   1.591  -4.729  0.00  0.00    -0.047 A 
ATOM     26  C   UNL     1       2.013   2.432  -5.521  0.00  0.00    +0.044 C 
ATOM     27  C   UNL     1      -1.699  -0.793  -2.486  0.00  0.00    +0.044 C 
ENDBRANCH  17  23
ENDBRANCH  13  17
ENDBRANCH  12  14
ENDBRANCH   1  12
BRANCH   1  28
ATOM     28  C   UNL     1       3.802   0.363   3.255  0.00  0.00    +0.148 C 
BRANCH  28  29
ATOM     29  C   UNL     1       4.970   1.214   3.683  0.00  0.00    +0.003 A 
ATOM     30  C   UNL     1       5.903   0.712   4.571  0.00  0.00    +0.008 A 
ATOM     31  C   UNL     1       6.977   1.490   4.960  0.00  0.00    +0.000 A 
ATOM     32  C   UNL     1       7.114   2.776   4.470  0.00  0.00    +0.003 A 
ATOM     33  C   UNL     1       6.180   3.282   3.586  0.00  0.00    +0.038 A 
ATOM     34  C   UNL     1       5.106   2.502   3.192  0.00  0.00    +0.128 A 
ATOM     35  F   UNL     1       4.192   2.995   2.328  0.00  0.00    -0.205 F 
ENDBRANCH  28  29
ENDBRANCH   1  28
TORSDOF 8
