REMARK  Name = ZINC35093779
REMARK  13 active torsions:
REMARK  status: ('A' for Active; 'I' for Inactive)
REMARK    1  A    between atoms: C_1  and  C_2
REMARK    2  A    between atoms: C_2  and  C_3
REMARK    3  A    between atoms: C_6  and  N_9
REMARK    4  A    between atoms: C_19  and  C_20
REMARK    5  A    between atoms: C_20  and  C_22
REMARK    6  A    between atoms: C_20  and  N_24
REMARK    7  A    between atoms: C_22  and  C_23
REMARK    8  A    between atoms: N_24  and  C_25
REMARK    9  A    between atoms: C_25  and  C_26
REMARK   10  A    between atoms: C_26  and  N_27
REMARK   11  A    between atoms: N_27  and  C_28
REMARK   12  A    between atoms: N_27  and  C_29
REMARK   13  A    between atoms: C_30  and  C_32
REMARK                            x       y       z     vdW  Elec       q    Type
REMARK                         _______ _______ _______ _____ _____    ______ ____
ROOT
ATOM      1  N   UNL     1      -6.061  -1.028  -0.345  0.00  0.00    -0.263 N 
ATOM      2  C   UNL     1      -6.228  -1.211   0.985  0.00  0.00    +0.266 A 
ATOM      3  O   UNL     1      -6.627  -0.312   1.702  0.00  0.00    -0.267 OA
ATOM      4  C   UNL     1      -5.909  -2.538   1.531  0.00  0.00    +0.065 A 
ATOM      5  C   UNL     1      -6.048  -2.830   2.887  0.00  0.00    +0.015 A 
ATOM      6  C   UNL     1      -5.735  -4.091   3.345  0.00  0.00    +0.001 A 
ATOM      7  C   UNL     1      -5.284  -5.069   2.469  0.00  0.00    +0.002 A 
ATOM      8  C   UNL     1      -5.140  -4.802   1.126  0.00  0.00    +0.028 A 
ATOM      9  C   UNL     1      -5.451  -3.531   0.637  0.00  0.00    +0.078 A 
ATOM     10  N   UNL     1      -5.324  -3.225  -0.678  0.00  0.00    -0.231 NA
ATOM     11  C   UNL     1      -5.619  -2.045  -1.134  0.00  0.00    +0.138 A 
ENDROOT
BRANCH   1  15
ATOM     12  C   UNL     1      -6.922   2.679  -2.043  0.00  0.00    -0.047 A 
ATOM     13  C   UNL     1      -7.951   1.852  -1.633  0.00  0.00    +0.005 A 
ATOM     14  C   UNL     1      -7.669   0.623  -1.071  0.00  0.00    +0.026 A 
ATOM     15  C   UNL     1      -6.350   0.218  -0.916  0.00  0.00    +0.051 A 
ATOM     16  C   UNL     1      -5.318   1.051  -1.329  0.00  0.00    +0.026 A 
ATOM     17  C   UNL     1      -5.607   2.276  -1.896  0.00  0.00    +0.005 A 
BRANCH  12  19
ATOM     18  C   UNL     1      -7.378   3.865  -4.172  0.00  0.00    +0.009 C 
ATOM     19  C   UNL     1      -7.233   4.020  -2.657  0.00  0.00    +0.032 C 
ENDBRANCH  12  19
ENDBRANCH   1  15
BRANCH  11  20
ATOM     20  C   UNL     1      -5.457  -1.787  -2.610  0.00  0.00    +0.142 C 
BRANCH  20  21
ATOM     21  N   UNL     1      -6.769  -1.832  -3.260  0.00  0.00    -0.293 N 
ATOM     22  C   UNL     1      -7.207  -0.772  -3.967  0.00  0.00    +0.219 C 
ATOM     23  O   UNL     1      -6.477   0.179  -4.150  0.00  0.00    -0.275 OA
BRANCH  22  24
ATOM     24  C   UNL     1      -8.605  -0.767  -4.530  0.00  0.00    +0.075 C 
ATOM     25  C   UNL     1      -8.623  -1.528  -5.857  0.00  0.00    +0.013 C 
ATOM     26  C   UNL     1     -10.042  -1.523  -6.429  0.00  0.00    +0.001 C 
ATOM     27  C   UNL     1     -10.493  -0.080  -6.662  0.00  0.00    +0.000 C 
ATOM     28  C   UNL     1     -10.476   0.681  -5.335  0.00  0.00    +0.001 C 
ATOM     29  C   UNL     1      -9.056   0.676  -4.763  0.00  0.00    +0.013 C 
ENDBRANCH  22  24
BRANCH  21  30
ATOM     30  C   UNL     1      -7.605  -3.030  -3.142  0.00  0.00    +0.090 C 
BRANCH  30  31
ATOM     31  C   UNL     1      -8.614  -2.837  -2.008  0.00  0.00    -0.060 C 
BRANCH  31  32
ATOM     32  N   UNL     1      -9.494  -4.011  -1.931  0.00  0.00    +0.377 N 
ATOM     33  C   UNL     1      -8.705  -5.191  -1.554  0.00  0.00    -0.097 C 
ATOM     34  C   UNL     1     -10.537  -3.776  -0.924  0.00  0.00    -0.097 C 
ATOM     35  H   UNL     1      -9.924  -4.168  -2.830  0.00  0.00    -0.083 HD
ENDBRANCH  31  32
ENDBRANCH  30  31
ENDBRANCH  21  30
ENDBRANCH  20  21
BRANCH  20  36
ATOM     36  C   UNL     1      -4.550  -2.858  -3.218  0.00  0.00    +0.027 C 
ATOM     37  C   UNL     1      -4.317  -2.549  -4.698  0.00  0.00    +0.006 C 
ENDBRANCH  20  36
ENDBRANCH  11  20
TORSDOF 9
