REMARK  Name = ZINC20731050
REMARK  5 active torsions:
REMARK  status: ('A' for Active; 'I' for Inactive)
REMARK    1  A    between atoms: C_2  and  C_3
REMARK    2  A    between atoms: C_3  and  N_4
REMARK    3  A    between atoms: C_5  and  C_23
REMARK    4  A    between atoms: C_8  and  S_9
REMARK    5  A    between atoms: S_9  and  C_10
REMARK                            x       y       z     vdW  Elec       q    Type
REMARK                         _______ _______ _______ _____ _____    ______ ____
ROOT
ATOM      1  N   UNL     1      -1.786  -1.936  -0.892  0.00  0.00    -0.298 N 
ATOM      2  C   UNL     1      -1.796  -1.605  -2.227  0.00  0.00    +0.165 A 
ATOM      3  N   UNL     1      -1.275  -2.617  -2.880  0.00  0.00    -0.128 NA
ATOM      4  N   UNL     1      -0.943  -3.546  -2.055  0.00  0.00    -0.122 NA
ATOM      5  C   UNL     1      -1.228  -3.181  -0.826  0.00  0.00    +0.193 A 
ENDROOT
BRANCH   2   6
ATOM      6  C   UNL     1      -2.300  -0.346  -2.816  0.00  0.00    +0.019 A 
ATOM      7  C   UNL     1      -2.915  -0.356  -4.070  0.00  0.00    +0.012 A 
ATOM      8  C   UNL     1      -3.384   0.822  -4.614  0.00  0.00    +0.016 A 
ATOM      9  C   UNL     1      -3.245   2.012  -3.920  0.00  0.00    +0.018 A 
ATOM     10  C   UNL     1      -2.637   2.028  -2.676  0.00  0.00    +0.016 A 
ATOM     11  C   UNL     1      -2.170   0.856  -2.119  0.00  0.00    +0.012 A 
ATOM     12 BR   UNL     1      -3.890   3.622  -4.673  0.00  0.00    -0.050 Br
ENDBRANCH   2   6
BRANCH   1  13
ATOM     13  C   UNL     1      -2.266  -1.120   0.226  0.00  0.00    +0.152 C 
BRANCH  13  15
ATOM     14  C   UNL     1      -1.174   0.924   0.994  0.00  0.00    +0.005 C 
ATOM     15  C   UNL     1      -1.108  -0.375   0.839  0.00  0.00    -0.013 C 
ENDBRANCH  13  15
ENDBRANCH   1  13
BRANCH   5  16
ATOM     16  S   UNL     1      -0.947  -4.124   0.636  0.00  0.00    -0.073 S 
BRANCH  16  17
ATOM     17  C   UNL     1      -0.192  -5.658   0.031  0.00  0.00    +0.141 C 
ATOM     18  C   UNL     1       0.238  -6.494   1.212  0.00  0.00    +0.028 C 
ATOM     19  C   UNL     1       1.161  -7.613   0.847  0.00  0.00    +0.038 C 
ATOM     20  C   UNL     1       0.518  -8.809   0.224  0.00  0.00    -0.026 A 
ATOM     21  C   UNL     1       1.079 -10.040   0.567  0.00  0.00    +0.005 A 
ATOM     22  C   UNL     1       0.577 -11.222   0.072  0.00  0.00    +0.000 A 
ATOM     23  C   UNL     1      -0.510 -11.194  -0.782  0.00  0.00    +0.002 A 
ATOM     24  C   UNL     1      -1.068  -9.989  -1.129  0.00  0.00    +0.023 A 
ATOM     25  C   UNL     1      -0.558  -8.775  -0.636  0.00  0.00    +0.037 A 
ATOM     26  N   UNL     1      -1.201  -7.648  -1.095  0.00  0.00    -0.284 N 
ATOM     27  C   UNL     1      -1.173  -6.374  -0.826  0.00  0.00    +0.231 C 
ATOM     28  O   UNL     1      -2.042  -5.697  -1.334  0.00  0.00    -0.274 OA
ATOM     29  H   UNL     1      -1.839  -7.856  -1.795  0.00  0.00    +0.155 HD
ENDBRANCH  16  17
ENDBRANCH   5  16
TORSDOF 5
