REMARK  Name = ZINC20417976
REMARK  9 active torsions:
REMARK  status: ('A' for Active; 'I' for Inactive)
REMARK    1  A    between atoms: C_1  and  C_2
REMARK    2  A    between atoms: C_12  and  C_14
REMARK    3  A    between atoms: C_12  and  C_15
REMARK    4  A    between atoms: C_23  and  C_24
REMARK    5  A    between atoms: N_26  and  C_27
REMARK    6  A    between atoms: C_27  and  C_28
REMARK    7  A    between atoms: C_28  and  N_29
REMARK    8  A    between atoms: N_29  and  C_30
REMARK    9  A    between atoms: N_29  and  C_31
REMARK                            x       y       z     vdW  Elec       q    Type
REMARK                         _______ _______ _______ _____ _____    ______ ____
ROOT
ATOM      1  C   UNL     1       1.923  -3.196  -0.035  0.00  0.00    +0.048 C 
ATOM      2  C   UNL     1       0.932  -2.061  -0.019  0.00  0.00    +0.008 A 
ATOM      3  C   UNL     1       1.195  -0.708  -0.335  0.00  0.00    +0.038 A 
ATOM      4  C   UNL     1      -0.020  -0.021  -0.182  0.00  0.00    +0.137 A 
ATOM      5  C   UNL     1      -0.069   1.349  -0.428  0.00  0.00    +0.050 A 
ATOM      6  C   UNL     1       1.060   2.035  -0.818  0.00  0.00    +0.050 A 
ATOM      7  C   UNL     1       2.277   1.376  -0.977  0.00  0.00    +0.133 A 
ATOM      8  C   UNL     1       2.349  -0.001  -0.737  0.00  0.00    +0.070 A 
ATOM      9  C   UNL     1       3.634  -0.692  -0.913  0.00  0.00    +0.171 C 
ATOM     10  O   UNL     1       3.709  -1.903  -0.928  0.00  0.00    -0.292 OA
ATOM     11  C   UNL     1       4.861   0.187  -1.074  0.00  0.00    +0.132 C 
ATOM     12  C   UNL     1       4.457   1.369  -1.966  0.00  0.00    +0.140 C 
ATOM     13  O   UNL     1       3.375   2.072  -1.355  0.00  0.00    -0.480 OA
ATOM     14  C   UNL     1       4.018   0.849  -3.337  0.00  0.00    +0.061 C 
ATOM     15  O   UNL     1      -0.948  -0.920   0.203  0.00  0.00    -0.450 OA
ATOM     16  C   UNL     1      -0.386  -2.143   0.303  0.00  0.00    +0.193 A 
ENDROOT
BRANCH  12  17
ATOM     17  C   UNL     1       5.631   2.299  -2.133  0.00  0.00    -0.004 A 
ATOM     18  C   UNL     1       6.919   1.799  -2.090  0.00  0.00    +0.009 A 
ATOM     19  C   UNL     1       7.997   2.651  -2.249  0.00  0.00    +0.020 A 
ATOM     20  C   UNL     1       7.786   4.005  -2.440  0.00  0.00    +0.041 A 
ATOM     21  C   UNL     1       6.496   4.505  -2.477  0.00  0.00    +0.020 A 
ATOM     22  C   UNL     1       5.420   3.652  -2.324  0.00  0.00    +0.009 A 
ATOM     23 CL   UNL     1       9.139   5.075  -2.632  0.00  0.00    -0.084 Cl
ENDBRANCH  12  17
BRANCH  16  24
ATOM     24  C   UNL     1      -1.090  -3.373   0.698  0.00  0.00    +0.280 C 
ATOM     25  O   UNL     1      -0.487  -4.428   0.755  0.00  0.00    -0.267 OA
ATOM     26  N   UNL     1      -2.404  -3.331   0.995  0.00  0.00    -0.311 N 
ATOM     27  H   UNL     1      -2.950  -2.377   0.943  0.00  0.00    +0.149 HD
BRANCH  26  28
ATOM     28  C   UNL     1      -3.106  -4.556   1.388  0.00  0.00    +0.086 C 
BRANCH  28  29
ATOM     29  C   UNL     1      -4.575  -4.234   1.669  0.00  0.00    -0.061 C 
BRANCH  29  30
ATOM     30  N   UNL     1      -5.278  -5.462   2.063  0.00  0.00    +0.377 N 
ATOM     31  C   UNL     1      -6.624  -5.159   2.567  0.00  0.00    -0.097 C 
ATOM     32  C   UNL     1      -5.336  -6.417   0.948  0.00  0.00    -0.097 C 
ATOM     33  H   UNL     1      -4.709  -5.931   2.879  0.00  0.00    -0.083 HD
ENDBRANCH  29  30
ENDBRANCH  28  29
ENDBRANCH  26  28
ENDBRANCH  16  24
TORSDOF 5
