REMARK  Name = ZINC21222998
REMARK  11 active torsions:
REMARK  status: ('A' for Active; 'I' for Inactive)
REMARK    1  A    between atoms: C_1  and  N_2
REMARK    2  A    between atoms: N_2  and  C_3
REMARK    3  A    between atoms: N_2  and  C_4
REMARK    4  A    between atoms: C_7  and  C_10
REMARK    5  A    between atoms: C_15  and  C_25
REMARK    6  A    between atoms: C_28  and  O_35
REMARK    7  A    between atoms: C_29  and  O_33
REMARK    8  A    between atoms: C_30  and  O_31
REMARK    9  A    between atoms: O_31  and  C_32
REMARK   10  A    between atoms: O_33  and  C_34
REMARK   11  A    between atoms: O_35  and  C_36
REMARK                            x       y       z     vdW  Elec       q    Type
REMARK                         _______ _______ _______ _____ _____    ______ ____
ROOT
ATOM      1  C   UNL     1       2.359   4.061   0.481  0.00  0.00    +0.032 C 
ATOM      2  C   UNL     1       2.369   4.828  -0.841  0.00  0.00    +0.059 C 
ATOM      3  C   UNL     1       3.688   5.564  -1.002  0.00  0.00    +0.017 C 
ATOM      4  C   UNL     1       4.340   6.038   0.073  0.00  0.00    +0.037 C 
ATOM      5  C   UNL     1       5.650   6.788   0.056  0.00  0.00    +0.140 C 
ATOM      6  N   UNL     1       6.078   7.220  -1.257  0.00  0.00    -0.331 N 
ATOM      7  C   UNL     1       6.406   6.293  -2.247  0.00  0.00    +0.049 A 
ATOM      8  C   UNL     1       7.707   6.150  -2.700  0.00  0.00    +0.025 A 
ATOM      9  C   UNL     1       8.007   5.142  -3.600  0.00  0.00    +0.002 A 
ATOM     10  C   UNL     1       7.017   4.285  -4.045  0.00  0.00    +0.002 A 
ATOM     11  C   UNL     1       5.711   4.439  -3.610  0.00  0.00    +0.025 A 
ATOM     12  C   UNL     1       5.407   5.458  -2.724  0.00  0.00    +0.052 A 
ATOM     13  N   UNL     1       4.111   5.700  -2.285  0.00  0.00    -0.316 N 
ATOM     14  C   UNL     1       3.813   5.838   1.371  0.00  0.00    +0.163 C 
ATOM     15  O   UNL     1       4.410   6.298   2.324  0.00  0.00    -0.292 OA
ATOM     16  C   UNL     1       2.542   5.079   1.612  0.00  0.00    +0.088 C 
ATOM     17  H   UNL     1       6.149   8.293  -1.487  0.00  0.00    +0.147 HD
ATOM     18  H   UNL     1       3.407   6.024  -3.065  0.00  0.00    +0.152 HD
ENDROOT
BRANCH   1  22
ATOM     19  C   UNL     1      -1.373   2.030   0.943  0.00  0.00    +0.029 A 
ATOM     20  C   UNL     1      -0.186   1.309   0.920  0.00  0.00    +0.023 A 
ATOM     21  C   UNL     1       1.018   1.968   0.769  0.00  0.00    +0.006 A 
ATOM     22  C   UNL     1       1.043   3.345   0.646  0.00  0.00    -0.043 A 
ATOM     23  C   UNL     1      -0.136   4.067   0.674  0.00  0.00    +0.006 A 
ATOM     24  C   UNL     1      -1.344   3.414   0.825  0.00  0.00    +0.023 A 
BRANCH  19  26
ATOM     25  C   UNL     1      -2.634  -0.098   1.096  0.00  0.00    +0.129 C 
ATOM     26  N   UNL     1      -2.593   1.366   1.091  0.00  0.00    -0.336 N 
ATOM     27  C   UNL     1      -3.832   2.134   1.240  0.00  0.00    +0.129 C 
ENDBRANCH  19  26
ENDBRANCH   1  22
BRANCH   5  28
ATOM     28  C   UNL     1       6.717   5.894   0.636  0.00  0.00    +0.023 A 
ATOM     29  C   UNL     1       6.536   4.524   0.651  0.00  0.00    +0.013 A 
ATOM     30  C   UNL     1       7.510   3.700   1.181  0.00  0.00    +0.050 A 
ATOM     31  C   UNL     1       8.675   4.246   1.700  0.00  0.00    +0.165 A 
ATOM     32  C   UNL     1       8.861   5.623   1.687  0.00  0.00    +0.204 A 
ATOM     33  C   UNL     1       7.880   6.447   1.148  0.00  0.00    +0.170 A 
BRANCH  33  34
ATOM     34  O   UNL     1       8.060   7.795   1.128  0.00  0.00    -0.491 OA
ATOM     35  C   UNL     1       7.704   8.515   2.311  0.00  0.00    +0.277 C 
ENDBRANCH  33  34
BRANCH  32  36
ATOM     36  O   UNL     1      10.002   6.162   2.195  0.00  0.00    -0.488 OA
ATOM     37  C   UNL     1      11.097   6.333   1.293  0.00  0.00    +0.277 C 
ENDBRANCH  32  36
BRANCH  31  38
ATOM     38  O   UNL     1       9.633   3.434   2.223  0.00  0.00    -0.491 OA
ATOM     39  C   UNL     1       9.374   2.029   2.204  0.00  0.00    +0.277 C 
ENDBRANCH  31  38
ENDBRANCH   5  28
TORSDOF 6
