REMARK  Name = ZINC64871051
REMARK  4 active torsions:
REMARK  status: ('A' for Active; 'I' for Inactive)
REMARK    1  A    between atoms: C_5  and  C_7
REMARK    2  A    between atoms: C_7  and  N_8
REMARK    3  A    between atoms: C_14  and  C_21
REMARK    4  A    between atoms: C_24  and  C_28
REMARK                            x       y       z     vdW  Elec       q    Type
REMARK                         _______ _______ _______ _____ _____    ______ ____
ROOT
ATOM      1  N   UNL     1       1.610  -2.756   1.276  0.00  0.00    -0.256 N 
ATOM      2  C   UNL     1       2.914  -2.781   1.626  0.00  0.00    +0.265 A 
ATOM      3  O   UNL     1       3.775  -2.406   0.854  0.00  0.00    -0.267 OA
ATOM      4  C   UNL     1       3.267  -3.275   2.970  0.00  0.00    +0.063 A 
ATOM      5  C   UNL     1       4.588  -3.332   3.406  0.00  0.00    +0.016 A 
ATOM      6  C   UNL     1       4.866  -3.802   4.672  0.00  0.00    +0.008 A 
ATOM      7  C   UNL     1       3.840  -4.216   5.508  0.00  0.00    -0.000 A 
ATOM      8  C   UNL     1       2.526  -4.165   5.088  0.00  0.00    +0.034 A 
ATOM      9  C   UNL     1       2.227  -3.695   3.818  0.00  0.00    +0.056 A 
ATOM     10  N   UNL     1       0.921  -3.626   3.357  0.00  0.00    -0.307 N 
ATOM     11  H   UNL     1       0.193  -3.912   3.931  0.00  0.00    +0.170 HD
ATOM     12  C   UNL     1       0.653  -3.163   2.124  0.00  0.00    +0.330 A 
ATOM     13  O   UNL     1      -0.506  -3.115   1.760  0.00  0.00    -0.246 OA
ENDROOT
BRANCH   7  14
ATOM     14  C   UNL     1       4.163  -4.727   6.888  0.00  0.00    +0.242 C 
ATOM     15  N   UNL     1       3.563  -6.067   7.082  0.00  0.00    -0.265 NA
ATOM     16  C   UNL     1       3.111  -6.059   8.499  0.00  0.00    +0.180 C 
ATOM     17  N   UNL     1       2.643  -4.658   8.672  0.00  0.00    -0.177 NA
ATOM     18  O   UNL     1       3.594  -3.856   7.877  0.00  0.00    -0.274 OA
ATOM     19  H   UNL     1       2.786  -6.209   6.454  0.00  0.00    +0.127 HD
ATOM     20  H   UNL     1       1.700  -4.547   8.331  0.00  0.00    +0.156 HD
BRANCH  16  21
ATOM     21  C   UNL     1       1.983  -7.036   8.707  0.00  0.00    -0.010 A 
ATOM     22  C   UNL     1       1.908  -8.179   7.931  0.00  0.00    +0.010 A 
ATOM     23  C   UNL     1       0.875  -9.078   8.119  0.00  0.00    +0.050 A 
ATOM     24  C   UNL     1      -0.088  -8.836   9.085  0.00  0.00    +0.166 A 
ATOM     25  C   UNL     1      -0.013  -7.686   9.866  0.00  0.00    +0.167 A 
ATOM     26  C   UNL     1       1.028  -6.791   9.676  0.00  0.00    +0.056 A 
ATOM     27  O   UNL     1      -1.066  -7.678  10.734  0.00  0.00    -0.453 OA
ATOM     28  C   UNL     1      -2.011  -8.625  10.201  0.00  0.00    +0.466 C 
ATOM     29  O   UNL     1      -1.189  -9.549   9.464  0.00  0.00    -0.453 OA
ENDBRANCH  16  21
ENDBRANCH   7  14
BRANCH   1  30
ATOM     30  C   UNL     1       1.233  -2.269  -0.053  0.00  0.00    +0.166 C 
BRANCH  30  35
ATOM     31  C   UNL     1      -0.896   0.830   0.287  0.00  0.00    +0.000 A 
ATOM     32  C   UNL     1       0.056   1.829   0.211  0.00  0.00    +0.001 A 
ATOM     33  C   UNL     1       1.389   1.504   0.049  0.00  0.00    +0.020 A 
ATOM     34  C   UNL     1       1.771   0.176  -0.036  0.00  0.00    +0.046 A 
ATOM     35  C   UNL     1       0.818  -0.823   0.040  0.00  0.00    -0.009 A 
ATOM     36  C   UNL     1      -0.516  -0.496   0.201  0.00  0.00    +0.007 A 
ATOM     37 CL   UNL     1       3.445  -0.234  -0.240  0.00  0.00    -0.083 Cl
ENDBRANCH  30  35
ENDBRANCH   1  30
TORSDOF 4
