REMARK  Name = ZINC12382467
REMARK  9 active torsions:
REMARK  status: ('A' for Active; 'I' for Inactive)
REMARK    1  A    between atoms: C_1  and  C_2
REMARK    2  A    between atoms: C_2  and  C_3
REMARK    3  A    between atoms: C_2  and  N_50
REMARK    4  A    between atoms: C_6  and  N_9
REMARK    5  A    between atoms: C_10  and  C_12
REMARK    6  A    between atoms: C_12  and  C_13
REMARK    7  A    between atoms: C_12  and  C_14
REMARK    8  A    between atoms: C_12  and  O_15
REMARK    9  A    between atoms: O_15  and  C_16
REMARK                            x       y       z     vdW  Elec       q    Type
REMARK                         _______ _______ _______ _____ _____    ______ ____
ROOT
ATOM      1  N   UNL     1       0.069   0.654  -0.537  0.00  0.00    -0.309 N 
ATOM      2  C   UNL     1       1.106   1.488  -0.323  0.00  0.00    +0.257 C 
ATOM      3  O   UNL     1       0.943   2.688  -0.389  0.00  0.00    -0.271 OA
ATOM      4  H   UNL     1       0.200  -0.306  -0.485  0.00  0.00    +0.149 HD
ENDROOT
BRANCH   1   7
ATOM      5  C   UNL     1      -3.459   0.707  -1.920  0.00  0.00    -0.077 C 
ATOM      6  C   UNL     1      -2.057   0.158  -1.643  0.00  0.00    +0.003 C 
ATOM      7  C   UNL     1      -1.254   1.197  -0.856  0.00  0.00    +0.070 C 
ATOM      8  C   UNL     1      -1.997   1.529   0.441  0.00  0.00    +0.003 C 
ATOM      9  C   UNL     1      -3.400   2.038   0.104  0.00  0.00    -0.077 C 
ATOM     10  N   UNL     1      -4.129   0.983  -0.632  0.00  0.00    +0.381 N 
ATOM     11  H   UNL     1      -4.133   0.125  -0.068  0.00  0.00    -0.081 HD
BRANCH  10  13
ATOM     12  C   UNL     1      -6.187   1.711   0.476  0.00  0.00    -0.014 C 
ATOM     13  C   UNL     1      -5.524   1.406  -0.869  0.00  0.00    -0.075 C 
ATOM     14  C   UNL     1      -5.565   2.655  -1.753  0.00  0.00    -0.014 C 
ENDBRANCH  10  13
ENDBRANCH   1   7
BRANCH   2  15
ATOM     15  C   UNL     1       2.468   0.929  -0.002  0.00  0.00    +0.180 C 
ATOM     16  C   UNL     1       2.389   0.100   1.282  0.00  0.00    +0.065 C 
ATOM     17  C   UNL     1       2.940   0.041  -1.155  0.00  0.00    +0.065 C 
BRANCH  15  18
ATOM     18  O   UNL     1       3.392   2.004   0.181  0.00  0.00    -0.477 OA
BRANCH  18  19
ATOM     19  C   UNL     1       3.126   2.883   1.182  0.00  0.00    +0.122 A 
ATOM     20  C   UNL     1       1.941   2.784   1.897  0.00  0.00    +0.047 A 
ATOM     21  C   UNL     1       1.674   3.675   2.918  0.00  0.00    +0.019 A 
ATOM     22  C   UNL     1       2.582   4.674   3.220  0.00  0.00    +0.018 A 
ATOM     23  C   UNL     1       3.762   4.779   2.505  0.00  0.00    +0.019 A 
ATOM     24  C   UNL     1       4.035   3.886   1.487  0.00  0.00    +0.047 A 
ATOM     25 BR   UNL     1       2.212   5.897   4.614  0.00  0.00    -0.050 Br
ENDBRANCH  18  19
ENDBRANCH  15  18
ENDBRANCH   2  15
TORSDOF 5
