REMARK  Name = ZINC16663386
REMARK  9 active torsions:
REMARK  status: ('A' for Active; 'I' for Inactive)
REMARK    1  A    between atoms: C_1  and  C_2
REMARK    2  A    between atoms: C_5  and  S_8
REMARK    3  A    between atoms: S_8  and  N_11
REMARK    4  A    between atoms: N_11  and  C_12
REMARK    5  A    between atoms: C_14  and  N_32
REMARK    6  A    between atoms: C_17  and  C_18
REMARK    7  A    between atoms: N_20  and  C_21
REMARK    8  A    between atoms: C_23  and  N_29
REMARK    9  A    between atoms: C_26  and  C_27
REMARK                            x       y       z     vdW  Elec       q    Type
REMARK                         _______ _______ _______ _____ _____    ______ ____
ROOT
ATOM      1  C   UNL     1      -2.427   1.383  -0.069  0.00  0.00    +0.062 A 
ATOM      2  C   UNL     1      -3.488   2.279  -0.116  0.00  0.00    +0.058 A 
ATOM      3  C   UNL     1      -3.244   3.636  -0.179  0.00  0.00    +0.128 A 
ATOM      4  C   UNL     1      -1.944   4.116  -0.196  0.00  0.00    +0.033 A 
ATOM      5  C   UNL     1      -0.879   3.243  -0.145  0.00  0.00    +0.017 A 
ATOM      6  C   UNL     1      -1.109   1.866  -0.086  0.00  0.00    +0.059 A 
ENDROOT
BRANCH   6   7
ATOM      7  C   UNL     1       0.026   0.926  -0.036  0.00  0.00    +0.250 C 
ATOM      8  O   UNL     1      -0.178  -0.271   0.020  0.00  0.00    -0.270 OA
ATOM      9  N   UNL     1       1.290   1.394  -0.059  0.00  0.00    -0.281 N 
ATOM     10  H   UNL     1       1.454   2.341  -0.188  0.00  0.00    +0.155 HD
BRANCH   9  11
ATOM     11  C   UNL     1       2.359   0.518   0.104  0.00  0.00    +0.050 A 
ATOM     12  C   UNL     1       2.188  -0.670   0.801  0.00  0.00    +0.056 A 
ATOM     13  C   UNL     1       3.249  -1.538   0.960  0.00  0.00    +0.128 A 
ATOM     14  C   UNL     1       4.491  -1.232   0.427  0.00  0.00    +0.033 A 
ATOM     15  C   UNL     1       4.680  -0.057  -0.268  0.00  0.00    +0.019 A 
ATOM     16  C   UNL     1       3.614   0.829  -0.442  0.00  0.00    +0.084 A 
BRANCH  16  17
ATOM     17  C   UNL     1       3.808   2.084  -1.189  0.00  0.00    +0.388 C 
ATOM     18  O   UNL     1       2.904   2.893  -1.262  0.00  0.00    -0.241 OA
ATOM     19  O   UNL     1       4.986   2.334  -1.792  0.00  0.00    -0.241 OA
ENDBRANCH  16  17
BRANCH  13  20
ATOM     20  N   UNL     1       3.060  -2.803   1.705  0.00  0.00    +0.056 N 
ATOM     21  O   UNL     1       1.970  -3.076   2.175  0.00  0.00    -0.126 OA
ATOM     22  O   UNL     1       3.994  -3.571   1.848  0.00  0.00    -0.126 OA
ENDBRANCH  13  20
ENDBRANCH   9  11
ENDBRANCH   6   7
BRANCH   3  23
ATOM     23  N   UNL     1      -4.379   4.585  -0.229  0.00  0.00    +0.056 N 
ATOM     24  O   UNL     1      -5.523   4.168  -0.214  0.00  0.00    -0.126 OA
ATOM     25  O   UNL     1      -4.169   5.783  -0.284  0.00  0.00    -0.126 OA
ENDBRANCH   3  23
BRANCH   1  26
ATOM     26  N   UNL     1      -2.669   0.017  -0.006  0.00  0.00    -0.215 N 
ATOM     27  H   UNL     1      -2.084  -0.556   0.514  0.00  0.00    +0.174 HD
BRANCH  26  28
ATOM     28  S   UNL     1      -3.957  -0.634  -0.819  0.00  0.00    +0.072 S 
ATOM     29  O   UNL     1      -3.851  -2.044  -0.684  0.00  0.00    -0.150 OA
ATOM     30  O   UNL     1      -5.107   0.087  -0.401  0.00  0.00    -0.150 OA
BRANCH  28  35
ATOM     31  C   UNL     1      -3.180   0.602  -6.674  0.00  0.00    +0.044 C 
ATOM     32  C   UNL     1      -3.375   0.293  -5.212  0.00  0.00    -0.050 A 
ATOM     33  C   UNL     1      -2.859  -0.872  -4.677  0.00  0.00    +0.005 A 
ATOM     34  C   UNL     1      -3.037  -1.156  -3.336  0.00  0.00    +0.029 A 
ATOM     35  C   UNL     1      -3.730  -0.273  -2.529  0.00  0.00    +0.109 A 
ATOM     36  C   UNL     1      -4.250   0.891  -3.064  0.00  0.00    +0.029 A 
ATOM     37  C   UNL     1      -4.068   1.176  -4.405  0.00  0.00    +0.005 A 
ENDBRANCH  28  35
ENDBRANCH  26  28
ENDBRANCH   1  26
TORSDOF 8
