REMARK  Name = ZINC09048659
REMARK  10 active torsions:
REMARK  status: ('A' for Active; 'I' for Inactive)
REMARK    1  A    between atoms: C_1  and  C_2
REMARK    2  A    between atoms: C_3  and  C_28
REMARK    3  A    between atoms: C_9  and  O_13
REMARK    4  A    between atoms: O_13  and  C_14
REMARK    5  A    between atoms: C_14  and  C_15
REMARK    6  A    between atoms: N_17  and  C_18
REMARK    7  A    between atoms: C_18  and  C_20
REMARK    8  A    between atoms: C_18  and  C_21
REMARK    9  A    between atoms: C_21  and  C_22
REMARK   10  A    between atoms: C_22  and  C_23
REMARK                            x       y       z     vdW  Elec       q    Type
REMARK                         _______ _______ _______ _____ _____    ______ ____
ROOT
ATOM      1  C   UNL     1       0.404  15.596  -4.143  0.00  0.00    +0.087 C 
ATOM      2  C   UNL     1      -0.252  14.357  -3.590  0.00  0.00    +0.114 A 
ATOM      3  C   UNL     1      -1.600  14.230  -3.693  0.00  0.00    +0.067 A 
ATOM      4  C   UNL     1      -2.240  13.019  -3.151  0.00  0.00    +0.200 A 
ATOM      5  O   UNL     1      -3.445  12.850  -3.215  0.00  0.00    -0.286 OA
ATOM      6  C   UNL     1      -1.352  12.021  -2.528  0.00  0.00    +0.065 A 
ATOM      7  C   UNL     1      -1.859  10.840  -1.984  0.00  0.00    +0.019 A 
ATOM      8  C   UNL     1      -1.008   9.934  -1.419  0.00  0.00    +0.046 A 
ATOM      9  C   UNL     1       0.362  10.189  -1.373  0.00  0.00    +0.125 A 
ATOM     10  C   UNL     1       0.879  11.356  -1.908  0.00  0.00    +0.092 A 
ATOM     11  C   UNL     1       0.028  12.286  -2.491  0.00  0.00    +0.142 A 
ATOM     12  O   UNL     1       0.516  13.427  -3.016  0.00  0.00    -0.459 OA
ENDROOT
BRANCH   3  13
ATOM     13  C   UNL     1      -2.412  15.290  -4.339  0.00  0.00    -0.011 A 
ATOM     14  C   UNL     1      -2.247  15.569  -5.694  0.00  0.00    +0.009 A 
ATOM     15  C   UNL     1      -3.010  16.552  -6.291  0.00  0.00    +0.001 A 
ATOM     16  C   UNL     1      -3.928  17.268  -5.544  0.00  0.00    +0.000 A 
ATOM     17  C   UNL     1      -4.091  16.999  -4.197  0.00  0.00    +0.001 A 
ATOM     18  C   UNL     1      -3.338  16.014  -3.591  0.00  0.00    +0.009 A 
ENDBRANCH   3  13
BRANCH   9  19
ATOM     19  O   UNL     1       1.196   9.282  -0.804  0.00  0.00    -0.483 OA
BRANCH  19  20
ATOM     20  C   UNL     1       0.600   8.098  -0.271  0.00  0.00    +0.324 C 
BRANCH  20  21
ATOM     21  C   UNL     1       1.672   7.216   0.315  0.00  0.00    +0.251 C 
ATOM     22  O   UNL     1       2.833   7.567   0.280  0.00  0.00    -0.272 OA
ATOM     23  N   UNL     1       1.342   6.037   0.879  0.00  0.00    -0.310 N 
ATOM     24  H   UNL     1       0.414   5.756   0.908  0.00  0.00    +0.149 HD
BRANCH  23  25
ATOM     25  C   UNL     1       2.385   5.180   1.449  0.00  0.00    +0.070 C 
ATOM     26  C   UNL     1       2.677   5.618   2.885  0.00  0.00    +0.028 C 
BRANCH  25  27
ATOM     27  C   UNL     1       1.907   3.726   1.446  0.00  0.00    +0.029 C 
BRANCH  27  28
ATOM     28  C   UNL     1       1.735   3.249   0.003  0.00  0.00    +0.076 C 
BRANCH  28  29
ATOM     29  C   UNL     1       1.265   1.817  -0.000  0.00  0.00    +0.105 A 
ATOM     30  C   UNL     1      -0.017   1.410   0.010  0.00  0.00    +0.044 A 
ATOM     31  C   UNL     1       0.002  -0.004   0.002  0.00  0.00    +0.041 A 
ATOM     32  C   UNL     1       1.295  -0.376  -0.012  0.00  0.00    +0.195 A 
ATOM     33  O   UNL     1       2.055   0.731  -0.014  0.00  0.00    -0.468 OA
ENDBRANCH  28  29
ENDBRANCH  27  28
ENDBRANCH  25  27
ENDBRANCH  23  25
ENDBRANCH  20  21
ENDBRANCH  19  20
ENDBRANCH   9  19
TORSDOF 8
