REMARK  Name = ZINC39560804
REMARK  6 active torsions:
REMARK  status: ('A' for Active; 'I' for Inactive)
REMARK    1  A    between atoms: C_1  and  O_2
REMARK    2  A    between atoms: O_2  and  C_3
REMARK    3  A    between atoms: C_3  and  C_5
REMARK    4  A    between atoms: C_20  and  C_30
REMARK    5  A    between atoms: C_23  and  N_26
REMARK    6  A    between atoms: N_26  and  C_27
REMARK                            x       y       z     vdW  Elec       q    Type
REMARK                         _______ _______ _______ _____ _____    ______ ____
ROOT
ATOM      1  C   UNL     1       0.679  -2.115   1.088  0.00  0.00    +0.172 C 
ATOM      2  C   UNL     1      -0.742  -2.677   1.245  0.00  0.00    +0.067 C 
ATOM      3  C   UNL     1      -1.218  -2.350   2.639  0.00  0.00    -0.017 C 
ATOM      4  C   UNL     1      -2.456  -2.375   3.154  0.00  0.00    -0.013 C 
ATOM      5  C   UNL     1      -3.775  -2.735   2.530  0.00  0.00    +0.064 C 
ATOM      6  C   UNL     1      -4.872  -2.599   3.547  0.00  0.00    -0.022 C 
ATOM      7  C   UNL     1      -4.697  -2.216   4.808  0.00  0.00    -0.002 C 
ATOM      8  C   UNL     1      -3.440  -1.885   5.356  0.00  0.00    +0.028 C 
ATOM      9  C   UNL     1      -2.329  -1.970   4.518  0.00  0.00    +0.068 C 
ATOM     10  N   UNL     1      -1.034  -1.723   4.758  0.00  0.00    -0.250 NA
ATOM     11  C   UNL     1      -0.342  -1.939   3.669  0.00  0.00    +0.063 C 
ATOM     12  C   UNL     1       1.145  -1.802   3.458  0.00  0.00    +0.106 C 
ATOM     13  N   UNL     1       1.503  -2.525   2.229  0.00  0.00    -0.274 NA
ATOM     14  C   UNL     1       2.936  -2.386   1.941  0.00  0.00    +0.087 C 
ATOM     15  C   UNL     1       3.745  -3.012   3.080  0.00  0.00    +0.008 C 
ATOM     16  C   UNL     1       3.396  -2.313   4.397  0.00  0.00    -0.068 C 
ATOM     17  C   UNL     1       1.893  -2.404   4.650  0.00  0.00    +0.009 C 
ENDROOT
BRANCH  14  18
ATOM     18  C   UNL     1       3.259  -3.090   0.648  0.00  0.00    -0.027 A 
ATOM     19  C   UNL     1       2.664  -4.303   0.355  0.00  0.00    +0.007 A 
ATOM     20  C   UNL     1       2.959  -4.950  -0.830  0.00  0.00    +0.023 A 
ATOM     21  C   UNL     1       3.850  -4.385  -1.724  0.00  0.00    +0.076 A 
ATOM     22  C   UNL     1       4.447  -3.170  -1.430  0.00  0.00    +0.142 A 
ATOM     23  C   UNL     1       4.146  -2.520  -0.245  0.00  0.00    +0.045 A 
ATOM     24  F   UNL     1       5.318  -2.616  -2.302  0.00  0.00    -0.204 F 
ATOM     25 CL   UNL     1       4.222  -5.198  -3.212  0.00  0.00    -0.081 Cl
ENDBRANCH  14  18
BRANCH  16  26
ATOM     26  N   UNL     1       3.781  -0.897   4.317  0.00  0.00    +0.383 N 
ATOM     27  H   UNL     1       3.346  -0.475   3.510  0.00  0.00    -0.085 HD
ATOM     28  H   UNL     1       3.477  -0.418   5.152  0.00  0.00    -0.085 HD
BRANCH  26  29
ATOM     29  C   UNL     1       5.241  -0.792   4.197  0.00  0.00    -0.072 C 
ATOM     30  C   UNL     1       5.995  -0.099   5.333  0.00  0.00    -0.017 C 
ATOM     31  C   UNL     1       5.834   0.602   3.982  0.00  0.00    -0.017 C 
ENDBRANCH  26  29
ENDBRANCH  16  26
BRANCH   1  32
ATOM     32  C   UNL     1       0.618  -0.611   1.029  0.00  0.00    +0.325 C 
ATOM     33  O   UNL     1       0.350   0.023   2.022  0.00  0.00    -0.249 OA
BRANCH  32  35
ATOM     34  C   UNL     1       0.787   1.452  -0.112  0.00  0.00    +0.280 C 
ATOM     35  O   UNL     1       0.862   0.025  -0.128  0.00  0.00    -0.467 OA
ENDBRANCH  32  35
ENDBRANCH   1  32
TORSDOF 5
