REMARK  Name = ZINC02299548
REMARK  12 active torsions:
REMARK  status: ('A' for Active; 'I' for Inactive)
REMARK    1  A    between atoms: C_1  and  C_2
REMARK    2  A    between atoms: C_2  and  C_3
REMARK    3  A    between atoms: C_3  and  C_4
REMARK    4  A    between atoms: C_4  and  C_5
REMARK    5  A    between atoms: C_11  and  N_15
REMARK    6  A    between atoms: N_15  and  C_16
REMARK    7  A    between atoms: C_16  and  C_17
REMARK    8  A    between atoms: C_17  and  N_62
REMARK    9  A    between atoms: C_18  and  C_19
REMARK   10  A    between atoms: C_18  and  N_62
REMARK   11  A    between atoms: C_20  and  C_21
REMARK   12  A    between atoms: C_20  and  N_62
REMARK                            x       y       z     vdW  Elec       q    Type
REMARK                         _______ _______ _______ _____ _____    ______ ____
ROOT
ATOM      1  C   UNL     1      -4.170   3.321  -0.964  0.00  0.00    +0.046 A 
ATOM      2  C   UNL     1      -3.818   2.709   0.237  0.00  0.00    -0.022 A 
ATOM      3  C   UNL     1      -3.405   3.476   1.295  0.00  0.00    -0.031 A 
ATOM      4  C   UNL     1      -3.349   4.884   1.148  0.00  0.00    +0.037 A 
ATOM      5  C   UNL     1      -2.936   5.875   2.160  0.00  0.00    +0.093 A 
ATOM      6  C   UNL     1      -2.973   7.215   1.753  0.00  0.00    +0.080 A 
ATOM      7  C   UNL     1      -2.607   8.234   2.622  0.00  0.00    +0.136 A 
ATOM      8  N   UNL     1      -2.220   7.905   3.854  0.00  0.00    -0.220 NA
ATOM      9  C   UNL     1      -2.191   6.637   4.221  0.00  0.00    +0.224 A 
ATOM     10  N   UNL     1      -2.529   5.651   3.429  0.00  0.00    -0.234 NA
ATOM     11  S   UNL     1      -3.538   7.159   0.075  0.00  0.00    -0.064 S 
ATOM     12  C   UNL     1      -3.727   5.402  -0.102  0.00  0.00    +0.111 A 
ATOM     13  N   UNL     1      -4.114   4.630  -1.095  0.00  0.00    -0.244 NA
ATOM     14  C   UNL     1      -2.996   2.895   2.620  0.00  0.00    +0.036 C 
ATOM     15  C   UNL     1      -3.501   1.459   2.756  0.00  0.00    +0.005 C 
ATOM     16  C   UNL     1      -3.097   0.683   1.497  0.00  0.00    +0.005 C 
ATOM     17  C   UNL     1      -3.911   1.208   0.316  0.00  0.00    +0.037 C 
ENDROOT
BRANCH   7  18
ATOM     18  N   UNL     1      -2.644   9.560   2.218  0.00  0.00    -0.330 N 
ATOM     19  H   UNL     1      -2.928   9.785   1.319  0.00  0.00    +0.147 HD
BRANCH  18  20
ATOM     20  C   UNL     1      -2.253  10.620   3.150  0.00  0.00    +0.084 C 
BRANCH  20  21
ATOM     21  C   UNL     1      -2.384  11.979   2.460  0.00  0.00    -0.060 C 
BRANCH  21  22
ATOM     22  N   UNL     1      -2.007  13.039   3.418  0.00  0.00    +0.380 N 
ATOM     23  H   UNL     1      -2.539  12.909   4.286  0.00  0.00    -0.082 HD
BRANCH  22  24
ATOM     24  C   UNL     1      -0.563  12.954   3.724  0.00  0.00    -0.082 C 
ATOM     25  C   UNL     1       0.266  13.119   2.448  0.00  0.00    -0.017 C 
ENDBRANCH  22  24
BRANCH  22  26
ATOM     26  C   UNL     1      -2.326  14.368   2.854  0.00  0.00    -0.082 C 
ATOM     27  C   UNL     1      -2.276  15.404   3.978  0.00  0.00    -0.017 C 
ENDBRANCH  22  26
ENDBRANCH  21  22
ENDBRANCH  20  21
ENDBRANCH  18  20
ENDBRANCH   7  18
BRANCH   1  28
ATOM     28  C   UNL     1      -4.619   2.475  -2.127  0.00  0.00    +0.056 C 
BRANCH  28  29
ATOM     29  C   UNL     1      -6.136   2.292  -2.068  0.00  0.00    +0.006 C 
BRANCH  29  31
ATOM     30  C   UNL     1      -8.110   1.249  -3.191  0.00  0.00    +0.004 C 
ATOM     31  C   UNL     1      -6.592   1.433  -3.249  0.00  0.00    -0.003 C 
ENDBRANCH  29  31
ENDBRANCH  28  29
ENDBRANCH   1  28
TORSDOF 9
