REMARK  Name = ZINC14471653
REMARK  7 active torsions:
REMARK  status: ('A' for Active; 'I' for Inactive)
REMARK    1  A    between atoms: C_1  and  C_2
REMARK    2  A    between atoms: C_2  and  C_3
REMARK    3  A    between atoms: C_3  and  O_4
REMARK    4  A    between atoms: O_4  and  C_5
REMARK    5  A    between atoms: C_5  and  C_7
REMARK    6  A    between atoms: C_20  and  C_23
REMARK    7  A    between atoms: C_27  and  N_29
REMARK                            x       y       z     vdW  Elec       q    Type
REMARK                         _______ _______ _______ _____ _____    ______ ____
ROOT
ATOM      1  C   UNL     1       0.035   1.047  -4.867  0.00  0.00    +0.059 A 
ATOM      2  C   UNL     1       1.191   0.260  -4.831  0.00  0.00    +0.017 A 
ATOM      3  C   UNL     1       1.773  -0.155  -5.993  0.00  0.00    +0.024 A 
ATOM      4  C   UNL     1       1.233   0.203  -7.226  0.00  0.00    +0.031 A 
ATOM      5  C   UNL     1       0.082   1.006  -7.267  0.00  0.00    -0.019 A 
ATOM      6  C   UNL     1      -0.510   1.420  -6.099  0.00  0.00    +0.021 A 
ATOM      7  C   UNL     1      -0.439   1.385  -8.598  0.00  0.00    +0.049 C 
ATOM      8  C   UNL     1      -1.871   1.710  -8.819  0.00  0.00    -0.023 C 
ATOM      9  C   UNL     1      -2.200   1.357 -10.056  0.00  0.00    -0.030 C 
ATOM     10  C   UNL     1      -0.995   0.725 -10.757  0.00  0.00    +0.033 C 
ATOM     11  C   UNL     1      -0.191   0.189  -9.566  0.00  0.00    +0.029 C 
ATOM     12  C   UNL     1       1.316   0.106  -9.728  0.00  0.00    +0.105 C 
ATOM     13  N   UNL     1       1.842  -0.254  -8.393  0.00  0.00    -0.336 N 
ATOM     14  H   UNL     1       2.627  -0.820  -8.329  0.00  0.00    +0.147 HD
ENDROOT
BRANCH  12  15
ATOM     15  C   UNL     1       1.674  -0.959 -10.732  0.00  0.00    -0.025 A 
ATOM     16  C   UNL     1       1.691  -2.289 -10.354  0.00  0.00    +0.005 A 
ATOM     17  C   UNL     1       2.014  -3.265 -11.277  0.00  0.00    +0.003 A 
ATOM     18  C   UNL     1       2.331  -2.912 -12.576  0.00  0.00    +0.033 A 
ATOM     19  C   UNL     1       2.318  -1.582 -12.953  0.00  0.00    +0.127 A 
ATOM     20  C   UNL     1       1.990  -0.606 -12.031  0.00  0.00    +0.038 A 
BRANCH  19  21
ATOM     21  N   UNL     1       2.657  -1.204 -14.343  0.00  0.00    +0.056 N 
ATOM     22  O   UNL     1       2.647  -0.032 -14.675  0.00  0.00    -0.126 OA
ATOM     23  O   UNL     1       2.946  -2.064 -15.155  0.00  0.00    -0.126 OA
ENDBRANCH  19  21
ENDBRANCH  12  15
BRANCH   1  24
ATOM     24  C   UNL     1      -0.601   1.486  -3.612  0.00  0.00    +0.339 C 
ATOM     25  O   UNL     1      -1.603   2.174  -3.647  0.00  0.00    -0.245 OA
BRANCH  24  26
ATOM     26  O   UNL     1      -0.073   1.124  -2.426  0.00  0.00    -0.461 OA
BRANCH  26  27
ATOM     27  C   UNL     1      -0.753   1.593  -1.232  0.00  0.00    +0.232 C 
BRANCH  27  29
ATOM     28  C   UNL     1      -0.729   1.579   1.267  0.00  0.00    +0.007 C 
ATOM     29  C   UNL     1      -0.013   1.086   0.008  0.00  0.00    +0.038 C 
ENDBRANCH  27  29
ENDBRANCH  26  27
ENDBRANCH  24  26
ENDBRANCH   1  24
TORSDOF 6
