REMARK  Name = ZINC13640391
REMARK  11 active torsions:
REMARK  status: ('A' for Active; 'I' for Inactive)
REMARK    1  A    between atoms: C_1  and  C_2
REMARK    2  A    between atoms: C_4  and  C_30
REMARK    3  A    between atoms: N_5  and  C_7
REMARK    4  A    between atoms: C_7  and  C_8
REMARK    5  A    between atoms: C_8  and  C_9
REMARK    6  A    between atoms: N_11  and  CA_12
REMARK    7  A    between atoms: CA_19  and  C_28
REMARK    8  A    between atoms: C_20  and  C_23
REMARK    9  A    between atoms: C_23  and  O_24
REMARK   10  A    between atoms: O_24  and  C_25
REMARK   11  A    between atoms: C_25  and  C_27
REMARK                            x       y       z     vdW  Elec       q    Type
REMARK                         _______ _______ _______ _____ _____    ______ ____
ROOT
ATOM      1  CA  UNL     1      -3.181   3.801  -3.731  0.00  0.00    +0.191 C 
ATOM      2  C   UNL     1      -2.513   2.455  -3.473  0.00  0.00    +0.169 C 
ATOM      3  N   UNL     1      -2.599   2.822  -2.024  0.00  0.00    -0.249 N 
ATOM      4  C   UNL     1      -3.392   3.889  -2.229  0.00  0.00    +0.244 C 
ATOM      5  O   UNL     1      -4.023   4.627  -1.503  0.00  0.00    -0.273 OA
ATOM      6  CA  UNL     1      -1.877   2.236  -0.971  0.00  0.00    +0.130 C 
ATOM      7  C   UNL     1      -0.760   1.570  -1.218  0.00  0.00    +0.006 C 
ATOM      8  C   UNL     1      -0.129   1.272  -2.539  0.00  0.00    +0.107 C 
ATOM      9  S   UNL     1      -0.728   2.385  -3.848  0.00  0.00    -0.131 S 
ENDROOT
BRANCH   1  12
ATOM     10  C   UNL     1      -4.859   4.753  -5.220  0.00  0.00    +0.215 C 
ATOM     11  O   UNL     1      -4.215   5.781  -5.240  0.00  0.00    -0.276 OA
ATOM     12  N   UNL     1      -4.428   3.702  -4.494  0.00  0.00    -0.302 N 
ATOM     13  H   UNL     1      -4.942   2.880  -4.478  0.00  0.00    +0.150 HD
BRANCH  10  14
ATOM     14  C   UNL     1      -6.141   4.651  -6.005  0.00  0.00    +0.119 C 
BRANCH  14  15
ATOM     15  C   UNL     1      -6.399   5.972  -6.733  0.00  0.00    +0.153 C 
BRANCH  15  20
ATOM     16  C   UNL     1      -9.610   5.107 -10.494  0.00  0.00    +0.068 C 
ATOM     17  C   UNL     1      -9.032   5.487  -9.155  0.00  0.00    +0.074 A 
ATOM     18  C   UNL     1      -9.756   5.957  -8.053  0.00  0.00    +0.061 A 
ATOM     19  C   UNL     1      -8.880   6.186  -7.047  0.00  0.00    +0.050 A 
ATOM     20  N   UNL     1      -7.646   5.872  -7.497  0.00  0.00    -0.267 N 
ATOM     21  N   UNL     1      -7.767   5.442  -8.824  0.00  0.00    -0.175 NA
ATOM     22  C   UNL     1      -9.221   6.699  -5.672  0.00  0.00    +0.066 C 
ATOM     23 BR   UNL     1     -11.627   6.223  -7.982  0.00  0.00    -0.047 Br
ENDBRANCH  15  20
ENDBRANCH  14  15
ENDBRANCH  10  14
ENDBRANCH   1  12
BRANCH   6  24
ATOM     24  C   UNL     1      -2.363   2.367   0.415  0.00  0.00    +0.401 C 
ATOM     25  O   UNL     1      -3.444   2.877   0.634  0.00  0.00    -0.239 OA
ATOM     26  OXT UNL     1      -1.608   1.921   1.439  0.00  0.00    -0.239 OA
ENDBRANCH   6  24
BRANCH   7  27
ATOM     27  C   UNL     1      -0.033   1.038  -0.009  0.00  0.00    +0.266 C 
BRANCH  27  28
ATOM     28  O   UNL     1       1.116   0.260  -0.439  0.00  0.00    -0.460 OA
BRANCH  28  29
ATOM     29  C   UNL     1       1.815  -0.372   0.517  0.00  0.00    +0.304 C 
ATOM     30  O   UNL     1       1.428  -0.353   1.661  0.00  0.00    -0.251 OA
ATOM     31  C   UNL     1       3.084  -1.104   0.162  0.00  0.00    +0.136 C 
ENDBRANCH  28  29
ENDBRANCH  27  28
ENDBRANCH   7  27
TORSDOF 8
