REMARK  Name = ZINC08757697
REMARK  7 active torsions:
REMARK  status: ('A' for Active; 'I' for Inactive)
REMARK    1  A    between atoms: C_1  and  C_2
REMARK    2  A    between atoms: C_6  and  C_8
REMARK    3  A    between atoms: C_8  and  N_9
REMARK    4  A    between atoms: N_9  and  C_10
REMARK    5  A    between atoms: C_10  and  N_27
REMARK    6  A    between atoms: N_17  and  C_20
REMARK    7  A    between atoms: N_27  and  C_28
REMARK                            x       y       z     vdW  Elec       q    Type
REMARK                         _______ _______ _______ _____ _____    ______ ____
ROOT
ATOM      1  C   UNL     1       1.021  -4.166  -1.802  0.00  0.00    +0.106 C 
ATOM      2  C   UNL     1       1.446  -4.467  -3.103  0.00  0.00    +0.135 C 
ATOM      3  C   UNL     1       1.471  -3.466  -4.113  0.00  0.00    +0.260 C 
ATOM      4  O   UNL     1       1.121  -2.327  -3.863  0.00  0.00    -0.269 OA
ATOM      5  N   UNL     1       1.891  -3.797  -5.350  0.00  0.00    -0.235 N 
ATOM      6  C   UNL     1       2.274  -5.053  -5.636  0.00  0.00    +0.320 C 
ATOM      7  O   UNL     1       2.643  -5.314  -6.765  0.00  0.00    -0.251 OA
ATOM      8  N   UNL     1       2.262  -6.029  -4.713  0.00  0.00    -0.190 N 
ATOM      9  C   UNL     1       1.860  -5.782  -3.450  0.00  0.00    +0.267 C 
ATOM     10  O   UNL     1       1.851  -6.672  -2.619  0.00  0.00    -0.269 OA
ATOM     11  H   UNL     1       1.914  -3.120  -6.045  0.00  0.00    +0.159 HD
ENDROOT
BRANCH   8  12
ATOM     12  C   UNL     1       2.672  -7.321  -5.068  0.00  0.00    +0.046 A 
ATOM     13  C   UNL     1       3.804  -7.875  -4.487  0.00  0.00    +0.025 A 
ATOM     14  C   UNL     1       4.204  -9.151  -4.835  0.00  0.00    +0.017 A 
ATOM     15  C   UNL     1       3.482  -9.872  -5.770  0.00  0.00    +0.018 A 
ATOM     16  C   UNL     1       2.357  -9.320  -6.354  0.00  0.00    +0.017 A 
ATOM     17  C   UNL     1       1.950  -8.047  -6.006  0.00  0.00    +0.025 A 
ATOM     18 BR   UNL     1       4.036 -11.615  -6.250  0.00  0.00    -0.050 Br
ENDBRANCH   8  12
BRANCH   1  19
ATOM     19  N   UNL     1       0.719  -2.882  -1.464  0.00  0.00    -0.327 N 
ATOM     20  H   UNL     1       0.742  -2.185  -2.139  0.00  0.00    +0.148 HD
BRANCH  19  21
ATOM     21  C   UNL     1       0.359  -2.553  -0.083  0.00  0.00    +0.138 C 
BRANCH  21  27
ATOM     22  C   UNL     1       2.310   1.953   0.883  0.00  0.00    +0.044 C 
ATOM     23  C   UNL     1       1.128   1.095   0.514  0.00  0.00    -0.050 A 
ATOM     24  C   UNL     1      -0.108   1.676   0.299  0.00  0.00    +0.003 A 
ATOM     25  C   UNL     1      -1.192   0.888  -0.040  0.00  0.00    +0.001 A 
ATOM     26  C   UNL     1      -1.041  -0.480  -0.164  0.00  0.00    +0.005 A 
ATOM     27  C   UNL     1       0.194  -1.061   0.052  0.00  0.00    -0.030 A 
ATOM     28  C   UNL     1       1.279  -0.274   0.391  0.00  0.00    +0.008 A 
ENDBRANCH  21  27
ENDBRANCH  19  21
ENDBRANCH   1  19
BRANCH   1  29
ATOM     29  N   UNL     1       0.908  -5.159  -0.875  0.00  0.00    -0.302 N 
ATOM     30  H   UNL     1       1.651  -5.355  -0.283  0.00  0.00    +0.153 HD
BRANCH  29  31
ATOM     31  C   UNL     1      -0.277  -5.895  -0.778  0.00  0.00    +0.032 A 
ATOM     32  C   UNL     1      -1.308  -5.675  -1.683  0.00  0.00    +0.023 A 
ATOM     33  C   UNL     1      -2.475  -6.408  -1.588  0.00  0.00    +0.002 A 
ATOM     34  C   UNL     1      -2.622  -7.350  -0.587  0.00  0.00    +0.000 A 
ATOM     35  C   UNL     1      -1.600  -7.567   0.319  0.00  0.00    +0.002 A 
ATOM     36  C   UNL     1      -0.428  -6.842   0.226  0.00  0.00    +0.023 A 
ENDBRANCH  29  31
ENDBRANCH   1  29
TORSDOF 6
