REMARK  Name = ZINC09631566
REMARK  7 active torsions:
REMARK  status: ('A' for Active; 'I' for Inactive)
REMARK    1  A    between atoms: C_3  and  N_33
REMARK    2  A    between atoms: C_5  and  S_7
REMARK    3  A    between atoms: S_7  and  N_10
REMARK    4  A    between atoms: N_10  and  C_11
REMARK    5  A    between atoms: C_14  and  C_17
REMARK    6  A    between atoms: N_19  and  N_20
REMARK    7  A    between atoms: C_21  and  C_23
REMARK                            x       y       z     vdW  Elec       q    Type
REMARK                         _______ _______ _______ _____ _____    ______ ____
ROOT
ATOM      1  C   UNL     1      -1.002   5.740  -2.386  0.00  0.00    +0.048 A 
ATOM      2  C   UNL     1      -1.645   4.508  -2.312  0.00  0.00    +0.025 A 
ATOM      3  C   UNL     1      -2.657   4.205  -3.194  0.00  0.00    +0.015 A 
ATOM      4  C   UNL     1      -3.032   5.132  -4.171  0.00  0.00    +0.038 A 
ATOM      5  C   UNL     1      -2.380   6.367  -4.245  0.00  0.00    +0.015 A 
ATOM      6  C   UNL     1      -1.372   6.666  -3.358  0.00  0.00    +0.025 A 
ENDROOT
BRANCH   4   7
ATOM      7  C   UNL     1      -4.113   4.809  -5.121  0.00  0.00    +0.260 C 
ATOM      8  O   UNL     1      -4.438   5.616  -5.970  0.00  0.00    -0.269 OA
ATOM      9  N   UNL     1      -4.740   3.618  -5.048  0.00  0.00    -0.230 N 
ATOM     10  H   UNL     1      -4.481   2.974  -4.370  0.00  0.00    +0.173 HD
BRANCH   9  11
ATOM     11  N   UNL     1      -5.767   3.311  -5.950  0.00  0.00    -0.234 N 
ATOM     12  C   UNL     1      -6.395   2.120  -5.877  0.00  0.00    +0.235 C 
ATOM     13  O   UNL     1      -6.070   1.315  -5.030  0.00  0.00    -0.274 OA
ATOM     14  H   UNL     1      -6.027   3.954  -6.627  0.00  0.00    +0.173 HD
BRANCH  12  15
ATOM     15  C   UNL     1      -7.499   1.789  -6.847  0.00  0.00    +0.049 C 
ATOM     16  C   UNL     1      -8.628   2.811  -6.702  0.00  0.00    +0.019 C 
ATOM     17  C   UNL     1      -9.750   2.476  -7.687  0.00  0.00    -0.009 C 
ATOM     18  C   UNL     1     -10.288   1.075  -7.389  0.00  0.00    +0.007 C 
ATOM     19  C   UNL     1      -9.159   0.053  -7.534  0.00  0.00    -0.009 C 
ATOM     20  C   UNL     1      -8.038   0.389  -6.549  0.00  0.00    +0.019 C 
ATOM     21  C   UNL     1      -8.613   0.096  -8.962  0.00  0.00    +0.007 C 
ATOM     22  C   UNL     1      -8.074   1.496  -9.261  0.00  0.00    -0.009 C 
ATOM     23  C   UNL     1      -9.203   2.518  -9.116  0.00  0.00    +0.007 C 
ATOM     24  C   UNL     1      -6.953   1.832  -8.275  0.00  0.00    +0.019 C 
ENDBRANCH  12  15
ENDBRANCH   9  11
ENDBRANCH   4   7
BRANCH   1  25
ATOM     25  N   UNL     1       0.017   6.046  -1.490  0.00  0.00    -0.216 N 
ATOM     26  H   UNL     1       0.889   5.630  -1.587  0.00  0.00    +0.174 HD
BRANCH  25  27
ATOM     27  S   UNL     1      -0.257   7.118  -0.258  0.00  0.00    +0.072 S 
ATOM     28  O   UNL     1      -0.833   8.276  -0.848  0.00  0.00    -0.150 OA
ATOM     29  O   UNL     1       0.938   7.169   0.510  0.00  0.00    -0.150 OA
BRANCH  27  34
ATOM     30  C   UNL     1      -2.107   4.966   2.586  0.00  0.00    +0.004 A 
ATOM     31  C   UNL     1      -3.435   5.308   2.409  0.00  0.00    +0.033 A 
ATOM     32  C   UNL     1      -3.792   6.199   1.415  0.00  0.00    +0.128 A 
ATOM     33  C   UNL     1      -2.821   6.756   0.604  0.00  0.00    +0.061 A 
ATOM     34  C   UNL     1      -1.494   6.414   0.780  0.00  0.00    +0.111 A 
ATOM     35  C   UNL     1      -1.137   5.519   1.771  0.00  0.00    +0.029 A 
BRANCH  32  36
ATOM     36  N   UNL     1      -5.215   6.561   1.222  0.00  0.00    +0.056 N 
ATOM     37  O   UNL     1      -6.070   6.073   1.939  0.00  0.00    -0.126 OA
ATOM     38  O   UNL     1      -5.530   7.346   0.345  0.00  0.00    -0.126 OA
ENDBRANCH  32  36
ENDBRANCH  27  34
ENDBRANCH  25  27
ENDBRANCH   1  25
TORSDOF 7
