REMARK  Name = ZINC01410539
REMARK  4 active torsions:
REMARK  status: ('A' for Active; 'I' for Inactive)
REMARK    1  A    between atoms: C_3  and  C_6
REMARK    2  A    between atoms: C_9  and  C_33
REMARK    3  A    between atoms: C_14  and  C_16
REMARK    4  A    between atoms: N_21  and  C_24
REMARK                            x       y       z     vdW  Elec       q    Type
REMARK                         _______ _______ _______ _____ _____    ______ ____
ROOT
ATOM      1  C   UNL     1      -1.097   5.111  -0.010  0.00  0.00    +0.111 C 
ATOM      2  C   UNL     1      -1.562   5.486  -1.421  0.00  0.00    +0.063 C 
ATOM      3  C   UNL     1      -1.918   6.980  -1.447  0.00  0.00    +0.215 C 
ATOM      4  N   UNL     1      -2.752   7.264  -0.273  0.00  0.00    -0.237 N 
ATOM      5  C   UNL     1      -2.875   6.429   0.797  0.00  0.00    +0.133 A 
ATOM      6  C   UNL     1      -3.719   7.013   1.681  0.00  0.00    +0.089 A 
ATOM      7  C   UNL     1      -4.127   8.249   1.134  0.00  0.00    +0.163 A 
ATOM      8  N   UNL     1      -3.540   8.391  -0.041  0.00  0.00    -0.163 NA
ATOM      9 BR   UNL     1      -4.254   6.302   3.350  0.00  0.00    -0.044 Br
ATOM     10  N   UNL     1      -2.230   5.200   0.924  0.00  0.00    -0.321 N 
ATOM     11  H   UNL     1      -2.875   4.437   0.783  0.00  0.00    +0.148 HD
ENDROOT
BRANCH   7  12
ATOM     12  C   UNL     1      -5.049   9.214   1.765  0.00  0.00    +0.268 C 
ATOM     13  O   UNL     1      -5.614   8.927   2.802  0.00  0.00    -0.268 OA
ATOM     14  N   UNL     1      -5.264  10.415   1.191  0.00  0.00    -0.293 N 
ATOM     15  C   UNL     1      -6.114  11.422   1.844  0.00  0.00    +0.127 C 
ATOM     16  C   UNL     1      -5.335  12.746   1.899  0.00  0.00    +0.124 C 
ATOM     17  N   UNL     1      -4.883  13.099   0.546  0.00  0.00    -0.327 N 
ATOM     18  C   UNL     1      -3.945  12.098   0.021  0.00  0.00    +0.124 C 
ATOM     19  C   UNL     1      -4.662  10.749  -0.108  0.00  0.00    +0.127 C 
BRANCH  17  20
ATOM     20  C   UNL     1      -4.316  14.377   0.524  0.00  0.00    +0.030 A 
ATOM     21  C   UNL     1      -3.023  14.556   0.051  0.00  0.00    +0.026 A 
ATOM     22  C   UNL     1      -2.467  15.820   0.026  0.00  0.00    +0.040 A 
ATOM     23  C   UNL     1      -3.194  16.906   0.482  0.00  0.00    +0.124 A 
ATOM     24  C   UNL     1      -4.481  16.729   0.960  0.00  0.00    +0.040 A 
ATOM     25  C   UNL     1      -5.043  15.468   0.982  0.00  0.00    +0.026 A 
ATOM     26  F   UNL     1      -2.646  18.141   0.461  0.00  0.00    -0.205 F 
ENDBRANCH  17  20
ENDBRANCH   7  12
BRANCH   1  29
ATOM     27  C   UNL     1       0.985   1.921  -0.056  0.00  0.00    +0.008 A 
ATOM     28  C   UNL     1       0.725   3.279  -0.058  0.00  0.00    +0.013 A 
ATOM     29  C   UNL     1      -0.562   3.703  -0.017  0.00  0.00    +0.010 A 
ATOM     30  S   UNL     1      -1.458   2.159   0.021  0.00  0.00    -0.100 S 
ATOM     31  C   UNL     1      -0.056   1.054  -0.012  0.00  0.00    +0.045 A 
ENDBRANCH   1  29
BRANCH   3  32
ATOM     32  C   UNL     1      -2.694   7.305  -2.725  0.00  0.00    +0.412 C 
ATOM     33  F   UNL     1      -3.871   6.549  -2.761  0.00  0.00    -0.168 F 
ATOM     34  F   UNL     1      -3.014   8.667  -2.742  0.00  0.00    -0.168 F 
ATOM     35  F   UNL     1      -1.907   6.997  -3.840  0.00  0.00    -0.168 F 
ENDBRANCH   3  32
TORSDOF 4
