REMARK  Name = ZINC43630822
REMARK  9 active torsions:
REMARK  status: ('A' for Active; 'I' for Inactive)
REMARK    1  A    between atoms: C_1  and  C_2
REMARK    2  A    between atoms: N_4  and  C_5
REMARK    3  A    between atoms: C_9  and  C_18
REMARK    4  A    between atoms: C_13  and  C_14
REMARK    5  A    between atoms: C_14  and  O_16
REMARK    6  A    between atoms: O_16  and  C_17
REMARK    7  A    between atoms: C_18  and  N_19
REMARK    8  A    between atoms: C_22  and  C_31
REMARK    9  A    between atoms: C_22  and  O_37
REMARK                            x       y       z     vdW  Elec       q    Type
REMARK                         _______ _______ _______ _____ _____    ______ ____
ROOT
ATOM      1  C   UNL     1       1.080  -5.417  -5.675  0.00  0.00    -0.022 C 
ENDROOT
BRANCH   1   2
ATOM      2  N   UNL     1       2.463  -5.902  -5.574  0.00  0.00    +0.386 N 
ATOM      3  C   UNL     1       2.603  -6.726  -4.368  0.00  0.00    -0.075 C 
ATOM      4  C   UNL     1       4.060  -7.168  -4.214  0.00  0.00    +0.021 C 
ATOM      5  C   UNL     1       4.473  -7.984  -5.442  0.00  0.00    +0.091 C 
ATOM      6  C   UNL     1       4.252  -7.141  -6.701  0.00  0.00    +0.012 C 
ATOM      7  C   UNL     1       2.788  -6.700  -6.763  0.00  0.00    -0.062 C 
ATOM      8  C   UNL     1       2.564  -5.856  -8.020  0.00  0.00    -0.015 C 
ATOM      9  C   UNL     1       3.466  -4.621  -7.971  0.00  0.00    -0.002 C 
ATOM     10  C   UNL     1       4.930  -5.060  -7.905  0.00  0.00    +0.000 C 
ATOM     11  C   UNL     1       5.157  -5.909  -6.653  0.00  0.00    +0.005 C 
ATOM     12  H   UNL     1       3.091  -5.115  -5.516  0.00  0.00    -0.081 HD
BRANCH   5  13
ATOM     13  C   UNL     1       5.929  -8.357  -5.334  0.00  0.00    -0.016 A 
ATOM     14  C   UNL     1       6.367  -9.580  -5.805  0.00  0.00    +0.006 A 
ATOM     15  C   UNL     1       7.702  -9.921  -5.706  0.00  0.00    +0.000 A 
ATOM     16  C   UNL     1       8.601  -9.039  -5.136  0.00  0.00    +0.000 A 
ATOM     17  C   UNL     1       8.163  -7.815  -4.665  0.00  0.00    +0.000 A 
ATOM     18  C   UNL     1       6.828  -7.472  -4.768  0.00  0.00    +0.006 A 
ENDBRANCH   5  13
BRANCH   5  19
ATOM     19  O   UNL     1       3.679  -9.170  -5.516  0.00  0.00    -0.384 OA
ATOM     20  H   UNL     1       3.765  -9.750  -4.747  0.00  0.00    +0.211 HD
ENDBRANCH   5  19
ENDBRANCH   1   2
BRANCH   1  25
ATOM     21  C   UNL     1      -0.098  -2.129  -1.155  0.00  0.00    +0.064 A 
ATOM     22  C   UNL     1       0.238  -2.824  -2.388  0.00  0.00    +0.030 A 
ATOM     23  C   UNL     1       0.662  -2.277  -3.625  0.00  0.00    +0.014 A 
ATOM     24  C   UNL     1       0.929  -3.127  -4.672  0.00  0.00    +0.022 A 
ATOM     25  C   UNL     1       0.785  -4.498  -4.518  0.00  0.00    +0.026 A 
ATOM     26  N   UNL     1       0.391  -5.003  -3.365  0.00  0.00    -0.246 NA
ATOM     27  C   UNL     1       0.123  -4.232  -2.333  0.00  0.00    +0.111 A 
ATOM     28  S   UNL     1      -0.417  -4.552  -0.673  0.00  0.00    -0.060 S 
ATOM     29  C   UNL     1      -0.484  -2.878  -0.066  0.00  0.00    +0.120 A 
BRANCH  21  33
ATOM     30  C   UNL     1       0.956   1.429  -1.743  0.00  0.00    +0.109 C 
ATOM     31  C   UNL     1       0.939  -0.078  -1.744  0.00  0.00    +0.214 C 
ATOM     32  O   UNL     1       1.794  -0.694  -2.345  0.00  0.00    -0.276 OA
ATOM     33  N   UNL     1      -0.026  -0.742  -1.077  0.00  0.00    -0.284 N 
ATOM     34  H   UNL     1      -0.670  -0.252  -0.542  0.00  0.00    +0.155 HD
ENDBRANCH  21  33
BRANCH  29  35
ATOM     35  C   UNL     1      -0.849  -2.426   1.227  0.00  0.00    +0.348 C 
ATOM     36  O   UNL     1      -0.932  -1.233   1.454  0.00  0.00    -0.244 OA
BRANCH  35  37
ATOM     37  O   UNL     1      -1.104  -3.318   2.207  0.00  0.00    -0.464 OA
ATOM     38  C   UNL     1      -1.466  -2.792   3.485  0.00  0.00    +0.280 C 
ENDBRANCH  35  37
ENDBRANCH  29  35
ENDBRANCH   1  25
TORSDOF 7
