REMARK  Name = ZINC11437377
REMARK  11 active torsions:
REMARK  status: ('A' for Active; 'I' for Inactive)
REMARK    1  A    between atoms: C_1  and  C_2
REMARK    2  A    between atoms: C_5  and  C_31
REMARK    3  A    between atoms: N_6  and  C_7
REMARK    4  A    between atoms: C_10  and  C_13
REMARK    5  A    between atoms: C_13  and  O_15
REMARK    6  A    between atoms: O_15  and  C_16
REMARK    7  A    between atoms: C_16  and  C_17
REMARK    8  A    between atoms: N_19  and  C_20
REMARK    9  A    between atoms: C_23  and  N_28
REMARK   10  A    between atoms: C_25  and  O_26
REMARK   11  A    between atoms: O_26  and  C_27
REMARK                            x       y       z     vdW  Elec       q    Type
REMARK                         _______ _______ _______ _____ _____    ______ ____
ROOT
ATOM      1  O   UNL     1      -5.375  -3.350   1.085  0.00  0.00    -0.452 OA
ENDROOT
BRANCH   1   2
ATOM      2  C   UNL     1      -4.556  -3.331   0.015  0.00  0.00    +0.340 C 
ATOM      3  O   UNL     1      -4.791  -4.042  -0.942  0.00  0.00    -0.245 OA
BRANCH   2   7
ATOM      4  C   UNL     1      -1.153  -0.791  -0.012  0.00  0.00    +0.047 A 
ATOM      5  C   UNL     1      -1.994  -0.812   1.096  0.00  0.00    +0.027 A 
ATOM      6  C   UNL     1      -3.102  -1.631   1.106  0.00  0.00    +0.017 A 
ATOM      7  C   UNL     1      -3.374  -2.448   0.005  0.00  0.00    +0.059 A 
ATOM      8  C   UNL     1      -2.524  -2.428  -1.104  0.00  0.00    +0.017 A 
ATOM      9  C   UNL     1      -1.421  -1.603  -1.109  0.00  0.00    +0.027 A 
BRANCH   4  15
ATOM     10  C   UNL     1      -1.294   2.272   0.015  0.00  0.00    +0.064 C 
ATOM     11  C   UNL     1      -0.057   1.411  -0.006  0.00  0.00    +0.021 A 
ATOM     12  C   UNL     1       1.215   1.855  -0.021  0.00  0.00    +0.023 A 
ATOM     13  C   UNL     1       2.058   0.725  -0.045  0.00  0.00    +0.023 A 
ATOM     14  C   UNL     1       1.269  -0.368  -0.044  0.00  0.00    +0.021 A 
ATOM     15  N   UNL     1      -0.033   0.045  -0.020  0.00  0.00    -0.318 N 
ATOM     16  C   UNL     1       1.742  -1.799  -0.066  0.00  0.00    +0.064 C 
ENDBRANCH   4  15
ENDBRANCH   2   7
ENDBRANCH   1   2
BRANCH   1  17
ATOM     17  C   UNL     1      -6.518  -4.243   1.025  0.00  0.00    +0.328 C 
BRANCH  17  18
ATOM     18  C   UNL     1      -7.312  -4.128   2.300  0.00  0.00    +0.255 C 
ATOM     19  O   UNL     1      -6.950  -3.369   3.174  0.00  0.00    -0.272 OA
ATOM     20  N   UNL     1      -8.425  -4.870   2.470  0.00  0.00    -0.280 N 
ATOM     21  H   UNL     1      -8.750  -5.428   1.747  0.00  0.00    +0.155 HD
BRANCH  20  22
ATOM     22  C   UNL     1      -9.111  -4.833   3.691  0.00  0.00    +0.076 A 
ATOM     23  C   UNL     1      -9.170  -3.655   4.421  0.00  0.00    +0.029 A 
ATOM     24  C   UNL     1      -9.848  -3.622   5.625  0.00  0.00    +0.035 A 
ATOM     25  C   UNL     1     -10.468  -4.761   6.105  0.00  0.00    +0.130 A 
ATOM     26  C   UNL     1     -10.414  -5.938   5.383  0.00  0.00    +0.080 A 
ATOM     27  C   UNL     1      -9.741  -5.979   4.172  0.00  0.00    +0.143 A 
BRANCH  25  28
ATOM     28  N   UNL     1     -11.193  -4.719   7.395  0.00  0.00    +0.057 N 
ATOM     29  O   UNL     1     -11.243  -3.682   8.032  0.00  0.00    -0.126 OA
ATOM     30  O   UNL     1     -11.741  -5.721   7.819  0.00  0.00    -0.126 OA
ENDBRANCH  25  28
BRANCH  27  31
ATOM     31  O   UNL     1      -9.692  -7.135   3.458  0.00  0.00    -0.493 OA
ATOM     32  C   UNL     1     -10.361  -8.269   4.013  0.00  0.00    +0.277 C 
ENDBRANCH  27  31
ENDBRANCH  20  22
ENDBRANCH  17  18
ENDBRANCH   1  17
TORSDOF 8
