REMARK  Name = ZINC36605205
REMARK  17 active torsions:
REMARK  status: ('A' for Active; 'I' for Inactive)
REMARK    1  A    between atoms: C_1  and  C_2
REMARK    2  A    between atoms: C_2  and  C_3
REMARK    3  A    between atoms: C_2  and  C_4
REMARK    4  A    between atoms: C_2  and  C_5
REMARK    5  A    between atoms: C_5  and  C_6
REMARK    6  A    between atoms: C_6  and  C_7
REMARK    7  A    between atoms: C_6  and  C_8
REMARK    8  A    between atoms: C_6  and  N_9
REMARK    9  A    between atoms: C_10  and  C_12
REMARK   10  A    between atoms: C_12  and  C_14
REMARK   11  A    between atoms: C_12  and  N_21
REMARK   12  A    between atoms: C_17  and  O_20
REMARK   13  A    between atoms: N_21  and  C_22
REMARK   14  A    between atoms: C_28  and  C_30
REMARK   15  A    between atoms: C_30  and  C_32
REMARK   16  A    between atoms: C_30  and  O_38
REMARK   17  A    between atoms: O_38  and  C_39
REMARK                            x       y       z     vdW  Elec       q    Type
REMARK                         _______ _______ _______ _____ _____    ______ ____
ROOT
ATOM      1  C   UNL     1       5.157  -0.349  -4.343  0.00  0.00    +0.197 C 
ENDROOT
BRANCH   1   2
ATOM      2  C   UNL     1       5.407  -1.777  -4.753  0.00  0.00    -0.018 A 
ATOM      3  C   UNL     1       6.450  -2.486  -4.185  0.00  0.00    +0.009 A 
ATOM      4  C   UNL     1       6.681  -3.796  -4.559  0.00  0.00    +0.046 A 
ATOM      5  C   UNL     1       5.867  -4.399  -5.507  0.00  0.00    +0.117 A 
ATOM      6  C   UNL     1       4.822  -3.686  -6.075  0.00  0.00    +0.046 A 
ATOM      7  C   UNL     1       4.591  -2.379  -5.694  0.00  0.00    +0.009 A 
BRANCH   5   8
ATOM      8  O   UNL     1       6.094  -5.687  -5.877  0.00  0.00    -0.507 OA
ATOM      9  H   UNL     1       5.620  -6.339  -5.343  0.00  0.00    +0.292 HD
ENDBRANCH   5   8
ENDBRANCH   1   2
BRANCH   1  11
ATOM     10  N   UNL     1       3.599  -0.959  -2.522  0.00  0.00    -0.308 N 
ATOM     11  C   UNL     1       4.717  -0.310  -2.902  0.00  0.00    +0.239 C 
ATOM     12  O   UNL     1       5.369   0.306  -2.086  0.00  0.00    -0.273 OA
ATOM     13  H   UNL     1       3.078  -1.451  -3.175  0.00  0.00    +0.149 HD
BRANCH  10  14
ATOM     14  C   UNL     1       3.171  -0.921  -1.121  0.00  0.00    +0.030 C 
ATOM     15  C   UNL     1       3.175   0.527  -0.626  0.00  0.00    +0.031 C 
ATOM     16  C   UNL     1       4.133  -1.753  -0.271  0.00  0.00    +0.031 C 
BRANCH  14  17
ATOM     17  C   UNL     1       1.758  -1.496  -1.003  0.00  0.00    +0.031 C 
BRANCH  17  19
ATOM     18  C   UNL     1       1.137  -1.760  -3.409  0.00  0.00    +0.010 C 
ATOM     19  C   UNL     1       0.889  -0.948  -2.136  0.00  0.00    -0.036 C 
ATOM     20  C   UNL     1       1.245   0.518  -2.389  0.00  0.00    +0.010 C 
ATOM     21  C   UNL     1      -0.586  -1.054  -1.744  0.00  0.00    +0.010 C 
ENDBRANCH  17  19
ENDBRANCH  14  17
ENDBRANCH  10  14
ENDBRANCH   1  11
BRANCH   1  22
ATOM     22  N   UNL     1       6.390   0.427  -4.499  0.00  0.00    -0.253 N 
ATOM     23  C   UNL     1       6.380   1.758  -4.286  0.00  0.00    +0.254 C 
ATOM     24  O   UNL     1       7.377   2.414  -4.502  0.00  0.00    -0.272 OA
BRANCH  22  25
ATOM     25  C   UNL     1       7.578  -0.214  -4.868  0.00  0.00    +0.038 A 
ATOM     26  C   UNL     1       7.705  -0.765  -6.136  0.00  0.00    +0.023 A 
ATOM     27  C   UNL     1       8.879  -1.396  -6.498  0.00  0.00    +0.002 A 
ATOM     28  C   UNL     1       9.927  -1.479  -5.600  0.00  0.00    +0.000 A 
ATOM     29  C   UNL     1       9.803  -0.931  -4.336  0.00  0.00    +0.002 A 
ATOM     30  C   UNL     1       8.634  -0.294  -3.970  0.00  0.00    +0.023 A 
ENDBRANCH  22  25
BRANCH  23  31
ATOM     31  C   UNL     1       5.130   2.430  -3.779  0.00  0.00    +0.234 C 
BRANCH  31  32
ATOM     32  C   UNL     1       4.115   2.507  -4.889  0.00  0.00    -0.010 A 
ATOM     33  C   UNL     1       4.306   3.385  -5.940  0.00  0.00    +0.006 A 
ATOM     34  C   UNL     1       3.374   3.455  -6.960  0.00  0.00    +0.000 A 
ATOM     35  C   UNL     1       2.253   2.648  -6.928  0.00  0.00    +0.000 A 
ATOM     36  C   UNL     1       2.063   1.770  -5.878  0.00  0.00    +0.000 A 
ATOM     37  C   UNL     1       2.996   1.696  -4.861  0.00  0.00    +0.006 A 
ENDBRANCH  31  32
BRANCH  31  38
ATOM     38  O   UNL     1       5.448   3.750  -3.331  0.00  0.00    -0.366 OA
ATOM     39  C   UNL     1       5.814   3.823  -1.952  0.00  0.00    +0.195 C 
ENDBRANCH  31  38
ENDBRANCH  23  31
ENDBRANCH   1  22
TORSDOF 11
