REMARK  Name = ZINC35729556
REMARK  10 active torsions:
REMARK  status: ('A' for Active; 'I' for Inactive)
REMARK    1  A    between atoms: C_1  and  C_2
REMARK    2  A    between atoms: C_3  and  C_27
REMARK    3  A    between atoms: C_4  and  C_11
REMARK    4  A    between atoms: N_9  and  C_10
REMARK    5  A    between atoms: C_14  and  N_17
REMARK    6  A    between atoms: C_18  and  C_20
REMARK    7  A    between atoms: C_27  and  O_29
REMARK    8  A    between atoms: O_29  and  C_30
REMARK    9  A    between atoms: C_30  and  C_31
REMARK   10  A    between atoms: C_30  and  C_32
REMARK                            x       y       z     vdW  Elec       q    Type
REMARK                         _______ _______ _______ _____ _____    ______ ____
ROOT
ATOM      1  C   UNL     1      -1.480  -2.974   1.390  0.00  0.00    -0.022 A 
ATOM      2  C   UNL     1      -0.632  -3.167   2.465  0.00  0.00    +0.007 A 
ATOM      3  C   UNL     1      -1.102  -3.758   3.620  0.00  0.00    +0.023 A 
ATOM      4  C   UNL     1      -2.429  -4.160   3.703  0.00  0.00    +0.034 A 
ATOM      5  C   UNL     1      -3.279  -3.965   2.622  0.00  0.00    +0.023 A 
ATOM      6  C   UNL     1      -2.803  -3.368   1.471  0.00  0.00    +0.007 A 
ENDROOT
BRANCH   1  10
ATOM      7  C   UNL     1       0.345   1.286   0.429  0.00  0.00    +0.061 C 
ATOM      8  C   UNL     1       0.263  -0.203   0.214  0.00  0.00    +0.021 C 
ATOM      9  C   UNL     1      -0.926  -0.830   0.355  0.00  0.00    +0.078 C 
ATOM     10  C   UNL     1      -0.964  -2.328   0.130  0.00  0.00    +0.141 C 
ATOM     11  N   UNL     1       0.307  -2.981  -0.226  0.00  0.00    -0.315 N 
ATOM     12  C   UNL     1       1.413  -2.219  -0.330  0.00  0.00    +0.137 C 
ATOM     13  S   UNL     1       2.898  -2.965  -0.743  0.00  0.00    -0.018 S 
ATOM     14  N   UNL     1       1.389  -0.896  -0.125  0.00  0.00    -0.289 N 
ATOM     15  C   UNL     1       2.642  -0.151  -0.267  0.00  0.00    +0.137 C 
ATOM     16  H   UNL     1       0.347  -3.938  -0.382  0.00  0.00    +0.149 HD
BRANCH   9  17
ATOM     17  C   UNL     1      -2.094  -0.113   0.701  0.00  0.00    +0.339 C 
ATOM     18  O   UNL     1      -2.040   1.090   0.878  0.00  0.00    -0.245 OA
BRANCH  17  19
ATOM     19  O   UNL     1      -3.269  -0.762   0.836  0.00  0.00    -0.459 OA
BRANCH  19  20
ATOM     20  C   UNL     1      -4.409   0.025   1.188  0.00  0.00    +0.171 C 
ATOM     21  C   UNL     1      -5.096   0.524  -0.085  0.00  0.00    +0.052 C 
ATOM     22  C   UNL     1      -5.389  -0.828   1.996  0.00  0.00    +0.052 C 
ENDBRANCH  19  20
ENDBRANCH  17  19
ENDBRANCH   9  17
ENDBRANCH   1  10
BRANCH   4  23
ATOM     23  N   UNL     1      -2.908  -4.760   4.872  0.00  0.00    -0.282 N 
ATOM     24  C   UNL     1      -2.454  -4.353   6.073  0.00  0.00    +0.248 C 
ATOM     25  O   UNL     1      -1.581  -3.510   6.139  0.00  0.00    -0.270 OA
ATOM     26  H   UNL     1      -3.568  -5.469   4.817  0.00  0.00    +0.155 HD
BRANCH  24  27
ATOM     27  C   UNL     1      -3.017  -4.932   7.311  0.00  0.00    +0.037 A 
ATOM     28  C   UNL     1      -4.015  -5.904   7.239  0.00  0.00    +0.014 A 
ATOM     29  C   UNL     1      -4.537  -6.441   8.397  0.00  0.00    +0.016 A 
ATOM     30  C   UNL     1      -4.072  -6.016   9.630  0.00  0.00    +0.018 A 
ATOM     31  C   UNL     1      -3.082  -5.051   9.709  0.00  0.00    +0.016 A 
ATOM     32  C   UNL     1      -2.548  -4.512   8.557  0.00  0.00    +0.014 A 
ATOM     33 BR   UNL     1      -4.793  -6.755  11.214  0.00  0.00    -0.050 Br
ENDBRANCH  24  27
ENDBRANCH   4  23
TORSDOF 6
