REMARK  Name = ZINC35890777
REMARK  8 active torsions:
REMARK  status: ('A' for Active; 'I' for Inactive)
REMARK    1  A    between atoms: C_1  and  C_2
REMARK    2  A    between atoms: C_2  and  C_3
REMARK    3  A    between atoms: C_4  and  C_35
REMARK    4  A    between atoms: C_6  and  C_28
REMARK    5  A    between atoms: C_8  and  N_9
REMARK    6  A    between atoms: N_17  and  C_18
REMARK    7  A    between atoms: C_23  and  C_24
REMARK    8  A    between atoms: C_31  and  C_34
REMARK                            x       y       z     vdW  Elec       q    Type
REMARK                         _______ _______ _______ _____ _____    ______ ____
ROOT
ATOM      1  N   UNL     1       3.681  -0.234  -0.777  0.00  0.00    -0.312 N 
ATOM      2  C   UNL     1       3.210   0.618   0.324  0.00  0.00    +0.125 C 
ATOM      3  C   UNL     1       3.246  -0.196   1.624  0.00  0.00    +0.128 C 
ATOM      4  N   UNL     1       4.562  -0.839   1.739  0.00  0.00    -0.282 N 
ATOM      5  C   UNL     1       5.034  -1.691   0.639  0.00  0.00    +0.128 C 
ATOM      6  C   UNL     1       4.995  -0.881  -0.658  0.00  0.00    +0.125 C 
ATOM      7  C   UNL     1       5.324  -0.649   2.835  0.00  0.00    +0.307 C 
ATOM      8  O   UNL     1       4.885  -0.022   3.780  0.00  0.00    -0.252 OA
ATOM      9  N   UNL     1       6.572  -1.155   2.884  0.00  0.00    -0.269 N 
ATOM     10  H   UNL     1       6.891  -1.730   2.170  0.00  0.00    +0.156 HD
ENDROOT
BRANCH   1  16
ATOM     11  C   UNL     1       3.005   0.433  -2.998  0.00  0.00    +0.011 A 
ATOM     12  C   UNL     1       2.208   0.198  -4.102  0.00  0.00    +0.021 A 
ATOM     13  N   UNL     1       1.369  -0.827  -4.089  0.00  0.00    -0.343 N 
ATOM     14  C   UNL     1       1.284  -1.625  -3.034  0.00  0.00    +0.140 A 
ATOM     15  N   UNL     1       2.031  -1.434  -1.956  0.00  0.00    -0.214 NA
ATOM     16  C   UNL     1       2.898  -0.429  -1.903  0.00  0.00    +0.128 A 
ATOM     17  C   UNL     1       2.292   1.098  -5.308  0.00  0.00    +0.064 C 
ATOM     18  H   UNL     1       0.808  -0.995  -4.862  0.00  0.00    +0.167 HD
BRANCH  14  19
ATOM     19  C   UNL     1       0.331  -2.761  -3.061  0.00  0.00    +0.017 A 
ATOM     20  C   UNL     1      -0.460  -2.983  -4.187  0.00  0.00    +0.012 A 
ATOM     21  C   UNL     1      -1.346  -4.041  -4.207  0.00  0.00    +0.004 A 
ATOM     22  C   UNL     1      -1.450  -4.880  -3.112  0.00  0.00    -0.050 A 
ATOM     23  C   UNL     1      -0.668  -4.664  -1.992  0.00  0.00    +0.004 A 
ATOM     24  C   UNL     1       0.226  -3.612  -1.963  0.00  0.00    +0.012 A 
ATOM     25  C   UNL     1      -2.420  -6.033  -3.139  0.00  0.00    +0.044 C 
ENDBRANCH  14  19
BRANCH  11  27
ATOM     26  C   UNL     1       5.275   1.176  -3.664  0.00  0.00    +0.009 C 
ATOM     27  C   UNL     1       3.971   1.589  -2.977  0.00  0.00    +0.037 C 
ENDBRANCH  11  27
ENDBRANCH   1  16
BRANCH   9  28
ATOM     28  C   UNL     1       7.409  -0.852   3.964  0.00  0.00    +0.046 A 
ATOM     29  C   UNL     1       6.870  -0.668   5.231  0.00  0.00    +0.024 A 
ATOM     30  C   UNL     1       7.698  -0.369   6.295  0.00  0.00    +0.002 A 
ATOM     31  C   UNL     1       9.062  -0.254   6.100  0.00  0.00    +0.001 A 
ATOM     32  C   UNL     1       9.602  -0.437   4.840  0.00  0.00    +0.014 A 
ATOM     33  C   UNL     1       8.779  -0.742   3.773  0.00  0.00    +0.076 A 
BRANCH  33  34
ATOM     34  C   UNL     1       9.369  -0.947   2.401  0.00  0.00    +0.419 C 
ATOM     35  F   UNL     1      10.757  -0.785   2.461  0.00  0.00    -0.166 F 
ATOM     36  F   UNL     1       9.069  -2.238   1.953  0.00  0.00    -0.166 F 
ATOM     37  F   UNL     1       8.827  -0.009   1.516  0.00  0.00    -0.166 F 
ENDBRANCH  33  34
ENDBRANCH   9  28
TORSDOF 5
