REMARK  Name = ZINC28249789
REMARK  11 active torsions:
REMARK  status: ('A' for Active; 'I' for Inactive)
REMARK    1  A    between atoms: C_1  and  C_2
REMARK    2  A    between atoms: C_5  and  N_9
REMARK    3  A    between atoms: C_6  and  C_8
REMARK    4  A    between atoms: C_10  and  C_12
REMARK    5  A    between atoms: C_14  and  C_35
REMARK    6  A    between atoms: C_16  and  C_24
REMARK    7  A    between atoms: C_18  and  C_22
REMARK    8  A    between atoms: C_18  and  O_23
REMARK    9  A    between atoms: N_26  and  C_27
REMARK   10  A    between atoms: C_30  and  C_34
REMARK   11  A    between atoms: C_32  and  C_33
REMARK                            x       y       z     vdW  Elec       q    Type
REMARK                         _______ _______ _______ _____ _____    ______ ____
ROOT
ATOM      1  C   UNL     1      -7.354   3.836  -0.041  0.00  0.00    +0.151 C 
ATOM      2  C   UNL     1      -6.067   3.005  -0.039  0.00  0.00    +0.071 C 
ATOM      3  C   UNL     1      -4.858   3.941  -0.099  0.00  0.00    +0.117 C 
ATOM      4  C   UNL     1      -4.869   4.718  -1.417  0.00  0.00    +0.082 C 
ATOM      5  C   UNL     1      -6.111   5.613  -1.470  0.00  0.00    +0.110 C 
ATOM      6  C   UNL     1      -7.334   4.752  -1.244  0.00  0.00    +0.149 C 
ATOM      7  O   UNL     1      -8.271   4.795  -2.005  0.00  0.00    -0.296 OA
ATOM      8  C   UNL     1      -3.611   5.584  -1.509  0.00  0.00    +0.042 C 
ENDROOT
BRANCH   2   9
ATOM      9  C   UNL     1      -6.002   2.181   1.220  0.00  0.00    +0.046 A 
ATOM     10  C   UNL     1      -6.500   2.698   2.402  0.00  0.00    +0.023 A 
ATOM     11  C   UNL     1      -6.440   1.929   3.554  0.00  0.00    +0.003 A 
ATOM     12  C   UNL     1      -5.869   0.667   3.477  0.00  0.00    +0.020 A 
ATOM     13  C   UNL     1      -5.388   0.220   2.261  0.00  0.00    +0.111 A 
ATOM     14  N   UNL     1      -5.466   0.977   1.184  0.00  0.00    -0.260 NA
ENDBRANCH   2   9
BRANCH   1  16
ATOM     15  N   UNL     1      -9.794   3.442  -0.151  0.00  0.00    -0.285 N 
ATOM     16  C   UNL     1      -8.550   2.923  -0.119  0.00  0.00    +0.228 C 
ATOM     17  O   UNL     1      -8.394   1.721  -0.154  0.00  0.00    -0.275 OA
ATOM     18  H   UNL     1      -9.933   4.533  -0.191  0.00  0.00    +0.155 HD
BRANCH  15  23
ATOM     19  C   UNL     1     -14.306   0.005  -0.076  0.00  0.00    +0.044 C 
ATOM     20  C   UNL     1     -13.107   0.918  -0.095  0.00  0.00    -0.050 A 
ATOM     21  C   UNL     1     -11.895   0.455  -0.574  0.00  0.00    +0.005 A 
ATOM     22  C   UNL     1     -10.797   1.291  -0.600  0.00  0.00    +0.024 A 
ATOM     23  C   UNL     1     -10.907   2.595  -0.132  0.00  0.00    +0.036 A 
ATOM     24  C   UNL     1     -12.125   3.056   0.348  0.00  0.00    -0.029 A 
ATOM     25  C   UNL     1     -13.222   2.217   0.365  0.00  0.00    +0.008 A 
ATOM     26  C   UNL     1     -12.250   4.472   0.850  0.00  0.00    +0.045 C 
ENDBRANCH  15  23
ENDBRANCH   1  16
BRANCH   3  27
ATOM     27  C   UNL     1      -3.591   3.129  -0.006  0.00  0.00    +0.224 C 
ATOM     28  O   UNL     1      -3.534   2.033  -0.523  0.00  0.00    -0.275 OA
ATOM     29  N   UNL     1      -2.522   3.622   0.650  0.00  0.00    -0.285 N 
ATOM     30  H   UNL     1      -2.603   4.573   1.197  0.00  0.00    +0.155 HD
BRANCH  29  31
ATOM     31  C   UNL     1      -1.310   2.923   0.636  0.00  0.00    +0.036 A 
ATOM     32  C   UNL     1      -1.021   2.051  -0.406  0.00  0.00    +0.024 A 
ATOM     33  C   UNL     1       0.174   1.359  -0.414  0.00  0.00    +0.005 A 
ATOM     34  C   UNL     1       1.087   1.542   0.608  0.00  0.00    -0.050 A 
ATOM     35  C   UNL     1       0.805   2.413   1.644  0.00  0.00    +0.008 A 
ATOM     36  C   UNL     1      -0.391   3.104   1.661  0.00  0.00    -0.029 A 
ATOM     37  C   UNL     1      -0.697   4.055   2.790  0.00  0.00    +0.045 C 
ATOM     38  C   UNL     1       2.393   0.789   0.593  0.00  0.00    +0.044 C 
ENDBRANCH  29  31
ENDBRANCH   3  27
BRANCH   4  39
ATOM     39  O   UNL     1      -4.896   3.799  -2.511  0.00  0.00    -0.388 OA
ATOM     40  H   UNL     1      -4.907   4.176  -3.545  0.00  0.00    +0.210 HD
ENDBRANCH   4  39
TORSDOF 6
