REMARK  Name = ZINC40661679
REMARK  10 active torsions:
REMARK  status: ('A' for Active; 'I' for Inactive)
REMARK    1  A    between atoms: C_1  and  C_2
REMARK    2  A    between atoms: C_2  and  N_3
REMARK    3  A    between atoms: N_3  and  C_4
REMARK    4  A    between atoms: C_8  and  C_10
REMARK    5  A    between atoms: C_12  and  N_27
REMARK    6  A    between atoms: C_13  and  N_17
REMARK    7  A    between atoms: N_17  and  C_18
REMARK    8  A    between atoms: N_17  and  C_20
REMARK    9  A    between atoms: C_18  and  C_19
REMARK   10  A    between atoms: C_24  and  C_26
REMARK                            x       y       z     vdW  Elec       q    Type
REMARK                         _______ _______ _______ _____ _____    ______ ____
ROOT
ATOM      1  N   UNL     1       0.675  -0.441  -1.173  0.00  0.00    -0.284 N 
ATOM      2  C   UNL     1      -0.112  -0.662  -2.298  0.00  0.00    +0.151 A 
ATOM      3  C   UNL     1      -1.472  -0.344  -2.286  0.00  0.00    +0.104 A 
ATOM      4  C   UNL     1      -2.215  -0.586  -3.443  0.00  0.00    +0.129 A 
ATOM      5  N   UNL     1      -1.604  -1.106  -4.505  0.00  0.00    -0.332 N 
ATOM      6  C   UNL     1      -0.319  -1.392  -4.474  0.00  0.00    +0.200 A 
ATOM      7  N   UNL     1       0.420  -1.175  -3.405  0.00  0.00    -0.220 NA
ATOM      8  H   UNL     1      -2.113  -1.278  -5.313  0.00  0.00    +0.168 HD
ENDROOT
BRANCH   1   9
ATOM      9  C   UNL     1       0.895  -1.476  -0.261  0.00  0.00    +0.035 A 
ATOM     10  C   UNL     1       0.420  -2.754  -0.529  0.00  0.00    +0.023 A 
ATOM     11  C   UNL     1       0.640  -3.774   0.375  0.00  0.00    +0.002 A 
ATOM     12  C   UNL     1       1.332  -3.526   1.546  0.00  0.00    +0.003 A 
ATOM     13  C   UNL     1       1.807  -2.255   1.816  0.00  0.00    -0.049 A 
ATOM     14  C   UNL     1       1.595  -1.231   0.914  0.00  0.00    +0.026 A 
ATOM     15  C   UNL     1       2.560  -1.989   3.094  0.00  0.00    +0.044 C 
ENDBRANCH   1   9
BRANCH   3  16
ATOM     16  N   UNL     1      -2.074   0.203  -1.143  0.00  0.00    -0.353 N 
ATOM     17  H   UNL     1      -1.564   0.297  -0.323  0.00  0.00    +0.143 HD
ATOM     18  H   UNL     1      -3.001   0.488  -1.172  0.00  0.00    +0.143 HD
ENDBRANCH   3  16
BRANCH   1  20
ATOM     19  C   UNL     1       2.706   0.886  -1.480  0.00  0.00    +0.025 C 
ATOM     20  C   UNL     1       1.273   0.877  -0.945  0.00  0.00    +0.109 C 
ENDBRANCH   1  20
BRANCH   4  21
ATOM     21  N   UNL     1      -3.573  -0.288  -3.484  0.00  0.00    -0.285 N 
BRANCH  21  22
ATOM     22  C   UNL     1      -4.507  -1.220  -3.024  0.00  0.00    +0.035 A 
ATOM     23  C   UNL     1      -4.078  -2.396  -2.421  0.00  0.00    +0.023 A 
ATOM     24  C   UNL     1      -5.004  -3.314  -1.967  0.00  0.00    +0.002 A 
ATOM     25  C   UNL     1      -6.357  -3.065  -2.113  0.00  0.00    +0.003 A 
ATOM     26  C   UNL     1      -6.787  -1.895  -2.713  0.00  0.00    -0.049 A 
ATOM     27  C   UNL     1      -5.866  -0.970  -3.164  0.00  0.00    +0.026 A 
ATOM     28  C   UNL     1      -8.262  -1.628  -2.870  0.00  0.00    +0.044 C 
ENDBRANCH  21  22
BRANCH  21  29
ATOM     29  C   UNL     1      -4.024   1.003  -4.010  0.00  0.00    +0.109 C 
ATOM     30  C   UNL     1      -4.381   0.854  -5.490  0.00  0.00    +0.025 C 
ENDBRANCH  21  29
ENDBRANCH   4  21
TORSDOF 6
