REMARK  Name = ZINC36039428
REMARK  10 active torsions:
REMARK  status: ('A' for Active; 'I' for Inactive)
REMARK    1  A    between atoms: C_1  and  O_2
REMARK    2  A    between atoms: O_2  and  C_3
REMARK    3  A    between atoms: C_6  and  N_11
REMARK    4  A    between atoms: C_8  and  O_9
REMARK    5  A    between atoms: O_9  and  C_10
REMARK    6  A    between atoms: C_13  and  C_24
REMARK    7  A    between atoms: N_16  and  C_17
REMARK    8  A    between atoms: C_17  and  C_19
REMARK    9  A    between atoms: C_19  and  N_20
REMARK   10  A    between atoms: N_20  and  C_21
REMARK                            x       y       z     vdW  Elec       q    Type
REMARK                         _______ _______ _______ _____ _____    ______ ____
ROOT
ATOM      1  N   UNL     1       2.461  -2.456  -4.307  0.00  0.00    -0.287 N 
ATOM      2  C   UNL     1       2.576  -3.816  -4.510  0.00  0.00    +0.120 A 
ATOM      3  C   UNL     1       3.235  -4.011  -5.666  0.00  0.00    +0.066 A 
ATOM      4  N   UNL     1       3.539  -2.765  -6.199  0.00  0.00    -0.326 N 
ATOM      5  C   UNL     1       3.051  -1.820  -5.354  0.00  0.00    +0.205 A 
ATOM      6  N   UNL     1       3.138  -0.500  -5.521  0.00  0.00    -0.148 NA
ATOM      7  H   UNL     1       4.012  -2.599  -7.030  0.00  0.00    +0.169 HD
ENDROOT
BRANCH   3   8
ATOM      8  C   UNL     1       3.576  -5.321  -6.263  0.00  0.00    -0.000 A 
ATOM      9  C   UNL     1       3.204  -6.502  -5.620  0.00  0.00    +0.011 A 
ATOM     10  C   UNL     1       3.525  -7.721  -6.182  0.00  0.00    +0.020 A 
ATOM     11  C   UNL     1       4.214  -7.773  -7.382  0.00  0.00    +0.041 A 
ATOM     12  C   UNL     1       4.586  -6.604  -8.024  0.00  0.00    +0.020 A 
ATOM     13  C   UNL     1       4.266  -5.380  -7.474  0.00  0.00    +0.011 A 
ATOM     14 CL   UNL     1       4.615  -9.310  -8.083  0.00  0.00    -0.084 Cl
ENDBRANCH   3   8
BRANCH   1  18
ATOM     15  C   UNL     1       0.606  -0.608  -1.057  0.00  0.00    +0.162 A 
ATOM     16  C   UNL     1       1.173   0.160  -2.062  0.00  0.00    +0.051 A 
ATOM     17  C   UNL     1       1.787  -0.452  -3.138  0.00  0.00    +0.030 A 
ATOM     18  C   UNL     1       1.838  -1.837  -3.215  0.00  0.00    +0.053 A 
ATOM     19  C   UNL     1       1.272  -2.609  -2.209  0.00  0.00    +0.075 A 
ATOM     20  C   UNL     1       0.661  -1.996  -1.128  0.00  0.00    +0.163 A 
BRANCH  15  22
ATOM     21  C   UNL     1      -0.017   1.425   0.010  0.00  0.00    +0.277 C 
ATOM     22  O   UNL     1       0.002  -0.004   0.002  0.00  0.00    -0.491 OA
ENDBRANCH  15  22
BRANCH  20  23
ATOM     23  O   UNL     1       0.111  -2.751  -0.139  0.00  0.00    -0.491 OA
ATOM     24  C   UNL     1       0.204  -4.170  -0.278  0.00  0.00    +0.277 C 
ENDBRANCH  20  23
ENDBRANCH   1  18
BRANCH   6  25
ATOM     25  C   UNL     1       3.744  -0.005  -6.594  0.00  0.00    +0.222 C 
ATOM     26  O   UNL     1       4.219  -0.755  -7.424  0.00  0.00    -0.276 OA
BRANCH  25  27
ATOM     27  C   UNL     1       3.842   1.487  -6.782  0.00  0.00    +0.017 C 
BRANCH  27  28
ATOM     28  N   UNL     1       4.551   1.777  -8.035  0.00  0.00    +0.387 N 
ATOM     29  H   UNL     1       5.478   1.381  -7.996  0.00  0.00    -0.085 HD
ATOM     30  H   UNL     1       4.045   1.373  -8.809  0.00  0.00    -0.085 HD
BRANCH  28  31
ATOM     31  C   UNL     1       4.647   3.231  -8.219  0.00  0.00    -0.071 C 
ATOM     32  C   UNL     1       3.930   3.839  -9.426  0.00  0.00    -0.017 C 
ATOM     33  C   UNL     1       5.457   3.741  -9.413  0.00  0.00    -0.017 C 
ENDBRANCH  28  31
ENDBRANCH  27  28
ENDBRANCH  25  27
ENDBRANCH   6  25
TORSDOF 8
