REMARK  Name = ZINC01375601
REMARK  14 active torsions:
REMARK  status: ('A' for Active; 'I' for Inactive)
REMARK    1  A    between atoms: C_1  and  C_2
REMARK    2  A    between atoms: C_2  and  C_3
REMARK    3  A    between atoms: C_3  and  C_5
REMARK    4  A    between atoms: C_3  and  N_17
REMARK    5  A    between atoms: N_9  and  C_10
REMARK    6  A    between atoms: C_10  and  C_11
REMARK    7  A    between atoms: N_17  and  C_18
REMARK    8  A    between atoms: N_17  and  C_27
REMARK    9  A    between atoms: C_18  and  C_19
REMARK   10  A    between atoms: C_24  and  O_25
REMARK   11  A    between atoms: O_25  and  C_26
REMARK   12  A    between atoms: C_27  and  C_28
REMARK   13  A    between atoms: C_31  and  C_41
REMARK   14  A    between atoms: C_34  and  C_40
REMARK                            x       y       z     vdW  Elec       q    Type
REMARK                         _______ _______ _______ _____ _____    ______ ____
ROOT
ATOM      1  N   UNL     1      -2.949   0.480  -1.429  0.00  0.00    -0.284 NA
ENDROOT
BRANCH   1   2
ATOM      2  C   UNL     1      -4.164   1.147  -0.943  0.00  0.00    +0.127 C 
BRANCH   2   3
ATOM      3  C   UNL     1      -5.132   0.112  -0.429  0.00  0.00    +0.169 A 
ATOM      4  N   UNL     1      -5.457  -1.015  -1.014  0.00  0.00    -0.112 NA
ATOM      5  N   UNL     1      -6.309  -1.622  -0.263  0.00  0.00    -0.023 NA
ATOM      6  N   UNL     1      -6.543  -0.908   0.783  0.00  0.00    -0.044 NA
ATOM      7  N   UNL     1      -5.836   0.169   0.717  0.00  0.00    -0.223 N 
BRANCH   7   8
ATOM      8  C   UNL     1      -5.806   1.252   1.704  0.00  0.00    +0.182 C 
BRANCH   8   9
ATOM      9  C   UNL     1      -6.856   2.276   1.358  0.00  0.00    -0.026 A 
ATOM     10  C   UNL     1      -6.539   3.339   0.533  0.00  0.00    +0.005 A 
ATOM     11  C   UNL     1      -7.504   4.276   0.212  0.00  0.00    +0.000 A 
ATOM     12  C   UNL     1      -8.782   4.156   0.725  0.00  0.00    +0.000 A 
ATOM     13  C   UNL     1      -9.097   3.096   1.555  0.00  0.00    +0.000 A 
ATOM     14  C   UNL     1      -8.134   2.156   1.871  0.00  0.00    +0.005 A 
ENDBRANCH   8   9
ENDBRANCH   7   8
ENDBRANCH   2   3
BRANCH   2  16
ATOM     15  C   UNL     1      -5.208   0.958  -3.205  0.00  0.00    +0.006 C 
ATOM     16  C   UNL     1      -4.812   1.926  -2.089  0.00  0.00    +0.023 C 
ENDBRANCH   2  16
ENDBRANCH   1   2
BRANCH   1  17
ATOM     17  C   UNL     1      -2.125   0.005  -0.309  0.00  0.00    +0.124 C 
BRANCH  17  18
ATOM     18  C   UNL     1      -2.745  -1.236   0.280  0.00  0.00    +0.008 A 
ATOM     19  C   UNL     1      -3.354  -1.183   1.519  0.00  0.00    +0.008 A 
ATOM     20  C   UNL     1      -3.924  -2.320   2.059  0.00  0.00    +0.001 A 
ATOM     21  C   UNL     1      -3.887  -3.514   1.361  0.00  0.00    +0.004 A 
ATOM     22  C   UNL     1      -3.284  -3.571   0.120  0.00  0.00    +0.046 A 
ATOM     23  C   UNL     1      -2.706  -2.431  -0.422  0.00  0.00    +0.124 A 
BRANCH  23  24
ATOM     24  O   UNL     1      -2.107  -2.486  -1.641  0.00  0.00    -0.495 OA
ATOM     25  C   UNL     1      -2.007  -3.771  -2.257  0.00  0.00    +0.277 C 
ENDBRANCH  23  24
ENDBRANCH  17  18
ENDBRANCH   1  17
BRANCH   1  26
ATOM     26  C   UNL     1      -2.178   1.369  -2.309  0.00  0.00    +0.126 C 
BRANCH  26  27
ATOM     27  C   UNL     1      -1.054   0.593  -2.946  0.00  0.00    +0.032 A 
ATOM     28  C   UNL     1      -1.232   0.021  -4.162  0.00  0.00    +0.020 A 
ATOM     29  C   UNL     1      -0.119  -0.722  -4.756  0.00  0.00    +0.002 A 
ATOM     30  C   UNL     1      -0.241  -1.329  -6.010  0.00  0.00    -0.041 A 
ATOM     31  C   UNL     1       0.816  -2.018  -6.535  0.00  0.00    +0.004 A 
ATOM     32  C   UNL     1       2.009  -2.122  -5.834  0.00  0.00    +0.005 A 
ATOM     33  C   UNL     1       2.152  -1.533  -4.596  0.00  0.00    -0.026 A 
ATOM     34  C   UNL     1       1.090  -0.825  -4.042  0.00  0.00    +0.052 A 
ATOM     35  N   UNL     1       1.206  -0.224  -2.807  0.00  0.00    -0.322 N 
ATOM     36  H   UNL     1       2.147  -0.300  -2.244  0.00  0.00    +0.169 HD
ATOM     37  C   UNL     1       0.179   0.460  -2.272  0.00  0.00    +0.254 A 
ATOM     38  O   UNL     1       0.316   0.978  -1.177  0.00  0.00    -0.268 OA
ATOM     39  C   UNL     1       3.454  -1.653  -3.846  0.00  0.00    +0.046 C 
ATOM     40  C   UNL     1      -1.532  -1.222  -6.780  0.00  0.00    +0.044 C 
ENDBRANCH  26  27
ENDBRANCH   1  26
TORSDOF 10
