REMARK  Name = ZINC27693020
REMARK  10 active torsions:
REMARK  status: ('A' for Active; 'I' for Inactive)
REMARK    1  A    between atoms: C_4  and  C_7
REMARK    2  A    between atoms: C_7  and  C_8
REMARK    3  A    between atoms: N_16  and  C_17
REMARK    4  A    between atoms: C_17  and  C_18
REMARK    5  A    between atoms: C_18  and  C_20
REMARK    6  A    between atoms: C_18  and  O_35
REMARK    7  A    between atoms: C_20  and  N_21
REMARK    8  A    between atoms: N_21  and  C_22
REMARK    9  A    between atoms: N_21  and  C_29
REMARK   10  A    between atoms: C_22  and  C_23
REMARK                            x       y       z     vdW  Elec       q    Type
REMARK                         _______ _______ _______ _____ _____    ______ ____
ROOT
ATOM      1  C   UNL     1       0.579  -0.078  -2.045  0.00  0.00    +0.118 C 
ENDROOT
BRANCH   1   2
ATOM      2  O   UNL     1       0.934   0.160  -0.681  0.00  0.00    -0.392 OA
ATOM      3  H   UNL     1       0.202  -0.027   0.119  0.00  0.00    +0.210 HD
ENDBRANCH   1   2
BRANCH   1   4
ATOM      4  C   UNL     1       1.767   0.259  -2.947  0.00  0.00    +0.153 C 
BRANCH   4  13
ATOM      5  C   UNL     1       3.094  -1.861  -3.275  0.00  0.00    +0.115 A 
ATOM      6  N   UNL     1       4.162  -2.419  -2.783  0.00  0.00    -0.232 NA
ATOM      7  C   UNL     1       4.696  -1.617  -1.826  0.00  0.00    +0.089 A 
ATOM      8  C   UNL     1       5.815  -1.722  -0.996  0.00  0.00    +0.030 A 
ATOM      9  C   UNL     1       6.110  -0.716  -0.120  0.00  0.00    +0.002 A 
ATOM     10  C   UNL     1       5.300   0.408  -0.035  0.00  0.00    +0.002 A 
ATOM     11  C   UNL     1       4.189   0.531  -0.841  0.00  0.00    +0.028 A 
ATOM     12  C   UNL     1       3.878  -0.478  -1.743  0.00  0.00    +0.069 A 
ATOM     13  N   UNL     1       2.870  -0.664  -2.668  0.00  0.00    -0.325 N 
BRANCH   5  14
ATOM     14  C   UNL     1       2.232  -2.453  -4.359  0.00  0.00    +0.109 C 
BRANCH  14  18
ATOM     15  C   UNL     1       3.663  -1.177  -8.176  0.00  0.00    +0.000 A 
ATOM     16  C   UNL     1       4.151  -2.339  -7.608  0.00  0.00    +0.000 A 
ATOM     17  C   UNL     1       3.688  -2.752  -6.373  0.00  0.00    +0.004 A 
ATOM     18  C   UNL     1       2.737  -2.003  -5.705  0.00  0.00    -0.040 A 
ATOM     19  C   UNL     1       2.245  -0.844  -6.276  0.00  0.00    +0.004 A 
ATOM     20  C   UNL     1       2.712  -0.428  -7.508  0.00  0.00    +0.000 A 
ENDBRANCH  14  18
ENDBRANCH   5  14
ENDBRANCH   4  13
ENDBRANCH   1   4
BRANCH   1  21
ATOM     21  C   UNL     1      -0.614   0.802  -2.422  0.00  0.00    -0.045 C 
BRANCH  21  22
ATOM     22  N   UNL     1      -1.803   0.360  -1.681  0.00  0.00    +0.386 N 
ATOM     23  H   UNL     1      -1.796  -0.740  -1.657  0.00  0.00    -0.081 HD
BRANCH  22  24
ATOM     24  C   UNL     1      -1.769   0.843  -0.294  0.00  0.00    -0.068 C 
ATOM     25  C   UNL     1      -2.991   0.315   0.459  0.00  0.00    -0.015 C 
ATOM     26  C   UNL     1      -2.956   0.819   1.904  0.00  0.00    -0.002 C 
ATOM     27  C   UNL     1      -2.974   2.348   1.912  0.00  0.00    -0.000 C 
ATOM     28  C   UNL     1      -1.751   2.876   1.158  0.00  0.00    -0.002 C 
ATOM     29  C   UNL     1      -1.787   2.373  -0.287  0.00  0.00    -0.015 C 
ENDBRANCH  22  24
BRANCH  22  30
ATOM     30  C   UNL     1      -3.034   0.788  -2.358  0.00  0.00    -0.043 C 
BRANCH  30  31
ATOM     31  C   UNL     1      -4.163  -0.136  -1.980  0.00  0.00    -0.064 A 
ATOM     32  C   UNL     1      -3.946  -1.500  -1.911  0.00  0.00    +0.002 A 
ATOM     33  C   UNL     1      -4.980  -2.347  -1.560  0.00  0.00    +0.000 A 
ATOM     34  C   UNL     1      -6.233  -1.832  -1.287  0.00  0.00    +0.000 A 
ATOM     35  C   UNL     1      -6.452  -0.469  -1.361  0.00  0.00    +0.000 A 
ATOM     36  C   UNL     1      -5.417   0.379  -1.708  0.00  0.00    +0.002 A 
ENDBRANCH  30  31
ENDBRANCH  22  30
ENDBRANCH  21  22
ENDBRANCH   1  21
TORSDOF 10
