REMARK  Name = ZINC15911320
REMARK  9 active torsions:
REMARK  status: ('A' for Active; 'I' for Inactive)
REMARK    1  A    between atoms: C_1  and  C_2
REMARK    2  A    between atoms: C_5  and  C_9
REMARK    3  A    between atoms: C_7  and  C_8
REMARK    4  A    between atoms: N_13  and  C_14
REMARK    5  A    between atoms: N_15  and  N_16
REMARK    6  A    between atoms: C_17  and  C_18
REMARK    7  A    between atoms: C_21  and  O_26
REMARK    8  A    between atoms: C_22  and  O_25
REMARK    9  A    between atoms: C_23  and  O_24
REMARK                            x       y       z     vdW  Elec       q    Type
REMARK                         _______ _______ _______ _____ _____    ______ ____
ROOT
ATOM      1  C   UNL     1       3.522   2.140   0.119  0.00  0.00    +0.082 A 
ATOM      2  C   UNL     1       3.500   3.484   0.009  0.00  0.00    +0.077 A 
ATOM      3  S   UNL     1       5.237   3.894   0.044  0.00  0.00    -0.056 S 
ATOM      4  C   UNL     1       5.882   2.236   0.205  0.00  0.00    +0.189 A 
ATOM      5  N   UNL     1       7.126   1.837   0.287  0.00  0.00    -0.263 NA
ATOM      6  C   UNL     1       8.214   2.817   0.250  0.00  0.00    +0.173 C 
ATOM      7  N   UNL     1       4.722   1.488   0.225  0.00  0.00    -0.208 N 
ENDROOT
BRANCH   1  12
ATOM      8  C   UNL     1      -1.401  -0.840   0.167  0.00  0.00    +0.044 C 
ATOM      9  C   UNL     1      -0.112  -0.059   0.155  0.00  0.00    -0.047 A 
ATOM     10  C   UNL     1       0.986  -0.532   0.852  0.00  0.00    +0.004 A 
ATOM     11  C   UNL     1       2.169   0.178   0.845  0.00  0.00    +0.010 A 
ATOM     12  C   UNL     1       2.257   1.375   0.132  0.00  0.00    +0.001 A 
ATOM     13  C   UNL     1       1.146   1.845  -0.569  0.00  0.00    +0.013 A 
ATOM     14  C   UNL     1      -0.032   1.126  -0.553  0.00  0.00    -0.047 A 
ATOM     15  C   UNL     1      -1.230   1.630  -1.315  0.00  0.00    +0.044 C 
ENDBRANCH   1  12
BRANCH   7  16
ATOM     16  N   UNL     1       4.771   0.093   0.346  0.00  0.00    -0.172 NA
ATOM     17  C   UNL     1       5.800  -0.474   0.900  0.00  0.00    +0.145 C 
BRANCH  17  18
ATOM     18  C   UNL     1       5.908  -1.943   0.921  0.00  0.00    +0.040 A 
ATOM     19  C   UNL     1       6.957  -2.560   1.609  0.00  0.00    +0.017 A 
ATOM     20  C   UNL     1       7.053  -3.934   1.632  0.00  0.00    +0.050 A 
ATOM     21  C   UNL     1       6.117  -4.713   0.963  0.00  0.00    +0.162 A 
ATOM     22  C   UNL     1       5.072  -4.110   0.270  0.00  0.00    +0.201 A 
ATOM     23  C   UNL     1       4.963  -2.728   0.246  0.00  0.00    +0.171 A 
BRANCH  23  24
ATOM     24  O   UNL     1       3.944  -2.136  -0.431  0.00  0.00    -0.503 OA
ATOM     25  H   UNL     1       4.119  -2.008  -1.373  0.00  0.00    +0.292 HD
ENDBRANCH  23  24
BRANCH  22  26
ATOM     26  O   UNL     1       4.157  -4.877  -0.383  0.00  0.00    -0.501 OA
ATOM     27  H   UNL     1       4.391  -5.072  -1.301  0.00  0.00    +0.292 HD
ENDBRANCH  22  26
BRANCH  21  28
ATOM     28  O   UNL     1       6.221  -6.068   0.987  0.00  0.00    -0.503 OA
ATOM     29  H   UNL     1       6.750  -6.434   0.265  0.00  0.00    +0.292 HD
ENDBRANCH  21  28
ENDBRANCH  17  18
ENDBRANCH   7  16
TORSDOF 6
