REMARK  Name = ZINC43221114
REMARK  7 active torsions:
REMARK  status: ('A' for Active; 'I' for Inactive)
REMARK    1  A    between atoms: C_1  and  C_2
REMARK    2  A    between atoms: C_2  and  C_4
REMARK    3  A    between atoms: C_7  and  N_10
REMARK    4  A    between atoms: C_15  and  C_33
REMARK    5  A    between atoms: C_18  and  C_23
REMARK    6  A    between atoms: C_18  and  C_30
REMARK    7  A    between atoms: C_23  and  C_24
REMARK                            x       y       z     vdW  Elec       q    Type
REMARK                         _______ _______ _______ _____ _____    ______ ____
ROOT
ATOM      1  N   UNL     1      -4.800  -3.061   0.219  0.00  0.00    -0.210 N 
ATOM      2  C   UNL     1      -6.008  -2.408   0.198  0.00  0.00    +0.232 C 
ATOM      3  O   UNL     1      -6.206  -1.226   0.017  0.00  0.00    -0.274 OA
ATOM      4  C   UNL     1      -6.988  -3.438   0.439  0.00  0.00    +0.111 C 
ATOM      5  C   UNL     1      -8.424  -3.707   0.250  0.00  0.00    +0.098 C 
ATOM      6  N   UNL     1      -8.515  -5.171   0.582  0.00  0.00    -0.293 NA
ATOM      7  C   UNL     1      -7.162  -5.771   0.382  0.00  0.00    +0.138 C 
ATOM      8  C   UNL     1      -6.342  -4.671  -0.309  0.00  0.00    +0.121 C 
ATOM      9  C   UNL     1      -4.934  -4.420   0.155  0.00  0.00    +0.232 C 
ATOM     10  O   UNL     1      -4.093  -5.251   0.421  0.00  0.00    -0.274 OA
ATOM     11  H   UNL     1      -8.835  -5.308   1.529  0.00  0.00    +0.124 HD
ENDROOT
BRANCH   5  12
ATOM     12  C   UNL     1      -9.255  -2.886   1.202  0.00  0.00    -0.022 A 
ATOM     13  C   UNL     1      -8.672  -2.286   2.276  0.00  0.00    +0.006 A 
ATOM     14  C   UNL     1      -9.424  -1.523   3.167  0.00  0.00    +0.001 A 
ATOM     15  C   UNL     1     -10.763  -1.356   2.989  0.00  0.00    +0.008 A 
ATOM     16  C   UNL     1     -11.400  -1.960   1.891  0.00  0.00    -0.018 A 
ATOM     17  C   UNL     1     -10.633  -2.731   0.982  0.00  0.00    -0.013 A 
ATOM     18  C   UNL     1     -11.269  -3.330  -0.120  0.00  0.00    +0.009 A 
ATOM     19  C   UNL     1     -12.607  -3.157  -0.301  0.00  0.00    +0.001 A 
ATOM     20  C   UNL     1     -13.359  -2.393   0.590  0.00  0.00    +0.001 A 
ATOM     21  C   UNL     1     -12.780  -1.810   1.675  0.00  0.00    +0.008 A 
ENDBRANCH   5  12
BRANCH   1  25
ATOM     22  C   UNL     1      -1.122  -1.111   0.437  0.00  0.00    +0.017 A 
ATOM     23  C   UNL     1      -2.310  -0.370   0.426  0.00  0.00    +0.013 A 
ATOM     24  C   UNL     1      -3.522  -1.019   0.353  0.00  0.00    +0.024 A 
ATOM     25  C   UNL     1      -3.568  -2.408   0.292  0.00  0.00    +0.044 A 
ATOM     26  C   UNL     1      -2.390  -3.148   0.302  0.00  0.00    +0.024 A 
ATOM     27  C   UNL     1      -1.173  -2.509   0.368  0.00  0.00    +0.013 A 
BRANCH  22  29
ATOM     28  C   UNL     1       0.226   1.080   0.588  0.00  0.00    +0.091 C 
ATOM     29  C   UNL     1       0.174  -0.424   0.514  0.00  0.00    +0.160 C 
ATOM     30  O   UNL     1       1.202  -1.067   0.519  0.00  0.00    -0.292 OA
ENDBRANCH  22  29
ENDBRANCH   1  25
BRANCH   7  31
ATOM     31  C   UNL     1      -7.254  -6.978  -0.515  0.00  0.00    +0.377 C 
ATOM     32  O   UNL     1      -8.338  -7.343  -0.938  0.00  0.00    -0.244 OA
ATOM     33  O   UNL     1      -6.244  -7.591  -0.818  0.00  0.00    -0.244 OA
ENDBRANCH   7  31
BRANCH   7  34
ATOM     34  C   UNL     1      -6.549  -6.156   1.730  0.00  0.00    +0.069 C 
BRANCH  34  35
ATOM     35  C   UNL     1      -7.418  -7.188   2.400  0.00  0.00    -0.045 A 
ATOM     36  C   UNL     1      -8.444  -6.790   3.236  0.00  0.00    +0.004 A 
ATOM     37  C   UNL     1      -9.242  -7.737   3.852  0.00  0.00    +0.000 A 
ATOM     38  C   UNL     1      -9.013  -9.082   3.630  0.00  0.00    +0.000 A 
ATOM     39  C   UNL     1      -7.988  -9.480   2.793  0.00  0.00    +0.000 A 
ATOM     40  C   UNL     1      -7.193  -8.533   2.175  0.00  0.00    +0.004 A 
ENDBRANCH  34  35
ENDBRANCH   7  34
TORSDOF 6
