REMARK  Name = ZINC02203867
REMARK  11 active torsions:
REMARK  status: ('A' for Active; 'I' for Inactive)
REMARK    1  A    between atoms: C_1  and  C_2
REMARK    2  A    between atoms: C_3  and  N_15
REMARK    3  A    between atoms: N_6  and  C_9
REMARK    4  A    between atoms: N_7  and  C_8
REMARK    5  A    between atoms: N_17  and  N_27
REMARK    6  A    between atoms: C_20  and  C_23
REMARK    7  A    between atoms: C_23  and  C_24
REMARK    8  A    between atoms: C_28  and  C_29
REMARK    9  A    between atoms: C_32  and  O_37
REMARK   10  A    between atoms: C_33  and  O_35
REMARK   11  A    between atoms: O_35  and  C_36
REMARK                            x       y       z     vdW  Elec       q    Type
REMARK                         _______ _______ _______ _____ _____    ______ ____
ROOT
ATOM      1  N   UNL     1      -0.030  -0.175  -2.383  0.00  0.00    -0.217 NA
ATOM      2  C   UNL     1       0.445  -0.872  -3.384  0.00  0.00    +0.185 C 
ATOM      3  N   UNL     1       0.554  -0.497  -4.711  0.00  0.00    -0.135 N 
ATOM      4  C   UNL     1       1.057  -1.300  -5.633  0.00  0.00    +0.255 C 
ATOM      5  O   UNL     1       1.151  -0.967  -6.796  0.00  0.00    -0.272 OA
ATOM      6  C   UNL     1       1.510  -2.667  -5.147  0.00  0.00    +0.153 C 
ATOM      7  S   UNL     1       1.113  -2.529  -3.355  0.00  0.00    -0.075 S 
ENDROOT
BRANCH   1  10
ATOM      8  C   UNL     1      -2.375  -0.290  -0.420  0.00  0.00    +0.067 C 
ATOM      9  C   UNL     1      -0.954  -0.737  -0.193  0.00  0.00    +0.064 A 
ATOM     10  C   UNL     1       0.056  -0.665  -1.101  0.00  0.00    +0.153 A 
ATOM     11  C   UNL     1       1.256  -1.209  -0.452  0.00  0.00    +0.298 A 
ATOM     12  O   UNL     1       2.364  -1.312  -0.947  0.00  0.00    -0.264 OA
ATOM     13  N   UNL     1       0.897  -1.573   0.796  0.00  0.00    -0.215 N 
ATOM     14  N   UNL     1      -0.461  -1.280   0.964  0.00  0.00    -0.282 N 
ATOM     15  C   UNL     1      -1.235  -1.520   2.184  0.00  0.00    +0.171 C 
BRANCH  13  16
ATOM     16  C   UNL     1       1.738  -2.140   1.758  0.00  0.00    +0.067 A 
ATOM     17  C   UNL     1       1.329  -3.264   2.464  0.00  0.00    +0.028 A 
ATOM     18  C   UNL     1       2.162  -3.822   3.414  0.00  0.00    +0.002 A 
ATOM     19  C   UNL     1       3.402  -3.262   3.662  0.00  0.00    +0.000 A 
ATOM     20  C   UNL     1       3.812  -2.143   2.962  0.00  0.00    +0.002 A 
ATOM     21  C   UNL     1       2.986  -1.584   2.006  0.00  0.00    +0.028 A 
ENDBRANCH  13  16
ENDBRANCH   1  10
BRANCH   3  22
ATOM     22  N   UNL     1       0.117   0.778  -5.092  0.00  0.00    -0.178 NA
ATOM     23  C   UNL     1      -0.276   1.625  -4.190  0.00  0.00    +0.139 C 
BRANCH  23  24
ATOM     24  C   UNL     1      -0.879   2.908  -4.596  0.00  0.00    -0.002 A 
ATOM     25  C   UNL     1      -1.032   3.211  -5.952  0.00  0.00    +0.013 A 
ATOM     26  C   UNL     1      -1.596   4.411  -6.330  0.00  0.00    +0.050 A 
ATOM     27  C   UNL     1      -2.011   5.320  -5.367  0.00  0.00    +0.158 A 
ATOM     28  C   UNL     1      -1.860   5.025  -4.014  0.00  0.00    +0.162 A 
ATOM     29  C   UNL     1      -1.302   3.821  -3.627  0.00  0.00    +0.058 A 
BRANCH  28  30
ATOM     30  O   UNL     1      -2.267   5.919  -3.073  0.00  0.00    -0.491 OA
ATOM     31  C   UNL     1      -2.083   5.550  -1.705  0.00  0.00    +0.277 C 
ENDBRANCH  28  30
BRANCH  27  32
ATOM     32  O   UNL     1      -2.565   6.502  -5.745  0.00  0.00    -0.503 OA
ATOM     33  H   UNL     1      -3.526   6.471  -5.847  0.00  0.00    +0.292 HD
ENDBRANCH  27  32
ENDBRANCH  23  24
ENDBRANCH   3  22
BRANCH   6  34
ATOM     34  C   UNL     1       0.708  -3.787  -5.814  0.00  0.00    +0.149 C 
BRANCH  34  35
ATOM     35  C   UNL     1       1.269  -5.123  -5.399  0.00  0.00    +0.358 C 
ATOM     36  O   UNL     1       2.222  -5.174  -4.639  0.00  0.00    -0.246 OA
ATOM     37  O   UNL     1       0.770  -6.151  -5.822  0.00  0.00    -0.246 OA
ENDBRANCH  34  35
ENDBRANCH   6  34
TORSDOF 8
