REMARK  Name = ZINC09500990
REMARK  9 active torsions:
REMARK  status: ('A' for Active; 'I' for Inactive)
REMARK    1  A    between atoms: C_4  and  C_7
REMARK    2  A    between atoms: C_7  and  N_45
REMARK    3  A    between atoms: C_8  and  C_9
REMARK    4  A    between atoms: C_8  and  N_45
REMARK    5  A    between atoms: C_9  and  C_10
REMARK    6  A    between atoms: C_13  and  C_14
REMARK    7  A    between atoms: C_13  and  N_45
REMARK    8  A    between atoms: N_16  and  C_17
REMARK    9  A    between atoms: C_18  and  C_22
REMARK                            x       y       z     vdW  Elec       q    Type
REMARK                         _______ _______ _______ _____ _____    ______ ____
ROOT
ATOM      1  N   UNL     1       0.019  -0.606   1.455  0.00  0.00    +0.388 N 
ATOM      2  H   UNL     1       0.707  -0.282   2.145  0.00  0.00    -0.081 HD
ENDROOT
BRANCH   1   3
ATOM      3  C   UNL     1       0.351  -0.026   0.136  0.00  0.00    -0.042 C 
BRANCH   3   7
ATOM      4  C   UNL     1       0.801   4.200   0.563  0.00  0.00    +0.000 A 
ATOM      5  C   UNL     1       1.891   3.367   0.741  0.00  0.00    +0.000 A 
ATOM      6  C   UNL     1       1.745   2.000   0.603  0.00  0.00    +0.002 A 
ATOM      7  C   UNL     1       0.510   1.465   0.287  0.00  0.00    -0.064 A 
ATOM      8  C   UNL     1      -0.578   2.298   0.104  0.00  0.00    +0.002 A 
ATOM      9  C   UNL     1      -0.433   3.665   0.246  0.00  0.00    +0.000 A 
ENDBRANCH   3   7
ENDBRANCH   1   3
BRANCH   1  10
ATOM     10  C   UNL     1      -1.328  -0.165   1.876  0.00  0.00    -0.068 C 
BRANCH  10  11
ATOM     11  C   UNL     1      -2.380  -0.605   0.856  0.00  0.00    +0.077 C 
BRANCH  11  12
ATOM     12  C   UNL     1      -3.735  -0.105   1.285  0.00  0.00    +0.209 C 
ATOM     13  O   UNL     1      -3.849   0.540   2.306  0.00  0.00    -0.276 OA
ATOM     14  N   UNL     1      -4.822  -0.374   0.534  0.00  0.00    -0.329 N 
ATOM     15  H   UNL     1      -4.731  -0.890  -0.282  0.00  0.00    +0.145 HD
ATOM     16  H   UNL     1      -5.694  -0.052   0.810  0.00  0.00    +0.145 HD
ENDBRANCH  11  12
ENDBRANCH  10  11
ENDBRANCH   1  10
BRANCH   1  17
ATOM     17  C   UNL     1       0.068  -2.082   1.385  0.00  0.00    +0.019 C 
BRANCH  17  18
ATOM     18  C   UNL     1       0.087  -2.632   2.788  0.00  0.00    +0.201 C 
ATOM     19  O   UNL     1       0.153  -1.878   3.735  0.00  0.00    -0.278 OA
ATOM     20  N   UNL     1       0.030  -3.964   2.990  0.00  0.00    -0.281 N 
ATOM     21  H   UNL     1      -0.023  -4.567   2.232  0.00  0.00    +0.155 HD
BRANCH  20  22
ATOM     22  C   UNL     1       0.047  -4.471   4.280  0.00  0.00    +0.084 A 
ATOM     23  C   UNL     1      -0.008  -5.798   4.687  0.00  0.00    +0.065 A 
ATOM     24  C   UNL     1       0.031  -6.044   6.109  0.00  0.00    +0.022 A 
ATOM     25  C   UNL     1       0.108  -4.970   6.916  0.00  0.00    +0.048 A 
ATOM     26  S   UNL     1       0.136  -3.602   5.776  0.00  0.00    -0.081 S 
BRANCH  23  27
ATOM     27  C   UNL     1      -0.099  -6.896   3.719  0.00  0.00    +0.244 C 
ATOM     28  O   UNL     1      -0.127  -6.655   2.527  0.00  0.00    -0.270 OA
ATOM     29  N   UNL     1      -0.151  -8.172   4.151  0.00  0.00    -0.325 N 
ATOM     30  H   UNL     1      -0.128  -8.364   5.101  0.00  0.00    +0.145 HD
ATOM     31  H   UNL     1      -0.211  -8.898   3.510  0.00  0.00    +0.145 HD
ENDBRANCH  23  27
ENDBRANCH  20  22
ENDBRANCH  17  18
ENDBRANCH   1  17
TORSDOF 9
