REMARK  Name = ZINC19814181
REMARK  9 active torsions:
REMARK  status: ('A' for Active; 'I' for Inactive)
REMARK    1  A    between atoms: C_1  and  C_2
REMARK    2  A    between atoms: C_2  and  C_3
REMARK    3  A    between atoms: C_6  and  N_9
REMARK    4  A    between atoms: C_13  and  C_14
REMARK    5  A    between atoms: C_16  and  C_32
REMARK    6  A    between atoms: N_17  and  C_20
REMARK    7  A    between atoms: C_18  and  C_19
REMARK    8  A    between atoms: C_22  and  C_29
REMARK    9  A    between atoms: C_24  and  C_26
REMARK                            x       y       z     vdW  Elec       q    Type
REMARK                         _______ _______ _______ _____ _____    ______ ____
ROOT
ATOM      1  C   UNL     1       6.748  -2.370  -4.770  0.00  0.00    -0.003 A 
ATOM      2  C   UNL     1       6.283  -2.098  -3.401  0.00  0.00    +0.031 A 
ATOM      3  C   UNL     1       7.385  -1.967  -2.646  0.00  0.00    +0.022 A 
ATOM      4  N   UNL     1       8.493  -2.135  -3.430  0.00  0.00    -0.317 N 
ATOM      5  C   UNL     1       8.135  -2.383  -4.704  0.00  0.00    +0.028 A 
ATOM      6  C   UNL     1       9.075  -2.628  -5.856  0.00  0.00    +0.064 C 
ATOM      7  C   UNL     1       7.399  -1.680  -1.167  0.00  0.00    +0.064 C 
ENDROOT
BRANCH   1  12
ATOM      8  N   UNL     1       3.454  -5.003  -4.657  0.00  0.00    -0.188 N 
ATOM      9  C   UNL     1       4.559  -4.227  -4.648  0.00  0.00    +0.264 C 
ATOM     10  O   UNL     1       5.305  -4.206  -3.686  0.00  0.00    -0.269 OA
ATOM     11  C   UNL     1       4.833  -3.407  -5.842  0.00  0.00    +0.102 C 
ATOM     12  C   UNL     1       5.948  -2.581  -5.916  0.00  0.00    +0.028 C 
ATOM     13  C   UNL     1       3.873  -3.502  -6.951  0.00  0.00    +0.276 C 
ATOM     14  O   UNL     1       4.051  -2.784  -8.081  0.00  0.00    -0.268 OA
ATOM     15  N   UNL     1       2.833  -4.307  -6.818  0.00  0.00    -0.123 NA
ATOM     16  C   UNL     1       2.636  -5.030  -5.718  0.00  0.00    +0.340 C 
ATOM     17  O   UNL     1       1.656  -5.753  -5.672  0.00  0.00    -0.250 OA
BRANCH   8  21
ATOM     18  C   UNL     1       2.582  -7.364  -1.334  0.00  0.00    -0.048 A 
ATOM     19  C   UNL     1       3.712  -7.623  -2.088  0.00  0.00    +0.005 A 
ATOM     20  C   UNL     1       4.004  -6.843  -3.189  0.00  0.00    +0.024 A 
ATOM     21  C   UNL     1       3.161  -5.797  -3.540  0.00  0.00    +0.046 A 
ATOM     22  C   UNL     1       2.027  -5.539  -2.781  0.00  0.00    +0.024 A 
ATOM     23  C   UNL     1       1.738  -6.326  -1.684  0.00  0.00    +0.005 A 
BRANCH  18  25
ATOM     24  C   UNL     1       1.404  -9.405  -0.563  0.00  0.00    +0.009 C 
ATOM     25  C   UNL     1       2.267  -8.217  -0.133  0.00  0.00    +0.032 C 
ENDBRANCH  18  25
ENDBRANCH   8  21
ENDBRANCH   1  12
BRANCH   4  26
ATOM     26  C   UNL     1       9.816  -2.064  -2.971  0.00  0.00    +0.048 A 
ATOM     27  C   UNL     1      10.650  -1.050  -3.418  0.00  0.00    +0.041 A 
ATOM     28  C   UNL     1      11.969  -0.975  -2.963  0.00  0.00    +0.066 A 
ATOM     29  C   UNL     1      12.446  -1.923  -2.058  0.00  0.00    +0.030 A 
ATOM     30  C   UNL     1      11.605  -2.941  -1.611  0.00  0.00    +0.066 A 
ATOM     31  C   UNL     1      10.286  -3.005  -2.067  0.00  0.00    +0.041 A 
BRANCH  30  32
ATOM     32  C   UNL     1      12.105  -3.946  -0.653  0.00  0.00    +0.387 C 
ATOM     33  O   UNL     1      13.258  -3.886  -0.251  0.00  0.00    -0.241 OA
ATOM     34  O   UNL     1      11.367  -4.838  -0.262  0.00  0.00    -0.241 OA
ENDBRANCH  30  32
BRANCH  28  35
ATOM     35  C   UNL     1      12.855   0.104  -3.439  0.00  0.00    +0.387 C 
ATOM     36  O   UNL     1      12.435   0.934  -4.233  0.00  0.00    -0.241 OA
ATOM     37  O   UNL     1      14.009   0.168  -3.040  0.00  0.00    -0.241 OA
ENDBRANCH  28  35
ENDBRANCH   4  26
TORSDOF 6
