REMARK  Name = ZINC49716071
REMARK  3 active torsions:
REMARK  status: ('A' for Active; 'I' for Inactive)
REMARK    1  A    between atoms: C_5  and  S_8
REMARK    2  A    between atoms: C_6  and  N_7
REMARK    3  A    between atoms: S_8  and  N_11
REMARK                            x       y       z     vdW  Elec       q    Type
REMARK                         _______ _______ _______ _____ _____    ______ ____
ROOT
ATOM      1  C   UNL     1       2.284   1.433   0.452  0.00  0.00    +0.040 A 
ATOM      2  C   UNL     1       1.010   1.959   0.556  0.00  0.00    +0.021 A 
ATOM      3  C   UNL     1      -0.078   1.235   0.101  0.00  0.00    +0.032 A 
ATOM      4  C   UNL     1       0.105  -0.017  -0.459  0.00  0.00    +0.047 A 
ATOM      5  C   UNL     1       1.377  -0.547  -0.566  0.00  0.00    +0.140 A 
ATOM      6  C   UNL     1       2.471   0.177  -0.110  0.00  0.00    +0.053 A 
ATOM      7 BR   UNL     1      -1.385  -1.002  -1.079  0.00  0.00    -0.048 Br
ATOM      8 BR   UNL     1       0.753   3.669   1.321  0.00  0.00    -0.050 Br
ENDROOT
BRANCH   6   9
ATOM      9  N   UNL     1       3.757  -0.357  -0.217  0.00  0.00    -0.356 N 
ATOM     10  H   UNL     1       4.529   0.231  -0.208  0.00  0.00    +0.142 HD
ATOM     11  H   UNL     1       3.879  -1.316  -0.300  0.00  0.00    +0.142 HD
ENDBRANCH   6   9
BRANCH   5  12
ATOM     12  S   UNL     1       1.610  -2.142  -1.279  0.00  0.00    +0.064 S 
ATOM     13  O   UNL     1       0.484  -2.382  -2.113  0.00  0.00    -0.153 OA
ATOM     14  O   UNL     1       2.943  -2.176  -1.770  0.00  0.00    -0.153 OA
BRANCH  12  15
ATOM     15  N   UNL     1       1.530  -3.245  -0.047  0.00  0.00    -0.173 NA
ATOM     16  C   UNL     1       2.656  -3.731   0.777  0.00  0.00    +0.113 C 
ATOM     17  C   UNL     1       2.029  -4.766   1.762  0.00  0.00    +0.006 C 
ATOM     18  C   UNL     1       1.202  -3.888   2.753  0.00  0.00    +0.006 C 
ATOM     19  C   UNL     1       0.060  -3.311   1.885  0.00  0.00    +0.021 C 
ATOM     20  C   UNL     1       0.306  -3.938   0.450  0.00  0.00    +0.080 C 
ATOM     21  C   UNL     1       0.894  -5.343   0.840  0.00  0.00    +0.025 C 
ENDBRANCH  12  15
ENDBRANCH   5  12
TORSDOF 3
