REMARK  Name = ZINC39918636
REMARK  12 active torsions:
REMARK  status: ('A' for Active; 'I' for Inactive)
REMARK    1  A    between atoms: C_1  and  C_2
REMARK    2  A    between atoms: N_8  and  C_9
REMARK    3  A    between atoms: C_9  and  C_10
REMARK    4  A    between atoms: C_15  and  O_16
REMARK    5  A    between atoms: O_16  and  C_17
REMARK    6  A    between atoms: N_25  and  C_28
REMARK    7  A    between atoms: C_28  and  C_29
REMARK    8  A    between atoms: C_28  and  C_30
REMARK    9  A    between atoms: C_31  and  C_35
REMARK   10  A    between atoms: C_32  and  N_34
REMARK   11  A    between atoms: C_35  and  O_37
REMARK   12  A    between atoms: O_37  and  C_38
REMARK                            x       y       z     vdW  Elec       q    Type
REMARK                         _______ _______ _______ _____ _____    ______ ____
ROOT
ATOM      1  C   UNL     1      -0.109   1.515  -0.008  0.00  0.00    +0.064 C 
ATOM      2  C   UNL     1      -0.044   0.010  -0.011  0.00  0.00    +0.023 A 
ATOM      3  C   UNL     1      -0.140  -0.658  -1.180  0.00  0.00    +0.068 A 
ATOM      4  C   UNL     1      -0.081  -2.067  -1.189  0.00  0.00    +0.142 A 
ATOM      5  C   UNL     1       0.078  -2.736   0.007  0.00  0.00    +0.083 A 
ATOM      6  C   UNL     1       0.173  -2.001   1.195  0.00  0.00    +0.260 A 
ATOM      7  O   UNL     1       0.314  -2.580   2.261  0.00  0.00    -0.267 OA
ATOM      8  N   UNL     1       0.116  -0.656   1.163  0.00  0.00    -0.308 N 
ATOM      9  C   UNL     1       0.150  -4.236   0.039  0.00  0.00    +0.144 C 
ATOM     10  C   UNL     1      -1.097  -4.819   0.628  0.00  0.00    -0.002 A 
ATOM     11  C   UNL     1      -2.413  -4.759   0.221  0.00  0.00    +0.007 A 
ATOM     12  C   UNL     1      -3.348  -5.422   1.010  0.00  0.00    +0.000 A 
ATOM     13  C   UNL     1      -2.972  -6.107   2.147  0.00  0.00    +0.002 A 
ATOM     14  C   UNL     1      -1.651  -6.172   2.562  0.00  0.00    +0.024 A 
ATOM     15  C   UNL     1      -0.703  -5.510   1.780  0.00  0.00    +0.041 A 
ATOM     16  N   UNL     1       0.666  -5.410   1.956  0.00  0.00    -0.267 N 
ATOM     17  C   UNL     1       1.249  -4.680   0.983  0.00  0.00    +0.240 C 
ATOM     18  O   UNL     1       2.431  -4.427   0.882  0.00  0.00    -0.274 OA
ATOM     19  C   UNL     1       0.403  -4.785  -1.335  0.00  0.00    +0.117 C 
ATOM     20  C   UNL     1       0.227  -4.015  -2.439  0.00  0.00    +0.196 C 
ATOM     21  O   UNL     1      -0.181  -2.738  -2.356  0.00  0.00    -0.441 OA
ENDROOT
BRANCH  16  22
ATOM     22  C   UNL     1       1.395  -6.023   3.069  0.00  0.00    +0.075 C 
ATOM     23  C   UNL     1       2.431  -7.006   2.519  0.00  0.00    +0.028 C 
ATOM     24  C   UNL     1       2.104  -4.934   3.876  0.00  0.00    +0.028 C 
ENDBRANCH  16  22
BRANCH  20  25
ATOM     25  N   UNL     1       0.472  -4.556  -3.673  0.00  0.00    -0.329 N 
ATOM     26  H   UNL     1       0.697  -5.496  -3.755  0.00  0.00    +0.145 HD
ATOM     27  H   UNL     1       0.422  -3.998  -4.465  0.00  0.00    +0.145 HD
ENDBRANCH  20  25
BRANCH  19  28
ATOM     28  C   UNL     1       0.829  -6.114  -1.480  0.00  0.00    +0.341 C 
ATOM     29  O   UNL     1       0.037  -7.027  -1.332  0.00  0.00    -0.245 OA
BRANCH  28  30
ATOM     30  O   UNL     1       2.118  -6.381  -1.784  0.00  0.00    -0.465 OA
ATOM     31  C   UNL     1       2.482  -7.756  -1.917  0.00  0.00    +0.280 C 
ENDBRANCH  28  30
ENDBRANCH  19  28
BRANCH   8  32
ATOM     32  C   UNL     1       0.221   0.100   2.413  0.00  0.00    +0.164 C 
BRANCH  32  33
ATOM     33  C   UNL     1      -1.144   0.228   3.039  0.00  0.00    +0.014 A 
ATOM     34  C   UNL     1      -1.912   1.351   2.799  0.00  0.00    +0.009 A 
ATOM     35  C   UNL     1      -3.164   1.469   3.373  0.00  0.00    +0.001 A 
ATOM     36  C   UNL     1      -3.651   0.464   4.189  0.00  0.00    +0.004 A 
ATOM     37  C   UNL     1      -2.887  -0.661   4.432  0.00  0.00    +0.046 A 
ATOM     38  C   UNL     1      -1.632  -0.784   3.852  0.00  0.00    +0.125 A 
BRANCH  38  39
ATOM     39  O   UNL     1      -0.881  -1.893   4.085  0.00  0.00    -0.495 OA
ATOM     40  C   UNL     1      -1.448  -2.894   4.932  0.00  0.00    +0.277 C 
ENDBRANCH  38  39
ENDBRANCH  32  33
ENDBRANCH   8  32
TORSDOF 7
