REMARK  Name = ZINC09282924
REMARK  8 active torsions:
REMARK  status: ('A' for Active; 'I' for Inactive)
REMARK    1  A    between atoms: C_1  and  N_52
REMARK    2  A    between atoms: C_2  and  C_3
REMARK    3  A    between atoms: C_2  and  N_52
REMARK    4  A    between atoms: C_10  and  C_11
REMARK    5  A    between atoms: C_10  and  N_52
REMARK    6  A    between atoms: N_13  and  C_14
REMARK    7  A    between atoms: C_18  and  S_20
REMARK    8  A    between atoms: S_20  and  N_23
REMARK                            x       y       z     vdW  Elec       q    Type
REMARK                         _______ _______ _______ _____ _____    ______ ____
ROOT
ATOM      1  C   UNL     1       3.718   1.801   0.171  0.00  0.00    +0.201 C 
ATOM      2  O   UNL     1       3.585   2.995   0.004  0.00  0.00    -0.278 OA
ATOM      3  N   UNL     1       2.661   1.050   0.539  0.00  0.00    -0.287 N 
ATOM      4  H   UNL     1       2.781   0.108   0.737  0.00  0.00    +0.155 HD
ENDROOT
BRANCH   3   5
ATOM      5  C   UNL     1       1.391   1.629   0.634  0.00  0.00    +0.035 A 
ATOM      6  C   UNL     1       1.026   2.653  -0.231  0.00  0.00    +0.023 A 
ATOM      7  C   UNL     1      -0.229   3.222  -0.135  0.00  0.00    +0.004 A 
ATOM      8  C   UNL     1      -1.122   2.774   0.822  0.00  0.00    +0.029 A 
ATOM      9  C   UNL     1      -0.763   1.752   1.681  0.00  0.00    +0.114 A 
ATOM     10  C   UNL     1       0.492   1.182   1.594  0.00  0.00    +0.052 A 
BRANCH   9  11
ATOM     11  S   UNL     1      -1.907   1.179   2.893  0.00  0.00    +0.100 S 
ATOM     12  O   UNL     1      -3.204   1.502   2.412  0.00  0.00    -0.146 OA
ATOM     13  O   UNL     1      -1.523  -0.150   3.218  0.00  0.00    -0.146 OA
BRANCH  11  14
ATOM     14  N   UNL     1      -1.669   2.087   4.258  0.00  0.00    -0.118 NA
ATOM     15  C   UNL     1      -2.386   1.871   5.312  0.00  0.00    +0.117 C 
ATOM     16  C   UNL     1      -3.475   0.827   5.424  0.00  0.00    +0.074 C 
ATOM     17  C   UNL     1      -3.709   0.683   6.947  0.00  0.00    +0.026 C 
ATOM     18  C   UNL     1      -3.251   2.061   7.473  0.00  0.00    +0.103 C 
ATOM     19  N   UNL     1      -2.280   2.555   6.491  0.00  0.00    -0.331 N 
ATOM     20  H   UNL     1      -1.647   3.272   6.655  0.00  0.00    +0.147 HD
ENDBRANCH  11  14
ENDBRANCH   9  11
ENDBRANCH   3   5
BRANCH   1  21
ATOM     21  C   UNL     1       5.065   1.157  -0.035  0.00  0.00    +0.019 C 
BRANCH  21  23
ATOM     22  C   UNL     1       6.274   3.136   0.662  0.00  0.00    -0.095 C 
ATOM     23  N   UNL     1       6.031   2.195  -0.451  0.00  0.00    +0.386 N 
ATOM     24  H   UNL     1       5.641   2.714  -1.247  0.00  0.00    -0.081 HD
BRANCH  23  25
ATOM     25  C   UNL     1       7.302   1.564  -0.866  0.00  0.00    -0.041 C 
BRANCH  25  26
ATOM     26  C   UNL     1       7.127   0.988  -2.248  0.00  0.00    -0.046 A 
ATOM     27  C   UNL     1       6.968  -0.375  -2.413  0.00  0.00    +0.003 A 
ATOM     28  C   UNL     1       6.803  -0.904  -3.679  0.00  0.00    +0.000 A 
ATOM     29  C   UNL     1       6.806  -0.070  -4.782  0.00  0.00    +0.001 A 
ATOM     30  C   UNL     1       6.969   1.292  -4.619  0.00  0.00    +0.020 A 
ATOM     31  C   UNL     1       7.129   1.822  -3.351  0.00  0.00    +0.042 A 
ATOM     32 CL   UNL     1       7.335   3.534  -3.145  0.00  0.00    -0.083 Cl
ENDBRANCH  25  26
ENDBRANCH  23  25
ENDBRANCH  21  23
ENDBRANCH   1  21
TORSDOF 7
