REMARK  Name = ZINC39836517
REMARK  12 active torsions:
REMARK  status: ('A' for Active; 'I' for Inactive)
REMARK    1  A    between atoms: C_1  and  C_2
REMARK    2  A    between atoms: C_5  and  O_9
REMARK    3  A    between atoms: C_7  and  C_8
REMARK    4  A    between atoms: O_9  and  C_10
REMARK    5  A    between atoms: C_10  and  C_11
REMARK    6  A    between atoms: N_13  and  C_14
REMARK    7  A    between atoms: C_15  and  C_28
REMARK    8  A    between atoms: C_20  and  C_24
REMARK    9  A    between atoms: C_24  and  C_25
REMARK   10  A    between atoms: C_24  and  C_26
REMARK   11  A    between atoms: C_24  and  C_27
REMARK   12  A    between atoms: N_30  and  C_31
REMARK                            x       y       z     vdW  Elec       q    Type
REMARK                         _______ _______ _______ _____ _____    ______ ____
ROOT
ATOM      1  C   UNL     1       0.102  -8.456  -2.007  0.00  0.00    +0.084 A 
ATOM      2  C   UNL     1       0.116  -9.439  -2.985  0.00  0.00    +0.069 A 
ATOM      3  C   UNL     1       0.134 -10.821  -2.538  0.00  0.00    -0.023 A 
ATOM      4  C   UNL     1       0.136 -10.967  -1.195  0.00  0.00    -0.004 A 
ATOM      5  S   UNL     1       0.121  -9.314  -0.564  0.00  0.00    -0.077 S 
ATOM      6  C   UNL     1       0.151 -12.254  -0.430  0.00  0.00    +0.046 C 
ATOM      7  C   UNL     1      -0.215 -13.392  -1.394  0.00  0.00    -0.000 C 
ATOM      8  C   UNL     1       0.620 -13.249  -2.670  0.00  0.00    +0.009 C 
ATOM      9  C   UNL     1       0.152 -12.027  -3.464  0.00  0.00    +0.037 C 
ENDROOT
BRANCH   1  12
ATOM     10  C   UNL     1       0.079  -6.266  -1.108  0.00  0.00    +0.255 C 
ATOM     11  O   UNL     1       0.090  -6.735   0.010  0.00  0.00    -0.272 OA
ATOM     12  N   UNL     1       0.084  -7.081  -2.182  0.00  0.00    -0.277 N 
ATOM     13  H   UNL     1       0.074  -6.705  -3.076  0.00  0.00    +0.155 HD
BRANCH  10  14
ATOM     14  C   UNL     1       0.058  -4.771  -1.298  0.00  0.00    +0.324 C 
BRANCH  14  15
ATOM     15  O   UNL     1       0.057  -4.129  -0.021  0.00  0.00    -0.483 OA
BRANCH  15  20
ATOM     16  C   UNL     1      -0.018   1.503   0.010  0.00  0.00    +0.044 C 
ATOM     17  C   UNL     1       0.002  -0.004   0.002  0.00  0.00    -0.047 A 
ATOM     18  C   UNL     1       0.006  -0.688  -1.200  0.00  0.00    +0.007 A 
ATOM     19  C   UNL     1       0.024  -2.069  -1.210  0.00  0.00    +0.046 A 
ATOM     20  C   UNL     1       0.039  -2.770  -0.013  0.00  0.00    +0.121 A 
ATOM     21  C   UNL     1       0.036  -2.082   1.191  0.00  0.00    +0.049 A 
ATOM     22  C   UNL     1       0.023  -0.701   1.196  0.00  0.00    -0.044 A 
ATOM     23  C   UNL     1       0.025   0.048   2.504  0.00  0.00    +0.044 C 
ENDBRANCH  15  20
ENDBRANCH  14  15
ENDBRANCH  10  14
ENDBRANCH   1  12
BRANCH   7  24
ATOM     24  C   UNL     1       0.082 -14.739  -0.733  0.00  0.00    -0.035 C 
ATOM     25  C   UNL     1      -0.744 -14.872   0.548  0.00  0.00    +0.011 C 
ATOM     26  C   UNL     1      -0.284 -15.871  -1.695  0.00  0.00    +0.011 C 
ATOM     27  C   UNL     1       1.571 -14.822  -0.390  0.00  0.00    +0.011 C 
ENDBRANCH   7  24
BRANCH   2  28
ATOM     28  C   UNL     1       0.111  -9.098  -4.411  0.00  0.00    +0.247 C 
ATOM     29  O   UNL     1       1.163  -8.942  -5.003  0.00  0.00    -0.270 OA
ATOM     30  N   UNL     1      -1.058  -8.957  -5.066  0.00  0.00    -0.307 N 
ATOM     31  H   UNL     1      -1.897  -9.081  -4.594  0.00  0.00    +0.149 HD
BRANCH  30  32
ATOM     32  C   UNL     1      -1.063  -8.616  -6.491  0.00  0.00    +0.096 C 
ATOM     33  C   UNL     1      -0.933  -9.902  -7.324  0.00  0.00    +0.046 C 
ATOM     34  C   UNL     1      -1.254  -9.554  -8.805  0.00  0.00    +0.168 C 
ATOM     35  S   UNL     1      -2.680  -8.410  -8.582  0.00  0.00    -0.029 S 
ATOM     36  O   UNL     1      -3.887  -9.158  -8.644  0.00  0.00    -0.174 OA
ATOM     37  O   UNL     1      -2.510  -7.286  -9.434  0.00  0.00    -0.174 OA
ATOM     38  C   UNL     1      -2.386  -7.894  -6.842  0.00  0.00    +0.188 C 
ENDBRANCH  30  32
ENDBRANCH   2  28
TORSDOF 7
