REMARK  Name = ZINC00863464
REMARK  12 active torsions:
REMARK  status: ('A' for Active; 'I' for Inactive)
REMARK    1  A    between atoms: C_1  and  C_2
REMARK    2  A    between atoms: C_3  and  C_33
REMARK    3  A    between atoms: C_4  and  C_25
REMARK    4  A    between atoms: C_10  and  C_15
REMARK    5  A    between atoms: C_18  and  O_23
REMARK    6  A    between atoms: C_19  and  O_21
REMARK    7  A    between atoms: O_21  and  C_22
REMARK    8  A    between atoms: O_23  and  C_24
REMARK    9  A    between atoms: C_33  and  O_35
REMARK   10  A    between atoms: O_35  and  C_36
REMARK   11  A    between atoms: C_36  and  C_37
REMARK   12  A    between atoms: C_36  and  C_38
REMARK                            x       y       z     vdW  Elec       q    Type
REMARK                         _______ _______ _______ _____ _____    ______ ____
ROOT
ATOM      1  C   UNL     1      -0.018   1.503   0.010  0.00  0.00    +0.061 C 
ATOM      2  C   UNL     1       0.002  -0.004   0.002  0.00  0.00    +0.016 C 
ATOM      3  C   UNL     1      -1.155  -0.688   0.004  0.00  0.00    +0.065 C 
ATOM      4  C   UNL     1      -1.174  -2.188   0.005  0.00  0.00    +0.094 C 
ATOM      5  C   UNL     1       0.160  -2.746  -0.422  0.00  0.00    +0.024 C 
ATOM      6  C   UNL     1       1.267  -1.974  -0.410  0.00  0.00    +0.016 C 
ATOM      7  N   UNL     1       1.198  -0.667  -0.013  0.00  0.00    -0.321 N 
ATOM      8  C   UNL     1       2.604  -2.524  -0.842  0.00  0.00    +0.059 C 
ATOM      9  C   UNL     1       2.670  -4.019  -0.526  0.00  0.00    +0.032 C 
ATOM     10  C   UNL     1       1.517  -4.721  -1.252  0.00  0.00    +0.088 C 
ATOM     11  C   UNL     1       0.218  -4.091  -0.830  0.00  0.00    +0.162 C 
ATOM     12  O   UNL     1      -0.799  -4.755  -0.843  0.00  0.00    -0.292 OA
ATOM     13  H   UNL     1       2.005  -0.207   0.265  0.00  0.00    +0.152 HD
ENDROOT
BRANCH   4  14
ATOM     14  C   UNL     1      -1.492  -2.678   1.395  0.00  0.00    -0.015 A 
ATOM     15  C   UNL     1      -0.665  -2.344   2.451  0.00  0.00    +0.006 A 
ATOM     16  C   UNL     1      -0.956  -2.792   3.726  0.00  0.00    +0.002 A 
ATOM     17  C   UNL     1      -2.073  -3.576   3.945  0.00  0.00    +0.021 A 
ATOM     18  C   UNL     1      -2.901  -3.911   2.890  0.00  0.00    +0.060 A 
ATOM     19  C   UNL     1      -2.613  -3.456   1.613  0.00  0.00    +0.063 A 
ATOM     20 CL   UNL     1      -3.656  -3.869   0.288  0.00  0.00    -0.082 Cl
ATOM     21 CL   UNL     1      -4.305  -4.895   3.165  0.00  0.00    -0.082 Cl
ENDBRANCH   4  14
BRANCH   9  22
ATOM     22  C   UNL     1       3.987  -4.579  -1.000  0.00  0.00    -0.040 A 
ATOM     23  C   UNL     1       4.329  -4.501  -2.337  0.00  0.00    +0.008 A 
ATOM     24  C   UNL     1       5.535  -5.012  -2.777  0.00  0.00    +0.049 A 
ATOM     25  C   UNL     1       6.406  -5.604  -1.876  0.00  0.00    +0.161 A 
ATOM     26  C   UNL     1       6.063  -5.683  -0.530  0.00  0.00    +0.162 A 
ATOM     27  C   UNL     1       4.854  -5.163  -0.095  0.00  0.00    +0.053 A 
BRANCH  26  28
ATOM     28  O   UNL     1       6.914  -6.263   0.358  0.00  0.00    -0.491 OA
ATOM     29  C   UNL     1       6.495  -6.307   1.724  0.00  0.00    +0.277 C 
ENDBRANCH  26  28
BRANCH  25  30
ATOM     30  O   UNL     1       7.593  -6.109  -2.307  0.00  0.00    -0.491 OA
ATOM     31  C   UNL     1       7.879  -5.994  -3.702  0.00  0.00    +0.277 C 
ENDBRANCH  25  30
ENDBRANCH   9  22
BRANCH   3  32
ATOM     32  C   UNL     1      -2.380   0.021   0.005  0.00  0.00    +0.338 C 
ATOM     33  O   UNL     1      -2.378   1.238   0.004  0.00  0.00    -0.245 OA
BRANCH  32  34
ATOM     34  O   UNL     1      -3.549  -0.652   0.007  0.00  0.00    -0.459 OA
BRANCH  34  35
ATOM     35  C   UNL     1      -4.747   0.128   0.008  0.00  0.00    +0.171 C 
ATOM     36  C   UNL     1      -5.176   0.405  -1.434  0.00  0.00    +0.052 C 
ATOM     37  C   UNL     1      -5.855  -0.640   0.731  0.00  0.00    +0.052 C 
ENDBRANCH  34  35
ENDBRANCH  32  34
ENDBRANCH   3  32
TORSDOF 7
