REMARK  Name = ZINC39435905
REMARK  7 active torsions:
REMARK  status: ('A' for Active; 'I' for Inactive)
REMARK    1  A    between atoms: C_1  and  C_2
REMARK    2  A    between atoms: C_6  and  C_12
REMARK    3  A    between atoms: C_10  and  C_11
REMARK    4  A    between atoms: C_12  and  C_29
REMARK    5  A    between atoms: C_13  and  C_14
REMARK    6  A    between atoms: C_17  and  C_19
REMARK    7  A    between atoms: C_23  and  C_25
REMARK                            x       y       z     vdW  Elec       q    Type
REMARK                         _______ _______ _______ _____ _____    ______ ____
ROOT
ATOM      1  C   UNL     1      -1.172  -5.090  -1.998  0.00  0.00    +0.075 C 
ATOM      2  C   UNL     1      -1.043  -6.255  -2.681  0.00  0.00    +0.064 C 
ENDROOT
BRANCH   1   8
ATOM      3  C   UNL     1      -0.018   1.503   0.010  0.00  0.00    +0.044 C 
ATOM      4  C   UNL     1       0.002  -0.004   0.002  0.00  0.00    -0.045 A 
ATOM      5  C   UNL     1       0.005  -0.645  -1.184  0.00  0.00    +0.031 A 
ATOM      6  C   UNL     1       0.025  -2.114  -1.215  0.00  0.00    +0.061 A 
ATOM      7  N   UNL     1       0.033  -2.979  -2.187  0.00  0.00    -0.359 N 
ATOM      8  C   UNL     1       0.054  -4.318  -1.586  0.00  0.00    +0.216 C 
ATOM      9  N   UNL     1       0.059  -4.118  -0.131  0.00  0.00    -0.359 N 
ATOM     10  C   UNL     1       0.042  -2.835   0.087  0.00  0.00    +0.061 A 
ATOM     11  C   UNL     1       0.037  -2.031   1.317  0.00  0.00    +0.031 A 
ATOM     12  C   UNL     1       0.023  -0.686   1.232  0.00  0.00    -0.045 A 
ATOM     13  C   UNL     1       0.024   0.120   2.506  0.00  0.00    +0.044 C 
ATOM     14  H   UNL     1       0.025  -2.776  -3.136  0.00  0.00    +0.162 HD
ATOM     15  H   UNL     1       0.072  -4.815   0.544  0.00  0.00    +0.162 HD
ENDBRANCH   1   8
BRANCH   2  16
ATOM     16  C   UNL     1      -2.194  -6.980  -3.069  0.00  0.00    +0.130 A 
ATOM     17  C   UNL     1      -2.206  -8.177  -3.759  0.00  0.00    +0.050 A 
ATOM     18  C   UNL     1      -3.548  -8.532  -3.928  0.00  0.00    +0.050 A 
ATOM     19  C   UNL     1      -4.299  -7.553  -3.342  0.00  0.00    +0.136 A 
ATOM     20  O   UNL     1      -3.473  -6.627  -2.823  0.00  0.00    -0.455 OA
BRANCH  19  21
ATOM     21  C   UNL     1      -5.774  -7.521  -3.283  0.00  0.00    +0.018 A 
ATOM     22  C   UNL     1      -6.521  -8.556  -3.855  0.00  0.00    +0.013 A 
ATOM     23  C   UNL     1      -7.899  -8.528  -3.801  0.00  0.00    +0.021 A 
ATOM     24  C   UNL     1      -8.553  -7.478  -3.183  0.00  0.00    +0.055 A 
ATOM     25  C   UNL     1      -7.818  -6.435  -2.607  0.00  0.00    +0.082 A 
ATOM     26  C   UNL     1      -6.424  -6.461  -2.654  0.00  0.00    +0.028 A 
ATOM     27 CL   UNL     1     -10.287  -7.452  -3.123  0.00  0.00    -0.083 Cl
BRANCH  25  28
ATOM     28  C   UNL     1      -8.515  -5.314  -1.949  0.00  0.00    +0.388 C 
ATOM     29  O   UNL     1      -7.872  -4.404  -1.446  0.00  0.00    -0.241 OA
ATOM     30  O   UNL     1      -9.737  -5.296  -1.906  0.00  0.00    -0.241 OA
ENDBRANCH  25  28
ENDBRANCH  19  21
ENDBRANCH   2  16
BRANCH   1  31
ATOM     31  C   UNL     1      -2.475  -4.594  -1.669  0.00  0.00    +0.099 C 
ATOM     32  N   UNL     1      -3.508  -4.201  -1.408  0.00  0.00    -0.191 NA
ENDBRANCH   1  31
TORSDOF 5
