REMARK  Name = ZINC22311370
REMARK  5 active torsions:
REMARK  status: ('A' for Active; 'I' for Inactive)
REMARK    1  A    between atoms: C_1  and  C_2
REMARK    2  A    between atoms: N_4  and  C_5
REMARK    3  A    between atoms: C_14  and  C_17
REMARK    4  A    between atoms: C_18  and  C_19
REMARK    5  A    between atoms: N_27  and  C_28
REMARK                            x       y       z     vdW  Elec       q    Type
REMARK                         _______ _______ _______ _____ _____    ______ ____
ROOT
ATOM      1  C   UNL     1      -4.819   4.687  -5.896  0.00  0.00    +0.033 C 
ATOM      2  C   UNL     1      -3.560   5.116  -5.638  0.00  0.00    +0.073 C 
ENDROOT
BRANCH   2   3
ATOM      3  C   UNL     1      -2.878   4.654  -4.489  0.00  0.00    +0.257 C 
ATOM      4  O   UNL     1      -3.453   3.945  -3.684  0.00  0.00    -0.267 OA
ATOM      5  N   UNL     1      -1.591   5.000  -4.285  0.00  0.00    -0.270 N 
ATOM      6  C   UNL     1      -0.982   5.889  -5.127  0.00  0.00    +0.096 A 
ATOM      7  C   UNL     1       0.306   6.242  -4.941  0.00  0.00    +0.018 A 
ATOM      8  C   UNL     1       1.046   5.703  -3.873  0.00  0.00    +0.005 A 
ATOM      9  C   UNL     1       0.460   4.822  -3.022  0.00  0.00    +0.044 A 
ATOM     10  C   UNL     1      -0.894   4.458  -3.225  0.00  0.00    +0.114 A 
ATOM     11  N   UNL     1      -1.479   3.607  -2.412  0.00  0.00    -0.368 N 
ATOM     12  H   UNL     1      -2.500   3.257  -2.625  0.00  0.00    +0.161 HD
BRANCH  11  13
ATOM     13  C   UNL     1      -0.772   3.124  -1.224  0.00  0.00    +0.081 C 
ATOM     14  C   UNL     1      -0.745   1.594  -1.233  0.00  0.00    +0.024 C 
ATOM     15  C   UNL     1      -0.006   1.090   0.009  0.00  0.00    +0.002 C 
ATOM     16  C   UNL     1      -0.729   1.579   1.266  0.00  0.00    +0.000 C 
ATOM     17  C   UNL     1      -0.756   3.109   1.275  0.00  0.00    +0.002 C 
ATOM     18  C   UNL     1      -1.495   3.613   0.033  0.00  0.00    +0.024 C 
ENDBRANCH  11  13
ENDBRANCH   2   3
BRANCH   1  25
ATOM     19  C   UNL     1      -3.485   8.837 -10.976  0.00  0.00    +0.110 C 
ATOM     20  C   UNL     1      -3.908   7.794  -9.974  0.00  0.00    +0.223 C 
ATOM     21  O   UNL     1      -3.111   7.375  -9.161  0.00  0.00    -0.275 OA
ATOM     22  N   UNL     1      -5.172   7.325  -9.982  0.00  0.00    -0.216 N 
ATOM     23  C   UNL     1      -5.592   6.444  -8.993  0.00  0.00    +0.172 A 
ATOM     24  N   UNL     1      -4.943   6.024  -7.928  0.00  0.00    -0.225 NA
ATOM     25  C   UNL     1      -5.526   5.166  -7.087  0.00  0.00    +0.073 A 
ATOM     26  C   UNL     1      -6.811   4.733  -7.368  0.00  0.00    +0.076 A 
ATOM     27  S   UNL     1      -7.151   5.588  -8.841  0.00  0.00    -0.059 S 
BRANCH  22  28
ATOM     28  C   UNL     1      -6.062   7.727 -10.987  0.00  0.00    +0.078 A 
ATOM     29  C   UNL     1      -6.852   8.854 -10.807  0.00  0.00    +0.027 A 
ATOM     30  C   UNL     1      -7.729   9.249 -11.799  0.00  0.00    +0.002 A 
ATOM     31  C   UNL     1      -7.821   8.522 -12.972  0.00  0.00    +0.003 A 
ATOM     32  C   UNL     1      -7.036   7.399 -13.157  0.00  0.00    +0.040 A 
ATOM     33  C   UNL     1      -6.152   7.001 -12.169  0.00  0.00    +0.145 A 
ATOM     34  F   UNL     1      -5.382   5.907 -12.352  0.00  0.00    -0.204 F 
ENDBRANCH  22  28
ENDBRANCH   1  25
TORSDOF 4
