REMARK  Name = ZINC15082332
REMARK  3 active torsions:
REMARK  status: ('A' for Active; 'I' for Inactive)
REMARK    1  A    between atoms: C_6  and  C_7
REMARK    2  A    between atoms: C_11  and  C_12
REMARK    3  A    between atoms: C_14  and  C_20
REMARK                            x       y       z     vdW  Elec       q    Type
REMARK                         _______ _______ _______ _____ _____    ______ ____
ROOT
ATOM      1  C   UNL     1       5.447  -0.949   2.421  0.00  0.00    +0.025 A 
ATOM      2  C   UNL     1       4.897  -0.537   1.207  0.00  0.00    +0.053 A 
ATOM      3  C   UNL     1       4.346   0.717   1.170  0.00  0.00    +0.020 A 
ATOM      4  S   UNL     1       4.572   1.355   2.749  0.00  0.00    -0.084 S 
ATOM      5  C   UNL     1       5.396  -0.046   3.488  0.00  0.00    +0.110 A 
ATOM      6  C   UNL     1       3.698   1.341  -0.026  0.00  0.00    +0.067 C 
ATOM      7  C   UNL     1       4.334   0.741  -1.286  0.00  0.00    +0.109 C 
ATOM      8  C   UNL     1       4.508  -0.744  -1.135  0.00  0.00    +0.218 C 
ATOM      9  O   UNL     1       4.310  -1.451  -2.100  0.00  0.00    -0.275 OA
ATOM     10  N   UNL     1       4.875  -1.324   0.020  0.00  0.00    -0.284 N 
ATOM     11  H   UNL     1       5.120  -2.262   0.045  0.00  0.00    +0.155 HD
ENDROOT
BRANCH   1  17
ATOM     12  C   UNL     1       5.271  -3.434   2.464  0.00  0.00    +0.011 A 
ATOM     13  C   UNL     1       5.848  -4.680   2.601  0.00  0.00    +0.039 A 
ATOM     14  C   UNL     1       7.205  -4.793   2.860  0.00  0.00    +0.123 A 
ATOM     15  C   UNL     1       7.990  -3.657   2.975  0.00  0.00    +0.039 A 
ATOM     16  C   UNL     1       7.425  -2.407   2.833  0.00  0.00    +0.011 A 
ATOM     17  C   UNL     1       6.059  -2.288   2.574  0.00  0.00    -0.015 A 
ATOM     18  F   UNL     1       7.763  -6.015   2.999  0.00  0.00    -0.205 F 
ENDBRANCH   1  17
BRANCH   6  19
ATOM     19  C   UNL     1       2.220   1.048  -0.013  0.00  0.00    -0.032 A 
ATOM     20  C   UNL     1       1.300   2.079   0.001  0.00  0.00    +0.012 A 
ATOM     21  C   UNL     1      -0.022   1.781   0.012  0.00  0.00    +0.045 A 
ATOM     22  S   UNL     1       0.002  -0.004   0.002  0.00  0.00    -0.105 S 
ATOM     23  C   UNL     1       1.773  -0.232  -0.016  0.00  0.00    +0.049 A 
ENDBRANCH   6  19
BRANCH   5  24
ATOM     24  C   UNL     1       5.874  -0.203   4.812  0.00  0.00    +0.394 C 
ATOM     25  O   UNL     1       6.417  -1.240   5.144  0.00  0.00    -0.240 OA
ATOM     26  O   UNL     1       5.727   0.797   5.706  0.00  0.00    -0.240 OA
ENDBRANCH   5  24
TORSDOF 3
