REMARK  Name = ZINC13893550
REMARK  8 active torsions:
REMARK  status: ('A' for Active; 'I' for Inactive)
REMARK    1  A    between atoms: C_1  and  N_2
REMARK    2  A    between atoms: C_6  and  C_7
REMARK    3  A    between atoms: N_8  and  N_9
REMARK    4  A    between atoms: C_10  and  C_12
REMARK    5  A    between atoms: C_12  and  S_13
REMARK    6  A    between atoms: S_13  and  C_14
REMARK    7  A    between atoms: C_17  and  C_26
REMARK    8  A    between atoms: N_18  and  C_19
REMARK                            x       y       z     vdW  Elec       q    Type
REMARK                         _______ _______ _______ _____ _____    ______ ____
ROOT
ATOM      1  C   UNL     1      -0.065   1.416  -0.845  0.00  0.00    +0.197 A 
ATOM      2  N   UNL     1      -0.095   0.221  -1.392  0.00  0.00    -0.122 NA
ATOM      3  N   UNL     1       1.094  -0.149  -1.710  0.00  0.00    -0.128 NA
ATOM      4  C   UNL     1       1.957   0.785  -1.387  0.00  0.00    +0.169 A 
ATOM      5  N   UNL     1       1.242   1.818  -0.822  0.00  0.00    -0.270 N 
ENDROOT
BRANCH   5   6
ATOM      6  C   UNL     1       1.748   3.029  -0.328  0.00  0.00    +0.051 A 
ATOM      7  C   UNL     1       2.352   3.934  -1.190  0.00  0.00    +0.028 A 
ATOM      8  C   UNL     1       2.844   5.128  -0.702  0.00  0.00    +0.022 A 
ATOM      9  C   UNL     1       2.747   5.418   0.648  0.00  0.00    +0.041 A 
ATOM     10  C   UNL     1       2.150   4.515   1.510  0.00  0.00    +0.022 A 
ATOM     11  C   UNL     1       1.651   3.322   1.026  0.00  0.00    +0.028 A 
ATOM     12 CL   UNL     1       3.374   6.917   1.260  0.00  0.00    -0.084 Cl
ENDBRANCH   5   6
BRANCH   4  13
ATOM     13  C   UNL     1       3.421   0.738  -1.590  0.00  0.00    +0.020 A 
ATOM     14  C   UNL     1       4.249   1.649  -0.933  0.00  0.00    +0.013 A 
ATOM     15  C   UNL     1       5.614   1.597  -1.123  0.00  0.00    +0.021 A 
ATOM     16  C   UNL     1       6.162   0.649  -1.972  0.00  0.00    +0.041 A 
ATOM     17  C   UNL     1       5.345  -0.254  -2.631  0.00  0.00    +0.021 A 
ATOM     18  C   UNL     1       3.979  -0.215  -2.445  0.00  0.00    +0.013 A 
ATOM     19 CL   UNL     1       7.881   0.595  -2.212  0.00  0.00    -0.084 Cl
ENDBRANCH   4  13
BRANCH   1  20
ATOM     20  S   UNL     1      -1.452   2.332  -0.258  0.00  0.00    -0.076 S 
BRANCH  20  21
ATOM     21  C   UNL     1      -2.782   1.165  -0.636  0.00  0.00    +0.174 C 
BRANCH  21  23
ATOM     22  N   UNL     1      -5.241   1.055  -0.393  0.00  0.00    -0.206 N 
ATOM     23  C   UNL     1      -4.103   1.752  -0.208  0.00  0.00    +0.242 C 
ATOM     24  O   UNL     1      -4.140   2.852   0.302  0.00  0.00    -0.273 OA
ATOM     25  H   UNL     1      -5.211   0.176  -0.801  0.00  0.00    +0.177 HD
BRANCH  22  27
ATOM     26  C   UNL     1      -7.550   0.881  -0.052  0.00  0.00    +0.156 C 
ATOM     27  N   UNL     1      -6.469   1.601   0.005  0.00  0.00    -0.186 NA
BRANCH  26  33
ATOM     28  C   UNL     1      -9.896  -1.094  -0.471  0.00  0.00    +0.149 C 
ATOM     29  N   UNL     1      -8.496  -1.462  -0.246  0.00  0.00    -0.349 N 
ATOM     30  C   UNL     1      -8.008  -2.732  -0.189  0.00  0.00    +0.086 A 
ATOM     31  C   UNL     1      -6.677  -2.677   0.038  0.00  0.00    +0.020 A 
ATOM     32  C   UNL     1      -6.311  -1.326   0.123  0.00  0.00    +0.029 A 
ATOM     33  C   UNL     1      -7.456  -0.583  -0.060  0.00  0.00    +0.061 A 
ENDBRANCH  26  33
ENDBRANCH  22  27
ENDBRANCH  21  23
ENDBRANCH  20  21
ENDBRANCH   1  20
TORSDOF 7
