REMARK  Name = ZINC23440259
REMARK  10 active torsions:
REMARK  status: ('A' for Active; 'I' for Inactive)
REMARK    1  A    between atoms: C_1  and  C_2
REMARK    2  A    between atoms: C_2  and  C_3
REMARK    3  A    between atoms: C_2  and  C_4
REMARK    4  A    between atoms: C_9  and  O_10
REMARK    5  A    between atoms: O_10  and  C_11
REMARK    6  A    between atoms: C_21  and  C_23
REMARK    7  A    between atoms: C_26  and  C_29
REMARK    8  A    between atoms: C_29  and  N_30
REMARK    9  A    between atoms: C_33  and  C_36
REMARK   10  A    between atoms: C_36  and  C_37
REMARK                            x       y       z     vdW  Elec       q    Type
REMARK                         _______ _______ _______ _____ _____    ______ ____
ROOT
ATOM      1  C   UNL     1      -1.352   3.537   0.084  0.00  0.00    +0.037 A 
ATOM      2  C   UNL     1      -0.258   4.225  -0.441  0.00  0.00    +0.013 A 
ATOM      3  C   UNL     1       1.003   3.671  -0.365  0.00  0.00    +0.002 A 
ATOM      4  C   UNL     1       1.186   2.441   0.240  0.00  0.00    -0.064 A 
ATOM      5  C   UNL     1       0.106   1.755   0.767  0.00  0.00    +0.002 A 
ATOM      6  C   UNL     1      -1.161   2.296   0.693  0.00  0.00    +0.013 A 
ENDROOT
BRANCH   1  15
ATOM      7  C   UNL     1      -5.861   1.945   1.416  0.00  0.00    +0.177 C 
ATOM      8  C   UNL     1      -5.904   3.452   1.110  0.00  0.00    +0.067 C 
ATOM      9  C   UNL     1      -5.208   3.703  -0.237  0.00  0.00    +0.080 C 
ATOM     10  C   UNL     1      -5.767   2.683  -1.256  0.00  0.00    +0.024 C 
ATOM     11  C   UNL     1      -4.855   1.447  -1.115  0.00  0.00    +0.024 C 
ATOM     12  C   UNL     1      -3.829   1.836  -0.030  0.00  0.00    +0.080 C 
ATOM     13  C   UNL     1      -4.418   1.440   1.333  0.00  0.00    +0.067 C 
ATOM     14  N   UNL     1      -3.786   3.317  -0.077  0.00  0.00    -0.291 N 
ATOM     15  C   UNL     1      -2.708   4.122   0.001  0.00  0.00    +0.247 C 
ATOM     16  O   UNL     1      -2.849   5.330   0.003  0.00  0.00    -0.270 OA
BRANCH   7  17
ATOM     17  O   UNL     1      -6.373   1.708   2.729  0.00  0.00    -0.488 OA
BRANCH  17  23
ATOM     18  C   UNL     1      -8.265   1.164   4.065  0.00  0.00    -0.003 A 
ATOM     19  C   UNL     1      -9.629   0.981   4.181  0.00  0.00    +0.007 A 
ATOM     20  C   UNL     1     -10.445   1.146   3.077  0.00  0.00    +0.001 A 
ATOM     21  C   UNL     1      -9.899   1.499   1.857  0.00  0.00    +0.004 A 
ATOM     22  C   UNL     1      -8.536   1.687   1.737  0.00  0.00    +0.046 A 
ATOM     23  C   UNL     1      -7.715   1.523   2.844  0.00  0.00    +0.124 A 
BRANCH  18  25
ATOM     24  C   UNL     1      -7.792   1.958   6.366  0.00  0.00    +0.012 C 
ATOM     25  C   UNL     1      -7.375   0.978   5.267  0.00  0.00    +0.016 C 
ATOM     26  C   UNL     1      -7.509  -0.455   5.785  0.00  0.00    +0.012 C 
ENDBRANCH  18  25
ENDBRANCH  17  23
ENDBRANCH   7  17
ENDBRANCH   1  15
BRANCH   4  27
ATOM     27  C   UNL     1       2.567   1.844   0.326  0.00  0.00    -0.043 C 
BRANCH  27  28
ATOM     28  N   UNL     1       3.212   2.278   1.572  0.00  0.00    +0.382 N 
ATOM     29  C   UNL     1       3.451   3.727   1.563  0.00  0.00    -0.078 C 
ATOM     30  C   UNL     1       3.988   4.165   2.928  0.00  0.00    -0.015 C 
ATOM     31  C   UNL     1       5.290   3.415   3.223  0.00  0.00    -0.010 C 
ATOM     32  C   UNL     1       5.024   1.908   3.178  0.00  0.00    -0.015 C 
ATOM     33  C   UNL     1       4.457   1.536   1.806  0.00  0.00    -0.078 C 
ATOM     34  H   UNL     1       2.527   2.057   2.404  0.00  0.00    -0.081 HD
BRANCH  31  35
ATOM     35  C   UNL     1       5.801   3.803   4.612  0.00  0.00    +0.038 C 
BRANCH  35  36
ATOM     36  C   UNL     1       6.179   5.262   4.619  0.00  0.00    -0.047 A 
ATOM     37  C   UNL     1       7.469   5.644   4.298  0.00  0.00    +0.003 A 
ATOM     38  C   UNL     1       7.814   6.982   4.300  0.00  0.00    +0.000 A 
ATOM     39  C   UNL     1       6.873   7.938   4.632  0.00  0.00    +0.000 A 
ATOM     40  C   UNL     1       5.585   7.556   4.958  0.00  0.00    +0.000 A 
ATOM     41  C   UNL     1       5.238   6.218   4.952  0.00  0.00    +0.003 A 
ENDBRANCH  35  36
ENDBRANCH  31  35
ENDBRANCH  27  28
ENDBRANCH   4  27
TORSDOF 8
