REMARK  Name = ZINC38551046
REMARK  9 active torsions:
REMARK  status: ('A' for Active; 'I' for Inactive)
REMARK    1  A    between atoms: C_1  and  C_2
REMARK    2  A    between atoms: C_6  and  N_8
REMARK    3  A    between atoms: N_8  and  C_9
REMARK    4  A    between atoms: C_9  and  C_11
REMARK    5  A    between atoms: C_9  and  C_19
REMARK    6  A    between atoms: C_14  and  O_17
REMARK    7  A    between atoms: O_17  and  C_18
REMARK    8  A    between atoms: C_23  and  N_24
REMARK    9  A    between atoms: C_25  and  C_27
REMARK                            x       y       z     vdW  Elec       q    Type
REMARK                         _______ _______ _______ _____ _____    ______ ____
ROOT
ATOM      1  C   UNL     1       0.230  -4.188   2.529  0.00  0.00    +0.135 C 
ENDROOT
BRANCH   1   2
ATOM      2  C   UNL     1      -1.024  -4.797   1.954  0.00  0.00    +0.009 A 
ATOM      3  C   UNL     1      -1.681  -5.819   2.639  0.00  0.00    -0.030 A 
ATOM      4  C   UNL     1      -2.805  -6.318   2.057  0.00  0.00    -0.005 A 
ATOM      5  S   UNL     1      -2.963  -5.378   0.562  0.00  0.00    -0.078 S 
ATOM      6  C   UNL     1      -1.519  -4.346   0.771  0.00  0.00    +0.078 A 
ATOM      7  C   UNL     1      -3.691  -7.407   2.570  0.00  0.00    +0.043 C 
ATOM      8  C   UNL     1      -2.945  -8.148   3.690  0.00  0.00    +0.005 C 
ATOM      9  C   UNL     1      -2.349  -7.115   4.651  0.00  0.00    +0.005 C 
ATOM     10  C   UNL     1      -1.194  -6.376   3.974  0.00  0.00    +0.036 C 
BRANCH   6  11
ATOM     11  N   UNL     1      -1.027  -3.341  -0.064  0.00  0.00    -0.273 N 
ATOM     12  C   UNL     1      -1.705  -2.998  -1.177  0.00  0.00    +0.284 C 
ATOM     13  O   UNL     1      -2.793  -3.495  -1.405  0.00  0.00    -0.266 OA
ATOM     14  H   UNL     1      -0.197  -2.891   0.157  0.00  0.00    +0.156 HD
BRANCH  12  15
ATOM     15  C   UNL     1      -1.133  -2.026  -2.113  0.00  0.00    +0.189 A 
ATOM     16  C   UNL     1      -1.750  -1.519  -3.221  0.00  0.00    +0.054 A 
ATOM     17  C   UNL     1      -0.843  -0.629  -3.817  0.00  0.00    +0.042 A 
ATOM     18  C   UNL     1       0.274  -0.631  -3.057  0.00  0.00    +0.196 A 
ATOM     19  O   UNL     1       0.094  -1.470  -2.028  0.00  0.00    -0.458 OA
ENDBRANCH  12  15
ENDBRANCH   6  11
ENDBRANCH   1   2
BRANCH   1  20
ATOM     20  C   UNL     1       1.432  -4.741   1.808  0.00  0.00    -0.023 A 
ATOM     21  C   UNL     1       1.905  -4.113   0.671  0.00  0.00    +0.009 A 
ATOM     22  C   UNL     1       3.007  -4.619   0.008  0.00  0.00    +0.046 A 
ATOM     23  C   UNL     1       3.640  -5.757   0.486  0.00  0.00    +0.120 A 
ATOM     24  C   UNL     1       3.164  -6.385   1.628  0.00  0.00    +0.046 A 
ATOM     25  C   UNL     1       2.065  -5.872   2.289  0.00  0.00    +0.009 A 
BRANCH  23  26
ATOM     26  O   UNL     1       4.724  -6.256  -0.164  0.00  0.00    -0.495 OA
ATOM     27  C   UNL     1       5.325  -7.431   0.384  0.00  0.00    +0.277 C 
ENDBRANCH  23  26
ENDBRANCH   1  20
BRANCH   1  28
ATOM     28  N   UNL     1       0.187  -2.733   2.362  0.00  0.00    -0.320 N 
ATOM     29  H   UNL     1       0.629  -2.319   1.604  0.00  0.00    +0.148 HD
BRANCH  28  35
ATOM     30  C   UNL     1      -0.937   1.652   3.919  0.00  0.00    +0.063 C 
ATOM     31  C   UNL     1      -1.045   0.155   4.061  0.00  0.00    +0.014 A 
ATOM     32  C   UNL     1      -1.796  -0.379   5.089  0.00  0.00    +0.021 A 
ATOM     33  C   UNL     1      -1.892  -1.758   5.215  0.00  0.00    +0.005 A 
ATOM     34  C   UNL     1      -1.226  -2.553   4.299  0.00  0.00    +0.041 A 
ATOM     35  C   UNL     1      -0.487  -1.947   3.288  0.00  0.00    +0.097 A 
ATOM     36  N   UNL     1      -0.425  -0.627   3.199  0.00  0.00    -0.347 N 
ATOM     37  H   UNL     1       0.093  -0.226   2.483  0.00  0.00    +0.167 HD
ENDBRANCH  28  35
ENDBRANCH   1  28
TORSDOF 7
