REMARK  Name = ZINC39967968
REMARK  9 active torsions:
REMARK  status: ('A' for Active; 'I' for Inactive)
REMARK    1  A    between atoms: C_1  and  O_2
REMARK    2  A    between atoms: O_2  and  C_3
REMARK    3  A    between atoms: C_5  and  C_13
REMARK    4  A    between atoms: C_6  and  O_12
REMARK    5  A    between atoms: C_7  and  N_9
REMARK    6  A    between atoms: C_13  and  C_14
REMARK    7  A    between atoms: C_13  and  C_27
REMARK    8  A    between atoms: CA_22  and  C_24
REMARK    9  A    between atoms: CA_35  and  C_37
REMARK                            x       y       z     vdW  Elec       q    Type
REMARK                         _______ _______ _______ _____ _____    ______ ____
ROOT
ATOM      1  C   UNL     1       1.323  -4.109  -2.285  0.00  0.00    +0.081 C 
ENDROOT
BRANCH   1   2
ATOM      2  C   UNL     1       2.050  -4.682  -1.096  0.00  0.00    -0.016 C 
ATOM      3  C   UNL     1       2.223  -5.991  -0.803  0.00  0.00    +0.001 A 
ATOM      4  C   UNL     1       1.801  -7.225  -1.477  0.00  0.00    +0.010 A 
ATOM      5  C   UNL     1       2.131  -8.417  -0.929  0.00  0.00    +0.001 A 
ATOM      6  C   UNL     1       2.863  -8.503   0.263  0.00  0.00    +0.002 A 
ATOM      7  C   UNL     1       3.285  -7.414   0.940  0.00  0.00    +0.026 A 
ATOM      8  C   UNL     1       2.996  -6.109   0.454  0.00  0.00    +0.043 A 
ATOM      9  N   UNL     1       3.289  -4.920   0.920  0.00  0.00    -0.368 N 
ATOM     10  CA  UNL     1       2.740  -3.911   0.007  0.00  0.00    +0.221 C 
ATOM     11  H   UNL     1       3.788  -4.737   1.731  0.00  0.00    +0.161 HD
BRANCH  10  12
ATOM     12  C   UNL     1       3.849  -3.066  -0.565  0.00  0.00    +0.382 C 
ATOM     13  O   UNL     1       3.619  -1.926  -0.931  0.00  0.00    -0.244 OA
ATOM     14  OXT UNL     1       4.975  -3.522  -0.662  0.00  0.00    -0.244 OA
ENDBRANCH  10  12
ENDBRANCH   1   2
BRANCH   1  15
ATOM     15  C   UNL     1       0.088  -4.927  -2.561  0.00  0.00    -0.016 C 
ATOM     16  C   UNL     1      -0.723  -5.508  -1.649  0.00  0.00    +0.001 A 
ATOM     17  C   UNL     1      -0.699  -5.552  -0.182  0.00  0.00    +0.010 A 
ATOM     18  C   UNL     1      -1.670  -6.231   0.470  0.00  0.00    +0.001 A 
ATOM     19  C   UNL     1      -2.696  -6.893  -0.218  0.00  0.00    +0.002 A 
ATOM     20  C   UNL     1      -2.786  -6.897  -1.565  0.00  0.00    +0.026 A 
ATOM     21  C   UNL     1      -1.818  -6.215  -2.352  0.00  0.00    +0.043 A 
ATOM     22  N   UNL     1      -1.688  -6.075  -3.649  0.00  0.00    -0.368 N 
ATOM     23  CA  UNL     1      -0.499  -5.259  -3.915  0.00  0.00    +0.221 C 
ATOM     24  H   UNL     1      -2.282  -6.447  -4.320  0.00  0.00    +0.161 HD
BRANCH  23  25
ATOM     25  C   UNL     1       0.494  -6.043  -4.733  0.00  0.00    +0.382 C 
ATOM     26  O   UNL     1       0.292  -7.222  -4.970  0.00  0.00    -0.244 OA
ATOM     27  OXT UNL     1       1.499  -5.500  -5.158  0.00  0.00    -0.244 OA
ENDBRANCH  23  25
ENDBRANCH   1  15
BRANCH   1  30
ATOM     28  C   UNL     1      -0.269  -1.094  -0.655  0.00  0.00    +0.123 A 
ATOM     29  C   UNL     1       0.095  -2.405  -0.925  0.00  0.00    +0.054 A 
ATOM     30  C   UNL     1       0.927  -2.684  -1.992  0.00  0.00    +0.011 A 
ATOM     31  C   UNL     1       1.397  -1.655  -2.793  0.00  0.00    +0.151 A 
ATOM     32  C   UNL     1       1.033  -0.344  -2.524  0.00  0.00    +0.171 A 
ATOM     33  C   UNL     1       0.196  -0.065  -1.460  0.00  0.00    +0.082 A 
BRANCH  32  34
ATOM     34  N   UNL     1       1.535   0.755  -3.378  0.00  0.00    +0.060 N 
ATOM     35  O   UNL     1       1.218   1.897  -3.143  0.00  0.00    -0.126 OA
ATOM     36  O   UNL     1       2.264   0.510  -4.312  0.00  0.00    -0.126 OA
ENDBRANCH  32  34
BRANCH  28  38
ATOM     37  C   UNL     1      -1.427   0.553   0.610  0.00  0.00    +0.277 C 
ATOM     38  O   UNL     1      -1.088  -0.818   0.395  0.00  0.00    -0.495 OA
ENDBRANCH  28  38
BRANCH  31  39
ATOM     39  O   UNL     1       2.217  -1.930  -3.843  0.00  0.00    -0.504 OA
ATOM     40  H   UNL     1       1.750  -2.098  -4.673  0.00  0.00    +0.292 HD
ENDBRANCH  31  39
ENDBRANCH   1  30
TORSDOF 8
