REMARK  Name = ZINC36683414
REMARK  3 active torsions:
REMARK  status: ('A' for Active; 'I' for Inactive)
REMARK    1  A    between atoms: C_1  and  C_2
REMARK    2  A    between atoms: C_5  and  N_9
REMARK    3  A    between atoms: C_15  and  N_18
REMARK                            x       y       z     vdW  Elec       q    Type
REMARK                         _______ _______ _______ _____ _____    ______ ____
ROOT
ATOM      1  N   UNL     1       0.057  -4.170  -0.021  0.00  0.00    -0.319 N 
ATOM      2  C   UNL     1      -1.109  -5.058  -0.026  0.00  0.00    +0.141 C 
ATOM      3  C   UNL     1      -0.603  -6.479  -0.034  0.00  0.00    -0.024 A 
ATOM      4  C   UNL     1      -1.279  -7.688  -0.041  0.00  0.00    +0.005 A 
ATOM      5  C   UNL     1      -0.578  -8.878  -0.046  0.00  0.00    +0.002 A 
ATOM      6  C   UNL     1       0.804  -8.867  -0.046  0.00  0.00    +0.023 A 
ATOM      7  C   UNL     1       1.485  -7.658  -0.040  0.00  0.00    +0.030 A 
ATOM      8  C   UNL     1       0.776  -6.461  -0.033  0.00  0.00    -0.005 A 
ATOM      9  C   UNL     1       1.246  -5.028  -0.032  0.00  0.00    +0.142 C 
ENDROOT
BRANCH   1  14
ATOM     10  C   UNL     1      -0.018   1.503   0.010  0.00  0.00    +0.044 C 
ATOM     11  C   UNL     1       0.002  -0.004   0.002  0.00  0.00    -0.048 A 
ATOM     12  C   UNL     1       0.006  -0.687  -1.200  0.00  0.00    +0.020 A 
ATOM     13  C   UNL     1       0.024  -2.069  -1.212  0.00  0.00    +0.040 A 
ATOM     14  C   UNL     1       0.039  -2.772  -0.013  0.00  0.00    +0.059 A 
ATOM     15  C   UNL     1       0.036  -2.082   1.193  0.00  0.00    +0.040 A 
ATOM     16  C   UNL     1       0.023  -0.700   1.197  0.00  0.00    +0.020 A 
ATOM     17 BR   UNL     1       0.056  -3.033   2.827  0.00  0.00    -0.048 Br
ATOM     18 BR   UNL     1       0.028  -3.002  -2.857  0.00  0.00    -0.048 Br
ENDBRANCH   1  14
BRANCH   7  19
ATOM     19  N   UNL     1       2.882  -7.643  -0.039  0.00  0.00    -0.358 N 
ATOM     20  H   UNL     1       3.376  -8.477  -0.043  0.00  0.00    +0.142 HD
ATOM     21  H   UNL     1       3.358  -6.798  -0.034  0.00  0.00    +0.142 HD
ENDBRANCH   7  19
TORSDOF 2
