REMARK  Name = ZINC35065357
REMARK  11 active torsions:
REMARK  status: ('A' for Active; 'I' for Inactive)
REMARK    1  A    between atoms: C_1  and  C_2
REMARK    2  A    between atoms: C_2  and  C_3
REMARK    3  A    between atoms: C_3  and  N_4
REMARK    4  A    between atoms: N_4  and  C_5
REMARK    5  A    between atoms: C_5  and  C_7
REMARK    6  A    between atoms: C_5  and  C_8
REMARK    7  A    between atoms: N_18  and  C_19
REMARK    8  A    between atoms: C_23  and  C_25
REMARK    9  A    between atoms: C_26  and  C_28
REMARK   10  A    between atoms: C_28  and  C_29
REMARK   11  A    between atoms: C_28  and  C_35
REMARK                            x       y       z     vdW  Elec       q    Type
REMARK                         _______ _______ _______ _____ _____    ______ ____
ROOT
ATOM      1  C   UNL     1      -2.760  -2.980  -1.918  0.00  0.00    +0.139 C 
ATOM      2  C   UNL     1      -4.155  -2.826  -2.527  0.00  0.00    +0.036 C 
ENDROOT
BRANCH   1   3
ATOM      3  C   UNL     1      -2.682  -2.189  -0.637  0.00  0.00    +0.138 A 
ATOM      4  N   UNL     1      -3.005  -0.932  -0.668  0.00  0.00    -0.231 NA
ATOM      5  C   UNL     1      -2.959  -0.158   0.445  0.00  0.00    +0.078 A 
ATOM      6  C   UNL     1      -3.307   1.194   0.412  0.00  0.00    +0.028 A 
ATOM      7  C   UNL     1      -3.246   1.942   1.565  0.00  0.00    +0.002 A 
ATOM      8  C   UNL     1      -2.841   1.370   2.764  0.00  0.00    +0.001 A 
ATOM      9  C   UNL     1      -2.492   0.038   2.822  0.00  0.00    +0.015 A 
ATOM     10  C   UNL     1      -2.548  -0.737   1.666  0.00  0.00    +0.065 A 
ATOM     11  C   UNL     1      -2.189  -2.163   1.668  0.00  0.00    +0.266 A 
ATOM     12  O   UNL     1      -1.827  -2.722   2.687  0.00  0.00    -0.267 OA
ATOM     13  N   UNL     1      -2.281  -2.830   0.494  0.00  0.00    -0.263 N 
BRANCH  13  14
ATOM     14  C   UNL     1      -1.955  -4.191   0.442  0.00  0.00    +0.051 A 
ATOM     15  C   UNL     1      -0.632  -4.595   0.561  0.00  0.00    +0.026 A 
ATOM     16  C   UNL     1      -0.314  -5.938   0.510  0.00  0.00    +0.002 A 
ATOM     17  C   UNL     1      -1.312  -6.880   0.341  0.00  0.00    +0.003 A 
ATOM     18  C   UNL     1      -2.630  -6.481   0.222  0.00  0.00    -0.048 A 
ATOM     19  C   UNL     1      -2.955  -5.140   0.278  0.00  0.00    +0.029 A 
ATOM     20  C   UNL     1      -3.715  -7.512   0.037  0.00  0.00    +0.044 C 
ENDBRANCH  13  14
ENDBRANCH   1   3
BRANCH   1  21
ATOM     21  N   UNL     1      -1.757  -2.481  -2.862  0.00  0.00    -0.291 N 
ATOM     22  C   UNL     1      -0.739  -3.276  -3.246  0.00  0.00    +0.228 C 
ATOM     23  O   UNL     1      -0.598  -4.369  -2.738  0.00  0.00    -0.275 OA
BRANCH  21  24
ATOM     24  C   UNL     1      -1.859  -1.117  -3.388  0.00  0.00    +0.108 C 
BRANCH  24  26
ATOM     25  C   UNL     1      -2.900   0.309  -5.155  0.00  0.00    +0.005 C 
ATOM     26  C   UNL     1      -2.695  -1.127  -4.669  0.00  0.00    +0.016 C 
ENDBRANCH  24  26
ENDBRANCH  21  24
BRANCH  22  27
ATOM     27  C   UNL     1       0.224  -2.809  -4.307  0.00  0.00    +0.135 C 
BRANCH  27  28
ATOM     28  C   UNL     1       1.281  -1.939  -3.678  0.00  0.00    -0.031 A 
ATOM     29  C   UNL     1       1.897  -2.338  -2.506  0.00  0.00    +0.005 A 
ATOM     30  C   UNL     1       2.867  -1.540  -1.929  0.00  0.00    +0.000 A 
ATOM     31  C   UNL     1       3.221  -0.343  -2.523  0.00  0.00    +0.000 A 
ATOM     32  C   UNL     1       2.605   0.056  -3.695  0.00  0.00    +0.000 A 
ATOM     33  C   UNL     1       1.639  -0.744  -4.274  0.00  0.00    +0.005 A 
ENDBRANCH  27  28
BRANCH  27  34
ATOM     34  C   UNL     1       0.876  -4.003  -4.955  0.00  0.00    -0.031 A 
ATOM     35  C   UNL     1       1.646  -4.865  -4.197  0.00  0.00    +0.005 A 
ATOM     36  C   UNL     1       2.245  -5.961  -4.792  0.00  0.00    +0.000 A 
ATOM     37  C   UNL     1       2.073  -6.194  -6.144  0.00  0.00    +0.000 A 
ATOM     38  C   UNL     1       1.302  -5.331  -6.901  0.00  0.00    +0.000 A 
ATOM     39  C   UNL     1       0.700  -4.239  -6.306  0.00  0.00    +0.005 A 
ENDBRANCH  27  34
ENDBRANCH  22  27
ENDBRANCH   1  21
TORSDOF 8
