REMARK  Name = ZINC07302491
REMARK  8 active torsions:
REMARK  status: ('A' for Active; 'I' for Inactive)
REMARK    1  A    between atoms: C_1  and  C_2
REMARK    2  A    between atoms: C_2  and  C_4
REMARK    3  A    between atoms: C_2  and  O_17
REMARK    4  A    between atoms: N_6  and  C_7
REMARK    5  A    between atoms: C_12  and  C_13
REMARK    6  A    between atoms: O_17  and  C_18
REMARK    7  A    between atoms: C_18  and  C_20
REMARK    8  A    between atoms: C_25  and  N_26
REMARK                            x       y       z     vdW  Elec       q    Type
REMARK                         _______ _______ _______ _____ _____    ______ ____
ROOT
ATOM      1  C   UNL     1       0.341   1.599  -0.062  0.00  0.00    +0.062 C 
ATOM      2  C   UNL     1       0.336   0.069  -0.067  0.00  0.00    +0.259 C 
ENDROOT
BRANCH   2   3
ATOM      3  C   UNL     1      -1.087  -0.428  -0.068  0.00  0.00    +0.258 C 
ATOM      4  O   UNL     1      -1.513  -1.050   0.882  0.00  0.00    -0.271 OA
ATOM      5  N   UNL     1      -1.886  -0.181  -1.125  0.00  0.00    -0.282 N 
ATOM      6  H   UNL     1      -1.572   0.384  -1.848  0.00  0.00    +0.155 HD
BRANCH   5   7
ATOM      7  C   UNL     1      -3.167  -0.741  -1.179  0.00  0.00    +0.045 A 
ATOM      8  C   UNL     1      -3.448  -1.906  -0.478  0.00  0.00    +0.024 A 
ATOM      9  C   UNL     1      -4.714  -2.456  -0.533  0.00  0.00    +0.002 A 
ATOM     10  C   UNL     1      -5.701  -1.847  -1.286  0.00  0.00    +0.001 A 
ATOM     11  C   UNL     1      -5.425  -0.687  -1.986  0.00  0.00    +0.014 A 
ATOM     12  C   UNL     1      -4.162  -0.128  -1.929  0.00  0.00    +0.076 A 
BRANCH  12  13
ATOM     13  C   UNL     1      -3.864   1.140  -2.686  0.00  0.00    +0.419 C 
ATOM     14  F   UNL     1      -5.015   1.562  -3.360  0.00  0.00    -0.166 F 
ATOM     15  F   UNL     1      -3.458   2.134  -1.789  0.00  0.00    -0.166 F 
ATOM     16  F   UNL     1      -2.842   0.902  -3.612  0.00  0.00    -0.166 F 
ENDBRANCH  12  13
ENDBRANCH   5   7
ENDBRANCH   2   3
BRANCH   2  17
ATOM     17  O   UNL     1       1.008  -0.413   1.099  0.00  0.00    -0.449 OA
BRANCH  17  18
ATOM     18  C   UNL     1       2.336  -0.622   0.997  0.00  0.00    +0.342 C 
ATOM     19  O   UNL     1       2.907  -0.400  -0.052  0.00  0.00    -0.245 OA
BRANCH  18  20
ATOM     20  C   UNL     1       3.094  -1.118   2.158  0.00  0.00    +0.080 A 
ATOM     21  C   UNL     1       2.426  -1.477   3.333  0.00  0.00    +0.018 A 
ATOM     22  C   UNL     1       3.140  -1.941   4.414  0.00  0.00    +0.021 A 
ATOM     23  C   UNL     1       4.521  -2.055   4.346  0.00  0.00    +0.043 A 
ATOM     24  C   UNL     1       5.195  -1.705   3.192  0.00  0.00    +0.043 A 
ATOM     25  C   UNL     1       4.491  -1.239   2.089  0.00  0.00    +0.040 A 
ATOM     26 CL   UNL     1       5.408  -2.642   5.718  0.00  0.00    -0.083 Cl
BRANCH  25  27
ATOM     27  N   UNL     1       5.165  -0.892   0.926  0.00  0.00    -0.357 N 
ATOM     28  H   UNL     1       4.667  -0.635   0.135  0.00  0.00    +0.142 HD
ATOM     29  H   UNL     1       6.135  -0.905   0.906  0.00  0.00    +0.142 HD
ENDBRANCH  25  27
ENDBRANCH  18  20
ENDBRANCH  17  18
ENDBRANCH   2  17
TORSDOF 7
