REMARK  Name = ZINC13065182
REMARK  15 active torsions:
REMARK  status: ('A' for Active; 'I' for Inactive)
REMARK    1  A    between atoms: C_1  and  C_2
REMARK    2  A    between atoms: C_2  and  C_3
REMARK    3  A    between atoms: C_3  and  C_5
REMARK    4  A    between atoms: C_3  and  N_68
REMARK    5  A    between atoms: N_9  and  C_10
REMARK    6  A    between atoms: C_10  and  C_11
REMARK    7  A    between atoms: C_10  and  C_12
REMARK    8  A    between atoms: C_10  and  C_13
REMARK    9  A    between atoms: C_13  and  C_14
REMARK   10  A    between atoms: C_15  and  C_16
REMARK   11  A    between atoms: C_15  and  N_68
REMARK   12  A    between atoms: C_21  and  C_22
REMARK   13  A    between atoms: C_21  and  N_68
REMARK   14  A    between atoms: C_25  and  C_35
REMARK   15  A    between atoms: C_28  and  C_34
REMARK                            x       y       z     vdW  Elec       q    Type
REMARK                         _______ _______ _______ _____ _____    ______ ____
ROOT
ATOM      1  N   UNL     1       3.463   1.750  -1.666  0.00  0.00    +0.394 N 
ATOM      2  H   UNL     1       2.703   2.314  -2.064  0.00  0.00    -0.080 HD
ENDROOT
BRANCH   1   3
ATOM      3  C   UNL     1       2.943   0.994  -0.507  0.00  0.00    +0.003 C 
BRANCH   3   4
ATOM      4  C   UNL     1       4.078   0.418   0.299  0.00  0.00    +0.139 A 
ATOM      5  N   UNL     1       5.205   1.015   0.602  0.00  0.00    -0.115 NA
ATOM      6  N   UNL     1       5.916   0.195   1.296  0.00  0.00    -0.023 NA
ATOM      7  N   UNL     1       5.269  -0.907   1.450  0.00  0.00    -0.043 NA
ATOM      8  N   UNL     1       4.130  -0.808   0.852  0.00  0.00    -0.225 N 
BRANCH   8   9
ATOM      9  C   UNL     1       3.091  -1.839   0.783  0.00  0.00    +0.061 C 
ATOM     10  C   UNL     1       2.942  -2.316  -0.663  0.00  0.00    +0.036 C 
ATOM     11  C   UNL     1       1.762  -1.256   1.268  0.00  0.00    +0.036 C 
BRANCH   9  12
ATOM     12  C   UNL     1       3.485  -3.020   1.672  0.00  0.00    +0.026 C 
ATOM     13  C   UNL     1       2.400  -4.097   1.599  0.00  0.00    +0.006 C 
ENDBRANCH   9  12
ENDBRANCH   8   9
ENDBRANCH   3   4
BRANCH   3  15
ATOM     14  C   UNL     1       0.932   2.474  -0.429  0.00  0.00    +0.002 C 
ATOM     15  C   UNL     1       2.123   1.941   0.370  0.00  0.00    -0.011 C 
ENDBRANCH   3  15
ENDBRANCH   1   3
BRANCH   1  16
ATOM     16  C   UNL     1       3.958   0.815  -2.698  0.00  0.00    -0.002 C 
BRANCH  16  17
ATOM     17  C   UNL     1       2.779   0.270  -3.462  0.00  0.00    +0.089 A 
ATOM     18  C   UNL     1       2.287   0.768  -4.610  0.00  0.00    +0.042 A 
ATOM     19  C   UNL     1       1.188  -0.045  -4.972  0.00  0.00    +0.041 A 
ATOM     20  C   UNL     1       1.074  -0.991  -4.022  0.00  0.00    +0.195 A 
ATOM     21  O   UNL     1       2.043  -0.798  -3.113  0.00  0.00    -0.470 OA
ENDBRANCH  16  17
ENDBRANCH   1  16
BRANCH   1  22
ATOM     22  C   UNL     1       4.553   2.650  -1.234  0.00  0.00    -0.036 C 
BRANCH  22  23
ATOM     23  C   UNL     1       4.785   3.679  -2.310  0.00  0.00    +0.001 A 
ATOM     24  C   UNL     1       4.138   4.869  -2.257  0.00  0.00    +0.017 A 
ATOM     25  C   UNL     1       4.389   5.850  -3.314  0.00  0.00    +0.002 A 
ATOM     26  C   UNL     1       3.755   7.097  -3.311  0.00  0.00    -0.041 A 
ATOM     27  C   UNL     1       4.008   7.988  -4.315  0.00  0.00    +0.004 A 
ATOM     28  C   UNL     1       4.889   7.667  -5.339  0.00  0.00    +0.005 A 
ATOM     29  C   UNL     1       5.524   6.445  -5.363  0.00  0.00    -0.026 A 
ATOM     30  C   UNL     1       5.283   5.521  -4.351  0.00  0.00    +0.052 A 
ATOM     31  N   UNL     1       5.906   4.292  -4.350  0.00  0.00    -0.322 N 
ATOM     32  H   UNL     1       6.521   4.067  -5.065  0.00  0.00    +0.169 HD
ATOM     33  C   UNL     1       5.672   3.399  -3.372  0.00  0.00    +0.251 A 
ATOM     34  O   UNL     1       6.240   2.321  -3.403  0.00  0.00    -0.268 OA
ATOM     35  C   UNL     1       6.478   6.110  -6.481  0.00  0.00    +0.046 C 
ATOM     36  C   UNL     1       2.797   7.455  -2.204  0.00  0.00    +0.044 C 
ENDBRANCH  22  23
ENDBRANCH   1  22
TORSDOF 9
