REMARK  Name = ZINC30979636
REMARK  5 active torsions:
REMARK  status: ('A' for Active; 'I' for Inactive)
REMARK    1  A    between atoms: C_10  and  N_12
REMARK    2  A    between atoms: C_13  and  C_15
REMARK    3  A    between atoms: N_18  and  C_21
REMARK    4  A    between atoms: C_21  and  C_22
REMARK    5  A    between atoms: C_24  and  C_27
REMARK                            x       y       z     vdW  Elec       q    Type
REMARK                         _______ _______ _______ _____ _____    ______ ____
ROOT
ATOM      1  C   UNL     1       8.069   1.742   3.583  0.00  0.00    +0.071 C 
ATOM      2  C   UNL     1       8.493   0.489   2.812  0.00  0.00    -0.006 C 
ATOM      3  C   UNL     1       8.021   0.605   1.360  0.00  0.00    -0.077 C 
ATOM      4  N   UNL     1       6.561   0.750   1.329  0.00  0.00    +0.386 N 
ATOM      5  C   UNL     1       6.133   1.972   2.023  0.00  0.00    -0.077 C 
ATOM      6  C   UNL     1       6.548   1.896   3.494  0.00  0.00    -0.006 C 
ATOM      7  H   UNL     1       6.127  -0.108   1.863  0.00  0.00    -0.081 HD
ENDROOT
BRANCH   1   9
ATOM      8  N   UNL     1       8.207   2.598   5.900  0.00  0.00    -0.308 N 
ATOM      9  C   UNL     1       8.479   1.607   5.027  0.00  0.00    +0.216 C 
ATOM     10  O   UNL     1       9.054   0.608   5.403  0.00  0.00    -0.276 OA
ATOM     11  H   UNL     1       7.686   3.504   5.558  0.00  0.00    +0.149 HD
BRANCH   8  21
ATOM     12  C   UNL     1      12.697   3.670   7.635  0.00  0.00    +0.000 A 
ATOM     13  C   UNL     1      12.270   2.897   6.571  0.00  0.00    +0.000 A 
ATOM     14  C   UNL     1      10.945   2.522   6.484  0.00  0.00    +0.006 A 
ATOM     15  C   UNL     1      10.035   2.916   7.457  0.00  0.00    -0.024 A 
ATOM     16  C   UNL     1      10.459   3.689   8.514  0.00  0.00    -0.042 A 
ATOM     17  C   UNL     1      11.794   4.063   8.601  0.00  0.00    +0.004 A 
ATOM     18  C   UNL     1       9.526   4.165   9.597  0.00  0.00    +0.035 C 
ATOM     19  C   UNL     1       8.240   3.340   9.598  0.00  0.00    +0.007 C 
ATOM     20  C   UNL     1       7.679   3.316   8.171  0.00  0.00    +0.027 C 
ATOM     21  C   UNL     1       8.606   2.467   7.303  0.00  0.00    +0.103 C 
ENDBRANCH   8  21
ENDBRANCH   1   9
BRANCH   4  22
ATOM     22  C   UNL     1       6.059   0.726  -0.051  0.00  0.00    +0.022 C 
BRANCH  22  23
ATOM     23  C   UNL     1       4.555   0.629  -0.038  0.00  0.00    +0.211 A 
ATOM     24  N   UNL     1       3.711   1.631  -0.030  0.00  0.00    -0.193 NA
ATOM     25  C   UNL     1       2.481   1.069  -0.015  0.00  0.00    +0.202 A 
ATOM     26  N   UNL     1       2.648  -0.228  -0.024  0.00  0.00    -0.056 NA
ATOM     27  O   UNL     1       3.832  -0.495  -0.037  0.00  0.00    -0.340 OA
BRANCH  25  28
ATOM     28  C   UNL     1       1.184   1.790   0.000  0.00  0.00    +0.023 A 
ATOM     29  C   UNL     1      -0.013   1.076   0.008  0.00  0.00    +0.013 A 
ATOM     30  C   UNL     1      -1.216   1.751   0.017  0.00  0.00    +0.016 A 
ATOM     31  C   UNL     1      -1.236   3.135   0.031  0.00  0.00    +0.018 A 
ATOM     32  C   UNL     1      -0.051   3.849   0.023  0.00  0.00    +0.016 A 
ATOM     33  C   UNL     1       1.158   3.183   0.008  0.00  0.00    +0.013 A 
ATOM     34 BR   UNL     1      -2.889   4.053   0.052  0.00  0.00    -0.050 Br
ENDBRANCH  25  28
ENDBRANCH  22  23
ENDBRANCH   4  22
TORSDOF 5
