REMARK  Name = ZINC35296857
REMARK  12 active torsions:
REMARK  status: ('A' for Active; 'I' for Inactive)
REMARK    1  A    between atoms: C_1  and  O_2
REMARK    2  A    between atoms: O_2  and  C_3
REMARK    3  A    between atoms: C_6  and  C_9
REMARK    4  A    between atoms: C_9  and  C_10
REMARK    5  A    between atoms: C_11  and  C_24
REMARK    6  A    between atoms: N_13  and  C_18
REMARK    7  A    between atoms: C_18  and  C_19
REMARK    8  A    between atoms: C_27  and  O_32
REMARK    9  A    between atoms: C_28  and  O_30
REMARK   10  A    between atoms: O_30  and  C_31
REMARK   11  A    between atoms: O_32  and  C_33
REMARK   12  A    between atoms: C_33  and  C_34
REMARK                            x       y       z     vdW  Elec       q    Type
REMARK                         _______ _______ _______ _____ _____    ______ ____
ROOT
ATOM      1  C   UNL     1       2.498  -3.996  -4.318  0.00  0.00    +0.076 C 
ATOM      2  C   UNL     1       1.912  -4.904  -3.264  0.00  0.00    +0.145 C 
ATOM      3  N   UNL     1       2.261  -6.273  -3.662  0.00  0.00    -0.276 N 
ATOM      4  C   UNL     1       2.966  -6.203  -4.806  0.00  0.00    +0.288 C 
ATOM      5  O   UNL     1       3.412  -7.159  -5.409  0.00  0.00    -0.266 OA
ATOM      6  C   UNL     1       3.113  -4.793  -5.223  0.00  0.00    +0.249 C 
ATOM      7  O   UNL     1       3.762  -4.367  -6.331  0.00  0.00    -0.282 OA
ENDROOT
BRANCH   2   8
ATOM      8  C   UNL     1       2.509  -4.588  -1.917  0.00  0.00    -0.019 A 
ATOM      9  C   UNL     1       3.805  -4.975  -1.629  0.00  0.00    +0.009 A 
ATOM     10  C   UNL     1       4.358  -4.687  -0.395  0.00  0.00    +0.050 A 
ATOM     11  C   UNL     1       3.612  -4.010   0.557  0.00  0.00    +0.162 A 
ATOM     12  C   UNL     1       2.308  -3.620   0.267  0.00  0.00    +0.162 A 
ATOM     13  C   UNL     1       1.762  -3.908  -0.973  0.00  0.00    +0.055 A 
BRANCH  12  14
ATOM     14  O   UNL     1       1.573  -2.956   1.198  0.00  0.00    -0.491 OA
ATOM     15  C   UNL     1       0.289  -2.478   0.791  0.00  0.00    +0.277 C 
ENDBRANCH  12  14
BRANCH  11  16
ATOM     16  O   UNL     1       4.154  -3.726   1.772  0.00  0.00    -0.484 OA
BRANCH  16  17
ATOM     17  C   UNL     1       5.498  -4.157   1.999  0.00  0.00    +0.256 C 
BRANCH  17  18
ATOM     18  C   UNL     1       5.925  -3.758   3.388  0.00  0.00    +0.006 C 
ATOM     19  C   UNL     1       6.558  -4.615   4.150  0.00  0.00    +0.007 C 
ENDBRANCH  17  18
ENDBRANCH  16  17
ENDBRANCH  11  16
ENDBRANCH   2   8
BRANCH   1  20
ATOM     20  C   UNL     1       2.413  -2.533  -4.358  0.00  0.00    +0.195 C 
ATOM     21  O   UNL     1       3.420  -1.860  -4.235  0.00  0.00    -0.287 OA
BRANCH  20  25
ATOM     22  C   UNL     1      -1.350  -0.639  -4.904  0.00  0.00    +0.120 A 
ATOM     23  C   UNL     1      -0.211   0.130  -4.689  0.00  0.00    +0.046 A 
ATOM     24  C   UNL     1       1.010  -0.480  -4.511  0.00  0.00    +0.015 A 
ATOM     25  C   UNL     1       1.105  -1.875  -4.547  0.00  0.00    +0.022 A 
ATOM     26  C   UNL     1      -0.042  -2.644  -4.764  0.00  0.00    +0.015 A 
ATOM     27  C   UNL     1      -1.260  -2.027  -4.935  0.00  0.00    +0.046 A 
BRANCH  22  29
ATOM     28  C   UNL     1      -2.572   1.394  -5.034  0.00  0.00    +0.277 C 
ATOM     29  O   UNL     1      -2.552  -0.035  -5.078  0.00  0.00    -0.495 OA
ENDBRANCH  22  29
ENDBRANCH  20  25
ENDBRANCH   1  20
BRANCH   3  30
ATOM     30  C   UNL     1       1.906  -7.498  -2.941  0.00  0.00    +0.183 C 
BRANCH  30  31
ATOM     31  C   UNL     1       0.579  -8.008  -3.442  0.00  0.00    +0.122 A 
ATOM     32  C   UNL     1       0.401  -8.873  -4.457  0.00  0.00    +0.046 A 
ATOM     33  C   UNL     1      -0.993  -9.074  -4.583  0.00  0.00    +0.041 A 
ATOM     34  C   UNL     1      -1.583  -8.320  -3.639  0.00  0.00    +0.195 A 
ATOM     35  O   UNL     1      -0.625  -7.681  -2.946  0.00  0.00    -0.466 OA
ENDBRANCH  30  31
ENDBRANCH   3  30
TORSDOF 10
