REMARK  Name = ZINC63572618
REMARK  6 active torsions:
REMARK  status: ('A' for Active; 'I' for Inactive)
REMARK    1  A    between atoms: C_1  and  O_2
REMARK    2  A    between atoms: O_2  and  C_3
REMARK    3  A    between atoms: C_3  and  C_4
REMARK    4  A    between atoms: C_4  and  C_5
REMARK    5  A    between atoms: C_5  and  N_6
REMARK    6  A    between atoms: C_22  and  C_24
REMARK                            x       y       z     vdW  Elec       q    Type
REMARK                         _______ _______ _______ _____ _____    ______ ____
ROOT
ATOM      1  N   UNL     1      -2.814  -4.644  -2.191  0.00  0.00    -0.299 N 
ATOM      2  C   UNL     1      -3.751  -5.247  -1.433  0.00  0.00    +0.303 C 
ATOM      3  O   UNL     1      -4.802  -4.681  -1.201  0.00  0.00    -0.253 OA
ATOM      4  N   UNL     1      -3.523  -6.477  -0.931  0.00  0.00    -0.276 N 
ATOM      5  C   UNL     1      -2.208  -7.101  -1.111  0.00  0.00    +0.114 C 
ATOM      6  C   UNL     1      -1.613  -7.447   0.267  0.00  0.00    +0.052 C 
ATOM      7  C   UNL     1      -2.716  -8.097   1.064  0.00  0.00    -0.035 C 
ATOM      8  C   UNL     1      -2.758  -9.243   1.732  0.00  0.00    +0.001 A 
ATOM      9  C   UNL     1      -1.718 -10.240   2.033  0.00  0.00    +0.030 A 
ATOM     10  C   UNL     1      -2.120 -11.331   2.740  0.00  0.00    +0.042 A 
ATOM     11  C   UNL     1      -3.436 -11.525   3.172  0.00  0.00    +0.022 A 
ATOM     12  C   UNL     1      -4.453 -10.656   2.948  0.00  0.00    +0.027 A 
ATOM     13  C   UNL     1      -4.153  -9.467   2.222  0.00  0.00    +0.043 A 
ATOM     14  N   UNL     1      -4.917  -8.468   1.890  0.00  0.00    -0.375 N 
ATOM     15  C   UNL     1      -4.096  -7.466   1.210  0.00  0.00    +0.131 C 
ATOM     16  C   UNL     1      -4.594  -7.177  -0.205  0.00  0.00    +0.134 C 
ATOM     17 CL   UNL     1      -0.938 -12.543   3.125  0.00  0.00    -0.084 Cl
ATOM     18  H   UNL     1      -1.949  -5.063  -2.316  0.00  0.00    +0.150 HD
ATOM     19  H   UNL     1      -5.868  -8.399   2.064  0.00  0.00    +0.160 HD
ENDROOT
BRANCH  16  20
ATOM     20  C   UNL     1      -5.822  -6.306  -0.143  0.00  0.00    -0.025 A 
ATOM     21  C   UNL     1      -5.828  -5.176   0.652  0.00  0.00    +0.008 A 
ATOM     22  C   UNL     1      -6.954  -4.376   0.710  0.00  0.00    +0.038 A 
ATOM     23  C   UNL     1      -8.076  -4.708  -0.030  0.00  0.00    +0.123 A 
ATOM     24  C   UNL     1      -8.070  -5.841  -0.826  0.00  0.00    +0.038 A 
ATOM     25  C   UNL     1      -6.941  -6.636  -0.886  0.00  0.00    +0.008 A 
ATOM     26  F   UNL     1      -9.178  -3.928   0.026  0.00  0.00    -0.205 F 
ENDBRANCH  16  20
BRANCH   1  27
ATOM     27  C   UNL     1      -3.104  -3.356  -2.826  0.00  0.00    +0.108 C 
BRANCH  27  28
ATOM     28  C   UNL     1      -1.883  -2.894  -3.623  0.00  0.00    +0.047 C 
BRANCH  28  29
ATOM     29  C   UNL     1      -2.185  -1.549  -4.286  0.00  0.00    +0.161 C 
BRANCH  29  31
ATOM     30  C   UNL     1      -1.222   0.136  -5.693  0.00  0.00    +0.193 C 
ATOM     31  O   UNL     1      -1.044  -1.117  -5.031  0.00  0.00    -0.383 OA
ENDBRANCH  29  31
ENDBRANCH  28  29
ENDBRANCH  27  28
ENDBRANCH   1  27
TORSDOF 5
