REMARK  Name = ZINC22626678
REMARK  5 active torsions:
REMARK  status: ('A' for Active; 'I' for Inactive)
REMARK    1  A    between atoms: C_1  and  C_2
REMARK    2  A    between atoms: C_7  and  O_26
REMARK    3  A    between atoms: C_8  and  C_10
REMARK    4  A    between atoms: C_10  and  C_12
REMARK    5  A    between atoms: C_10  and  N_20
REMARK                            x       y       z     vdW  Elec       q    Type
REMARK                         _______ _______ _______ _____ _____    ______ ____
ROOT
ATOM      1  C   UNL     1      -2.557   4.141   0.049  0.00  0.00    +0.130 C 
ENDROOT
BRANCH   1   9
ATOM      2  C   UNL     1      -4.915   5.373   7.017  0.00  0.00    +0.090 C 
ATOM      3  C   UNL     1      -4.492   4.972   5.628  0.00  0.00    +0.150 A 
ATOM      4  N   UNL     1      -4.651   3.763   5.093  0.00  0.00    -0.205 NA
ATOM      5  C   UNL     1      -4.174   3.763   3.878  0.00  0.00    +0.199 A 
ATOM      6  N   UNL     1      -3.682   4.997   3.580  0.00  0.00    -0.173 N 
ATOM      7  N   UNL     1      -3.913   5.755   4.758  0.00  0.00    -0.147 NA
ATOM      8  C   UNL     1      -3.133   5.172   2.333  0.00  0.00    +0.228 A 
ATOM      9  C   UNL     1      -3.102   4.163   1.454  0.00  0.00    +0.076 A 
ATOM     10  S   UNL     1      -3.869   2.846   2.387  0.00  0.00    -0.047 S 
BRANCH   8  11
ATOM     11  O   UNL     1      -2.621   6.383   1.986  0.00  0.00    -0.492 OA
ATOM     12  H   UNL     1      -2.181   6.529   0.988  0.00  0.00    +0.294 HD
ENDBRANCH   8  11
ENDBRANCH   1   9
BRANCH   1  13
ATOM     13  C   UNL     1      -1.242   3.405   0.032  0.00  0.00    -0.022 A 
ATOM     14  C   UNL     1      -0.054   4.113   0.025  0.00  0.00    +0.008 A 
ATOM     15  C   UNL     1       1.153   3.441   0.010  0.00  0.00    +0.041 A 
ATOM     16  C   UNL     1       1.175   2.057   0.002  0.00  0.00    +0.158 A 
ATOM     17  C   UNL     1      -0.016   1.347   0.009  0.00  0.00    +0.159 A 
ATOM     18  C   UNL     1      -1.224   2.023   0.019  0.00  0.00    +0.046 A 
ATOM     19  F   UNL     1       0.002  -0.004   0.002  0.00  0.00    -0.202 F 
ATOM     20  F   UNL     1       2.354   1.399  -0.013  0.00  0.00    -0.202 F 
ENDBRANCH   1  13
BRANCH   1  21
ATOM     21  N   UNL     1      -3.511   3.459  -0.836  0.00  0.00    -0.287 NA
ATOM     22  C   UNL     1      -2.974   3.342  -2.199  0.00  0.00    +0.113 C 
ATOM     23  C   UNL     1      -3.971   2.575  -3.071  0.00  0.00    +0.175 C 
ATOM     24  O   UNL     1      -5.235   3.244  -3.042  0.00  0.00    -0.377 OA
ATOM     25  C   UNL     1      -5.787   3.375  -1.729  0.00  0.00    +0.175 C 
ATOM     26  C   UNL     1      -4.808   4.150  -0.844  0.00  0.00    +0.113 C 
ENDBRANCH   1  21
TORSDOF 4
