REMARK  Name = ZINC12048893
REMARK  8 active torsions:
REMARK  status: ('A' for Active; 'I' for Inactive)
REMARK    1  A    between atoms: C_1  and  C_2
REMARK    2  A    between atoms: C_2  and  C_4
REMARK    3  A    between atoms: C_2  and  N_61
REMARK    4  A    between atoms: N_6  and  C_7
REMARK    5  A    between atoms: C_7  and  C_8
REMARK    6  A    between atoms: C_15  and  C_22
REMARK    7  A    between atoms: C_25  and  C_27
REMARK    8  A    between atoms: C_27  and  C_29
REMARK                            x       y       z     vdW  Elec       q    Type
REMARK                         _______ _______ _______ _____ _____    ______ ____
ROOT
ATOM      1  C   UNL     1       4.153   5.434   0.419  0.00  0.00    +0.195 C 
ATOM      2  C   UNL     1       2.655   5.419   0.033  0.00  0.00    +0.085 C 
ATOM      3  C   UNL     1       2.355   3.933   0.004  0.00  0.00    +0.006 A 
ATOM      4  C   UNL     1       1.152   3.217   0.009  0.00  0.00    -0.011 A 
ATOM      5  C   UNL     1      -0.090   3.881   0.022  0.00  0.00    +0.009 A 
ATOM      6  C   UNL     1      -1.243   3.165   0.028  0.00  0.00    +0.009 A 
ATOM      7  C   UNL     1      -1.219   1.758   0.017  0.00  0.00    -0.011 A 
ATOM      8  C   UNL     1      -0.013   1.076   0.008  0.00  0.00    +0.017 A 
ATOM      9  C   UNL     1       1.188   1.799   0.000  0.00  0.00    -0.017 A 
ATOM     10  C   UNL     1       2.433   1.145  -0.015  0.00  0.00    +0.012 A 
ATOM     11  C   UNL     1       3.583   1.865  -0.025  0.00  0.00    +0.046 A 
ATOM     12  C   UNL     1       3.564   3.271  -0.019  0.00  0.00    +0.125 A 
ATOM     13  O   UNL     1       4.606   4.148  -0.037  0.00  0.00    -0.487 OA
ENDROOT
BRANCH   7  14
ATOM     14  C   UNL     1      -2.488   1.003   0.020  0.00  0.00    +0.020 A 
ATOM     15  C   UNL     1      -3.789   1.486   0.029  0.00  0.00    +0.017 A 
ATOM     16  C   UNL     1      -4.821   0.595   0.029  0.00  0.00    +0.019 A 
ATOM     17  C   UNL     1      -4.526  -0.767   0.020  0.00  0.00    +0.055 A 
ATOM     18  S   UNL     1      -2.741  -0.764   0.004  0.00  0.00    -0.085 S 
BRANCH  17  19
ATOM     19  C   UNL     1      -5.411  -1.865   0.018  0.00  0.00    +0.167 C 
ATOM     20  O   UNL     1      -6.611  -1.678   0.025  0.00  0.00    -0.292 OA
ATOM     21  C   UNL     1      -4.867  -3.271   0.008  0.00  0.00    +0.092 C 
ENDBRANCH  17  19
ENDBRANCH   7  14
BRANCH   1  22
ATOM     22  C   UNL     1       4.893   6.560  -0.305  0.00  0.00    +0.149 C 
BRANCH  22  25
ATOM     23  C   UNL     1       7.181   7.361  -0.551  0.00  0.00    +0.199 C 
ATOM     24  O   UNL     1       6.764   8.243  -1.271  0.00  0.00    -0.278 OA
ATOM     25  N   UNL     1       6.326   6.467  -0.016  0.00  0.00    -0.313 N 
ATOM     26  H   UNL     1       6.660   5.761   0.560  0.00  0.00    +0.149 HD
BRANCH  23  28
ATOM     27  C   UNL     1       9.186   5.914  -0.735  0.00  0.00    -0.004 C 
ATOM     28  C   UNL     1       8.655   7.265  -0.253  0.00  0.00    +0.016 C 
BRANCH  28  34
ATOM     29  C   UNL     1       9.199   8.236  -2.405  0.00  0.00    -0.049 C 
ATOM     30  C   UNL     1       9.904   9.412  -3.085  0.00  0.00    +0.141 C 
ATOM     31  O   UNL     1      11.280   9.425  -2.698  0.00  0.00    -0.383 OA
ATOM     32  C   UNL     1      11.480   9.533  -1.286  0.00  0.00    +0.141 C 
ATOM     33  C   UNL     1      10.791   8.357  -0.588  0.00  0.00    -0.049 C 
ATOM     34  N   UNL     1       9.356   8.371  -0.942  0.00  0.00    +0.390 N 
ATOM     35  H   UNL     1       8.947   9.264  -0.643  0.00  0.00    -0.081 HD
ENDBRANCH  28  34
ENDBRANCH  23  28
ENDBRANCH  22  25
ENDBRANCH   1  22
TORSDOF 6
