REMARK  Name = ZINC35523489
REMARK  6 active torsions:
REMARK  status: ('A' for Active; 'I' for Inactive)
REMARK    1  A    between atoms: C_5  and  C_7
REMARK    2  A    between atoms: N_16  and  C_17
REMARK    3  A    between atoms: C_17  and  C_18
REMARK    4  A    between atoms: C_21  and  C_23
REMARK    5  A    between atoms: N_25  and  C_26
REMARK    6  A    between atoms: C_26  and  C_27
REMARK                            x       y       z     vdW  Elec       q    Type
REMARK                         _______ _______ _______ _____ _____    ______ ____
ROOT
ATOM      1  C   UNL     1      -1.431  -2.795  -2.571  0.00  0.00    +0.090 A 
ATOM      2  C   UNL     1      -2.531  -2.013  -2.630  0.00  0.00    +0.043 A 
ATOM      3  C   UNL     1      -3.552  -2.780  -3.211  0.00  0.00    +0.055 A 
ATOM      4  C   UNL     1      -3.017  -4.007  -3.480  0.00  0.00    +0.189 A 
ATOM      5  O   UNL     1      -1.726  -3.994  -3.088  0.00  0.00    -0.457 OA
ENDROOT
BRANCH   4   6
ATOM      6  C   UNL     1      -3.721  -5.139  -4.091  0.00  0.00    +0.280 C 
ATOM      7  O   UNL     1      -4.891  -5.029  -4.408  0.00  0.00    -0.267 OA
ATOM      8  N   UNL     1      -3.072  -6.302  -4.302  0.00  0.00    -0.305 N 
ATOM      9  H   UNL     1      -2.140  -6.389  -4.050  0.00  0.00    +0.149 HD
BRANCH   8  10
ATOM     10  C   UNL     1      -3.775  -7.433  -4.913  0.00  0.00    +0.140 C 
BRANCH  10  11
ATOM     11  C   UNL     1      -2.833  -8.602  -5.038  0.00  0.00    -0.027 A 
ATOM     12  C   UNL     1      -2.067  -8.752  -6.179  0.00  0.00    +0.009 A 
ATOM     13  C   UNL     1      -1.201  -9.823  -6.298  0.00  0.00    +0.050 A 
ATOM     14  C   UNL     1      -1.098 -10.749  -5.273  0.00  0.00    +0.166 A 
ATOM     15  C   UNL     1      -1.869 -10.597  -4.123  0.00  0.00    +0.167 A 
ATOM     16  C   UNL     1      -2.731  -9.519  -4.008  0.00  0.00    +0.054 A 
ATOM     17  O   UNL     1      -1.590 -11.627  -3.272  0.00  0.00    -0.453 OA
ATOM     18  C   UNL     1      -0.946 -12.630  -4.080  0.00  0.00    +0.466 C 
ATOM     19  O   UNL     1      -0.336 -11.873  -5.142  0.00  0.00    -0.453 OA
ENDBRANCH  10  11
ENDBRANCH   8  10
ENDBRANCH   4   6
BRANCH   1  20
ATOM     20  C   UNL     1      -0.090  -2.383  -2.019  0.00  0.00    -0.002 C 
BRANCH  20  29
ATOM     21  C   UNL     1       1.228  -2.186  -0.022  0.00  0.00    +0.014 C 
ATOM     22  C   UNL     1       1.357  -2.702   1.390  0.00  0.00    +0.009 A 
ATOM     23  C   UNL     1       2.166  -2.263   2.365  0.00  0.00    +0.021 A 
ATOM     24  C   UNL     1       1.920  -3.057   3.505  0.00  0.00    +0.019 A 
ATOM     25  C   UNL     1       0.966  -3.955   3.177  0.00  0.00    +0.086 A 
ATOM     26  N   UNL     1       0.618  -3.746   1.882  0.00  0.00    -0.353 N 
ATOM     27  C   UNL     1      -0.370  -4.477   1.078  0.00  0.00    +0.103 C 
ATOM     28  C   UNL     1      -0.111  -4.153  -0.399  0.00  0.00    -0.055 C 
ATOM     29  N   UNL     1      -0.033  -2.697  -0.585  0.00  0.00    +0.394 N 
ATOM     30  H   UNL     1      -0.811  -2.257  -0.116  0.00  0.00    -0.080 HD
BRANCH  21  35
ATOM     31  C   UNL     1      -0.017   1.378   0.010  0.00  0.00    +0.000 A 
ATOM     32  C   UNL     1       1.171   2.087   0.002  0.00  0.00    +0.003 A 
ATOM     33  C   UNL     1       2.377   1.414  -0.013  0.00  0.00    +0.038 A 
ATOM     34  C   UNL     1       2.397   0.029  -0.021  0.00  0.00    +0.125 A 
ATOM     35  C   UNL     1       1.208  -0.679  -0.013  0.00  0.00    -0.020 A 
ATOM     36  C   UNL     1       0.002  -0.004   0.002  0.00  0.00    +0.005 A 
ATOM     37  F   UNL     1       3.577  -0.630  -0.036  0.00  0.00    -0.205 F 
ENDBRANCH  21  35
ENDBRANCH  20  29
ENDBRANCH   1  20
TORSDOF 6
