REMARK  Name = ZINC19527116
REMARK  9 active torsions:
REMARK  status: ('A' for Active; 'I' for Inactive)
REMARK    1  A    between atoms: C_1  and  C_2
REMARK    2  A    between atoms: C_2  and  N_3
REMARK    3  A    between atoms: C_7  and  C_9
REMARK    4  A    between atoms: C_9  and  N_10
REMARK    5  A    between atoms: N_10  and  C_11
REMARK    6  A    between atoms: C_11  and  C_12
REMARK    7  A    between atoms: C_15  and  C_25
REMARK    8  A    between atoms: C_17  and  C_24
REMARK    9  A    between atoms: N_28  and  C_29
REMARK                            x       y       z     vdW  Elec       q    Type
REMARK                         _______ _______ _______ _____ _____    ______ ____
ROOT
ATOM      1  N   UNL     1      -1.196  -0.692   0.577  0.00  0.00    -0.283 N 
ATOM      2  C   UNL     1      -0.151  -0.055   0.013  0.00  0.00    +0.303 C 
ATOM      3  O   UNL     1       0.945  -0.581  -0.004  0.00  0.00    -0.253 OA
ATOM      4  N   UNL     1      -0.321   1.166  -0.533  0.00  0.00    -0.296 N 
ATOM      5  H   UNL     1      -1.326   1.608  -0.588  0.00  0.00    +0.151 HD
ENDROOT
BRANCH   4   6
ATOM      6  C   UNL     1       0.834   1.903  -1.052  0.00  0.00    +0.074 C 
ATOM      7  C   UNL     1       1.505   2.668   0.090  0.00  0.00    +0.022 C 
ATOM      8  C   UNL     1       2.711   3.439  -0.452  0.00  0.00    +0.002 C 
ATOM      9  C   UNL     1       2.245   4.427  -1.524  0.00  0.00    +0.000 C 
ATOM     10  C   UNL     1       1.573   3.661  -2.666  0.00  0.00    +0.002 C 
ATOM     11  C   UNL     1       0.368   2.891  -2.123  0.00  0.00    +0.022 C 
ENDBRANCH   4   6
BRANCH   1  12
ATOM     12  C   UNL     1      -2.538  -0.109   0.500  0.00  0.00    +0.094 C 
BRANCH  12  17
ATOM     13  N   UNL     1      -4.689  -0.247  -0.684  0.00  0.00    +0.382 N 
ATOM     14  C   UNL     1      -4.929   0.499  -1.938  0.00  0.00    -0.078 C 
ATOM     15  C   UNL     1      -3.878  -0.051  -2.933  0.00  0.00    -0.020 C 
ATOM     16  C   UNL     1      -2.652  -0.265  -2.008  0.00  0.00    -0.016 C 
ATOM     17  C   UNL     1      -3.293  -0.722  -0.681  0.00  0.00    -0.051 C 
ATOM     18  H   UNL     1      -5.372  -1.107  -0.625  0.00  0.00    -0.081 HD
BRANCH  13  20
ATOM     19  C   UNL     1      -6.378   1.164   0.390  0.00  0.00    -0.017 C 
ATOM     20  C   UNL     1      -4.962   0.593   0.490  0.00  0.00    -0.082 C 
ENDBRANCH  13  20
ENDBRANCH  12  17
ENDBRANCH   1  12
BRANCH   1  21
ATOM     21  C   UNL     1      -0.990  -1.968   1.267  0.00  0.00    +0.149 C 
BRANCH  21  22
ATOM     22  C   UNL     1      -0.818  -1.719   2.743  0.00  0.00    +0.035 A 
ATOM     23  C   UNL     1      -1.887  -1.813   3.572  0.00  0.00    +0.020 A 
ATOM     24  C   UNL     1      -1.687  -1.565   5.001  0.00  0.00    +0.002 A 
ATOM     25  C   UNL     1      -2.750  -1.647   5.906  0.00  0.00    -0.041 A 
ATOM     26  C   UNL     1      -2.531  -1.410   7.233  0.00  0.00    +0.007 A 
ATOM     27  C   UNL     1      -1.260  -1.089   7.693  0.00  0.00    -0.048 A 
ATOM     28  C   UNL     1      -0.198  -1.003   6.820  0.00  0.00    +0.029 A 
ATOM     29  C   UNL     1      -0.398  -1.239   5.463  0.00  0.00    +0.050 A 
ATOM     30  N   UNL     1       0.648  -1.161   4.568  0.00  0.00    -0.322 N 
ATOM     31  H   UNL     1       1.657  -0.903   4.922  0.00  0.00    +0.169 HD
ATOM     32  C   UNL     1       0.455  -1.395   3.258  0.00  0.00    +0.254 A 
ATOM     33  O   UNL     1       1.403  -1.321   2.495  0.00  0.00    -0.268 OA
ATOM     34  C   UNL     1      -1.042  -0.832   9.161  0.00  0.00    +0.044 C 
ATOM     35  C   UNL     1      -4.133  -1.995   5.418  0.00  0.00    +0.044 C 
ENDBRANCH  21  22
ENDBRANCH   1  21
TORSDOF 6
