REMARK  Name = ZINC10139029
REMARK  9 active torsions:
REMARK  status: ('A' for Active; 'I' for Inactive)
REMARK    1  A    between atoms: C_1  and  C_2
REMARK    2  A    between atoms: C_2  and  C_3
REMARK    3  A    between atoms: C_2  and  C_4
REMARK    4  A    between atoms: C_4  and  C_6
REMARK    5  A    between atoms: C_4  and  N_56
REMARK    6  A    between atoms: C_13  and  C_14
REMARK    7  A    between atoms: C_13  and  N_56
REMARK    8  A    between atoms: N_19  and  C_22
REMARK    9  A    between atoms: C_27  and  N_28
REMARK                            x       y       z     vdW  Elec       q    Type
REMARK                         _______ _______ _______ _____ _____    ______ ____
ROOT
ATOM      1  C   UNL     1       2.835   2.142   1.988  0.00  0.00    +0.199 C 
ATOM      2  O   UNL     1       3.475   1.609   2.869  0.00  0.00    -0.278 OA
ATOM      3  N   UNL     1       2.099   1.393   1.142  0.00  0.00    -0.300 N 
ATOM      4  C   UNL     1       1.315   2.019   0.066  0.00  0.00    +0.126 C 
ATOM      5  C   UNL     1      -0.121   1.491   0.140  0.00  0.00    +0.124 C 
ATOM      6  N   UNL     1      -0.101   0.022   0.120  0.00  0.00    -0.325 N 
ATOM      7  C   UNL     1       0.592  -0.517   1.297  0.00  0.00    +0.124 C 
ATOM      8  C   UNL     1       2.058  -0.072   1.271  0.00  0.00    +0.126 C 
ENDROOT
BRANCH   6   9
ATOM      9  C   UNL     1      -1.395  -0.495   0.020  0.00  0.00    +0.060 A 
ATOM     10  C   UNL     1      -2.334  -0.214   1.004  0.00  0.00    +0.025 A 
ATOM     11  C   UNL     1      -3.614  -0.722   0.900  0.00  0.00    +0.002 A 
ATOM     12  C   UNL     1      -3.958  -1.519  -0.177  0.00  0.00    +0.002 A 
ATOM     13  C   UNL     1      -3.024  -1.806  -1.155  0.00  0.00    +0.034 A 
ATOM     14  C   UNL     1      -1.743  -1.296  -1.060  0.00  0.00    +0.147 A 
BRANCH  14  15
ATOM     15  N   UNL     1      -0.744  -1.603  -2.107  0.00  0.00    +0.058 N 
ATOM     16  O   UNL     1      -1.050  -2.306  -3.054  0.00  0.00    -0.126 OA
ATOM     17  O   UNL     1       0.385  -1.154  -2.022  0.00  0.00    -0.126 OA
ENDBRANCH  14  15
ENDBRANCH   6   9
BRANCH   1  18
ATOM     18  C   UNL     1       2.862   3.641   1.837  0.00  0.00    +0.016 C 
BRANCH  18  19
ATOM     19  N   UNL     1       3.734   4.215   2.879  0.00  0.00    +0.389 N 
ATOM     20  H   UNL     1       3.333   4.018   3.803  0.00  0.00    -0.084 HD
ATOM     21  H   UNL     1       4.667   3.790   2.812  0.00  0.00    -0.084 HD
BRANCH  19  22
ATOM     22  C   UNL     1       3.852   5.675   2.701  0.00  0.00    -0.038 C 
BRANCH  22  23
ATOM     23  C   UNL     1       4.897   5.973   1.657  0.00  0.00    -0.061 A 
ATOM     24  C   UNL     1       6.064   5.232   1.617  0.00  0.00    +0.003 A 
ATOM     25  C   UNL     1       7.020   5.501   0.657  0.00  0.00    +0.020 A 
ATOM     26  C   UNL     1       6.815   6.519  -0.258  0.00  0.00    +0.041 A 
ATOM     27  C   UNL     1       5.649   7.263  -0.214  0.00  0.00    +0.020 A 
ATOM     28  C   UNL     1       4.691   6.989   0.744  0.00  0.00    +0.003 A 
ATOM     29 CL   UNL     1       8.019   6.862  -1.460  0.00  0.00    -0.084 Cl
ENDBRANCH  22  23
BRANCH  22  31
ATOM     30  C   UNL     1       4.314   7.832   3.873  0.00  0.00    +0.006 C 
ATOM     31  C   UNL     1       4.263   6.311   4.030  0.00  0.00    -0.027 C 
ATOM     32  C   UNL     1       3.241   5.944   5.109  0.00  0.00    +0.006 C 
ENDBRANCH  22  31
ENDBRANCH  19  22
ENDBRANCH  18  19
ENDBRANCH   1  18
TORSDOF 7
