REMARK  Name = ZINC39657118
REMARK  9 active torsions:
REMARK  status: ('A' for Active; 'I' for Inactive)
REMARK    1  A    between atoms: C_1  and  C_2
REMARK    2  A    between atoms: C_2  and  C_4
REMARK    3  A    between atoms: C_2  and  N_11
REMARK    4  A    between atoms: C_12  and  C_14
REMARK    5  A    between atoms: C_25  and  C_27
REMARK    6  A    between atoms: C_29  and  O_35
REMARK    7  A    between atoms: C_32  and  O_33
REMARK    8  A    between atoms: O_33  and  C_34
REMARK    9  A    between atoms: O_35  and  C_36
REMARK                            x       y       z     vdW  Elec       q    Type
REMARK                         _______ _______ _______ _____ _____    ______ ____
ROOT
ATOM      1  C   UNL     1      -3.466  -1.166  -1.127  0.00  0.00    +0.100 C 
ATOM      2  C   UNL     1      -4.368  -0.272  -0.245  0.00  0.00    +0.121 C 
ATOM      3  N   UNL     1      -4.986   0.686  -1.192  0.00  0.00    -0.296 N 
ATOM      4  C   UNL     1      -5.284  -0.126  -2.396  0.00  0.00    +0.115 C 
ATOM      5  C   UNL     1      -4.073  -1.070  -2.537  0.00  0.00    -0.004 C 
ATOM      6  C   UNL     1      -4.529  -2.447  -3.010  0.00  0.00    -0.010 C 
ATOM      7  C   UNL     1      -5.075  -2.337  -4.436  0.00  0.00    -0.082 C 
ATOM      8  N   UNL     1      -4.029  -1.813  -5.324  0.00  0.00    +0.379 N 
ATOM      9  C   UNL     1      -3.663  -0.451  -4.917  0.00  0.00    -0.082 C 
ATOM     10  C   UNL     1      -3.057  -0.482  -3.511  0.00  0.00    -0.010 C 
ATOM     11  C   UNL     1      -5.223   1.999  -1.002  0.00  0.00    +0.250 C 
ATOM     12  O   UNL     1      -4.832   2.547   0.011  0.00  0.00    -0.270 OA
ATOM     13  H   UNL     1      -3.216  -2.409  -5.271  0.00  0.00    -0.086 HD
ATOM     14  H   UNL     1      -4.371  -1.799  -6.273  0.00  0.00    -0.086 HD
ENDROOT
BRANCH  11  15
ATOM     15  C   UNL     1      -5.959   2.771  -2.021  0.00  0.00    +0.082 A 
ATOM     16  C   UNL     1      -6.990   2.171  -2.748  0.00  0.00    +0.062 A 
ATOM     17  C   UNL     1      -7.675   2.900  -3.702  0.00  0.00    +0.121 A 
ATOM     18  C   UNL     1      -7.340   4.228  -3.939  0.00  0.00    +0.049 A 
ATOM     19  C   UNL     1      -6.323   4.829  -3.225  0.00  0.00    +0.050 A 
ATOM     20  C   UNL     1      -5.630   4.111  -2.261  0.00  0.00    +0.132 A 
BRANCH  20  21
ATOM     21  O   UNL     1      -4.633   4.705  -1.557  0.00  0.00    -0.494 OA
ATOM     22  C   UNL     1      -4.354   6.074  -1.855  0.00  0.00    +0.277 C 
ENDBRANCH  20  21
BRANCH  17  23
ATOM     23  O   UNL     1      -8.679   2.317  -4.410  0.00  0.00    -0.495 OA
ATOM     24  C   UNL     1      -9.345   3.128  -5.379  0.00  0.00    +0.277 C 
ENDBRANCH  17  23
ENDBRANCH  11  15
BRANCH   1  26
ATOM     25  N   UNL     1      -1.020  -1.500  -1.272  0.00  0.00    -0.308 N 
ATOM     26  C   UNL     1      -2.052  -0.645  -1.128  0.00  0.00    +0.219 C 
ATOM     27  O   UNL     1      -1.843   0.542  -1.000  0.00  0.00    -0.275 OA
ATOM     28  H   UNL     1      -1.187  -2.450  -1.374  0.00  0.00    +0.149 HD
BRANCH  25  30
ATOM     29  C   UNL     1       0.853  -0.866   0.168  0.00  0.00    +0.033 C 
ATOM     30  C   UNL     1       0.355  -0.994  -1.273  0.00  0.00    +0.100 C 
BRANCH  30  31
ATOM     31  C   UNL     1       1.242  -1.951  -2.027  0.00  0.00    -0.027 A 
ATOM     32  C   UNL     1       1.064  -3.314  -1.887  0.00  0.00    +0.006 A 
ATOM     33  C   UNL     1       1.877  -4.192  -2.579  0.00  0.00    +0.015 A 
ATOM     34  C   UNL     1       2.868  -3.706  -3.412  0.00  0.00    +0.018 A 
ATOM     35  C   UNL     1       3.046  -2.342  -3.552  0.00  0.00    +0.015 A 
ATOM     36  C   UNL     1       2.229  -1.464  -2.864  0.00  0.00    +0.006 A 
ATOM     37 BR   UNL     1       3.981  -4.907  -4.359  0.00  0.00    -0.050 Br
ENDBRANCH  30  31
ENDBRANCH  25  30
ENDBRANCH   1  26
TORSDOF 6
