REMARK  Name = ZINC38701211
REMARK  10 active torsions:
REMARK  status: ('A' for Active; 'I' for Inactive)
REMARK    1  A    between atoms: C_1  and  C_2
REMARK    2  A    between atoms: C_2  and  O_3
REMARK    3  A    between atoms: O_3  and  C_4
REMARK    4  A    between atoms: C_8  and  C_10
REMARK    5  A    between atoms: C_15  and  O_24
REMARK    6  A    between atoms: C_19  and  N_23
REMARK    7  A    between atoms: C_20  and  C_21
REMARK    8  A    between atoms: O_24  and  C_25
REMARK    9  A    between atoms: C_25  and  C_27
REMARK   10  A    between atoms: C_28  and  C_37
REMARK                            x       y       z     vdW  Elec       q    Type
REMARK                         _______ _______ _______ _____ _____    ______ ____
ROOT
ATOM      1  C   UNL     1       2.183  -4.306  -3.813  0.00  0.00    +0.098 C 
ATOM      2  C   UNL     1       3.370  -5.122  -3.374  0.00  0.00    +0.008 A 
ATOM      3  C   UNL     1       4.553  -4.482  -3.049  0.00  0.00    +0.012 A 
ATOM      4  C   UNL     1       5.652  -5.214  -2.644  0.00  0.00    +0.047 A 
ATOM      5  C   UNL     1       5.572  -6.597  -2.563  0.00  0.00    +0.136 A 
ATOM      6  C   UNL     1       4.390  -7.241  -2.888  0.00  0.00    +0.093 A 
ATOM      7  C   UNL     1       3.285  -6.503  -3.294  0.00  0.00    +0.138 A 
ATOM      8  O   UNL     1       2.135  -7.148  -3.608  0.00  0.00    -0.441 OA
ATOM      9  C   UNL     1       1.203  -6.532  -4.354  0.00  0.00    +0.199 C 
ATOM     10  C   UNL     1       1.173  -5.188  -4.491  0.00  0.00    +0.098 C 
ENDROOT
BRANCH   1  15
ATOM     11  C   UNL     1       0.888  -1.681  -1.423  0.00  0.00    +0.121 A 
ATOM     12  C   UNL     1       0.390  -2.469  -0.395  0.00  0.00    +0.045 A 
ATOM     13  C   UNL     1       0.475  -3.845  -0.477  0.00  0.00    +0.004 A 
ATOM     14  C   UNL     1       1.054  -4.438  -1.583  0.00  0.00    +0.005 A 
ATOM     15  C   UNL     1       1.552  -3.656  -2.609  0.00  0.00    -0.031 A 
ATOM     16  C   UNL     1       1.465  -2.279  -2.534  0.00  0.00    +0.050 A 
BRANCH  11  17
ATOM     17  O   UNL     1       0.806  -0.327  -1.345  0.00  0.00    -0.492 OA
BRANCH  17  19
ATOM     18  C   UNL     1       0.197   1.746  -0.263  0.00  0.00    +0.048 C 
ATOM     19  C   UNL     1       0.200   0.219  -0.172  0.00  0.00    +0.225 C 
ENDBRANCH  17  19
ENDBRANCH  11  17
ENDBRANCH   1  15
BRANCH   9  20
ATOM     20  N   UNL     1       0.255  -7.290  -4.995  0.00  0.00    -0.328 N 
ATOM     21  H   UNL     1       0.264  -8.256  -4.905  0.00  0.00    +0.145 HD
ATOM     22  H   UNL     1      -0.424  -6.860  -5.538  0.00  0.00    +0.145 HD
ENDBRANCH   9  20
BRANCH  10  23
ATOM     23  C   UNL     1       0.152  -4.593  -5.300  0.00  0.00    +0.101 C 
ATOM     24  N   UNL     1      -0.657  -4.120  -5.942  0.00  0.00    -0.191 NA
ENDBRANCH  10  23
BRANCH   5  25
ATOM     25  O   UNL     1       6.653  -7.319  -2.165  0.00  0.00    -0.420 OA
BRANCH  25  26
ATOM     26  C   UNL     1       7.270  -8.092  -3.082  0.00  0.00    +0.380 C 
ATOM     27  O   UNL     1       6.923  -8.049  -4.246  0.00  0.00    -0.241 OA
BRANCH  26  28
ATOM     28  C   UNL     1       8.361  -8.985  -2.674  0.00  0.00    +0.216 A 
ATOM     29  C   UNL     1       9.056  -9.803  -3.508  0.00  0.00    +0.010 A 
ATOM     30  C   UNL     1      10.035 -10.497  -2.672  0.00  0.00    +0.025 A 
ATOM     31  C   UNL     1      11.026 -11.450  -2.920  0.00  0.00    +0.032 A 
ATOM     32  C   UNL     1      11.796 -11.911  -1.889  0.00  0.00    +0.042 A 
ATOM     33  C   UNL     1      11.597 -11.440  -0.597  0.00  0.00    +0.023 A 
ATOM     34  C   UNL     1      10.624 -10.500  -0.332  0.00  0.00    +0.048 A 
ATOM     35  C   UNL     1       9.830 -10.016  -1.365  0.00  0.00    +0.136 A 
ATOM     36  O   UNL     1       8.829  -9.115  -1.415  0.00  0.00    -0.448 OA
ATOM     37 CL   UNL     1      13.028 -13.095  -2.195  0.00  0.00    -0.084 Cl
ATOM     38  C   UNL     1       8.859  -9.962  -4.993  0.00  0.00    +0.048 C 
ENDBRANCH  26  28
ENDBRANCH  25  26
ENDBRANCH   5  25
TORSDOF 8
