REMARK  Name = ZINC34834977
REMARK  18 active torsions:
REMARK  status: ('A' for Active; 'I' for Inactive)
REMARK    1  A    between atoms: C_1  and  C_2
REMARK    2  A    between atoms: C_2  and  C_3
REMARK    3  A    between atoms: C_3  and  C_4
REMARK    4  A    between atoms: C_4  and  C_5
REMARK    5  A    between atoms: C_5  and  C_7
REMARK    6  A    between atoms: C_5  and  C_9
REMARK    7  A    between atoms: C_7  and  C_8
REMARK    8  A    between atoms: N_11  and  C_12
REMARK    9  A    between atoms: N_11  and  C_33
REMARK   10  A    between atoms: C_12  and  C_13
REMARK   11  A    between atoms: C_14  and  C_32
REMARK   12  A    between atoms: N_16  and  C_26
REMARK   13  A    between atoms: C_17  and  N_18
REMARK   14  A    between atoms: N_21  and  C_24
REMARK   15  A    between atoms: C_24  and  C_25
REMARK   16  A    between atoms: C_33  and  C_35
REMARK   17  A    between atoms: C_33  and  C_36
REMARK   18  A    between atoms: C_36  and  C_37
REMARK                            x       y       z     vdW  Elec       q    Type
REMARK                         _______ _______ _______ _____ _____    ______ ____
ROOT
ATOM      1  C   UNL     1       3.736  -7.560   1.402  0.00  0.00    +0.032 A 
ATOM      2  C   UNL     1       4.261  -7.438   0.112  0.00  0.00    +0.067 A 
ATOM      3  N   UNL     1       5.535  -7.732   0.153  0.00  0.00    -0.170 NA
ATOM      4  N   UNL     1       5.874  -8.054   1.474  0.00  0.00    -0.218 N 
ATOM      5  C   UNL     1       4.749  -7.936   2.231  0.00  0.00    +0.130 A 
ATOM      6  C   UNL     1       3.489  -7.036  -1.118  0.00  0.00    +0.068 C 
ENDROOT
BRANCH   5   7
ATOM      7  N   UNL     1       4.652  -8.161   3.601  0.00  0.00    -0.318 N 
ATOM      8  C   UNL     1       4.434  -9.516   4.131  0.00  0.00    +0.088 C 
ATOM      9  C   UNL     1       5.477  -9.784   5.222  0.00  0.00    -0.060 C 
ATOM     10  N   UNL     1       5.412  -8.721   6.232  0.00  0.00    +0.382 N 
ATOM     11  C   UNL     1       5.791  -7.436   5.630  0.00  0.00    -0.060 C 
ATOM     12  C   UNL     1       4.769  -7.052   4.561  0.00  0.00    +0.088 C 
ATOM     13  H   UNL     1       4.471  -8.658   6.592  0.00  0.00    -0.082 HD
BRANCH  10  14
ATOM     14  C   UNL     1       6.334  -9.035   7.332  0.00  0.00    -0.082 C 
ATOM     15  C   UNL     1       6.177  -7.995   8.442  0.00  0.00    -0.017 C 
ENDBRANCH  10  14
ENDBRANCH   5   7
BRANCH   4  16
ATOM     16  C   UNL     1       7.144  -8.425   1.934  0.00  0.00    +0.067 A 
ATOM     17  C   UNL     1       7.681  -7.818   3.061  0.00  0.00    +0.028 A 
ATOM     18  C   UNL     1       8.934  -8.186   3.512  0.00  0.00    +0.002 A 
ATOM     19  C   UNL     1       9.653  -9.159   2.842  0.00  0.00    +0.000 A 
ATOM     20  C   UNL     1       9.121  -9.766   1.719  0.00  0.00    +0.002 A 
ATOM     21  C   UNL     1       7.867  -9.406   1.267  0.00  0.00    +0.028 A 
ENDBRANCH   4  16
BRANCH   1  22
ATOM     22  C   UNL     1       2.305  -7.313   1.805  0.00  0.00    +0.148 C 
BRANCH  22  25
ATOM     23  C   UNL     1       1.575  -5.147   0.962  0.00  0.00    +0.219 C 
ATOM     24  O   UNL     1       1.355  -5.670  -0.110  0.00  0.00    -0.275 OA
ATOM     25  N   UNL     1       2.087  -5.874   1.974  0.00  0.00    -0.294 N 
BRANCH  25  26
ATOM     26  C   UNL     1       2.425  -5.226   3.244  0.00  0.00    +0.073 C 
ATOM     27  C   UNL     1       3.378  -4.058   2.982  0.00  0.00    +0.028 C 
BRANCH  26  28
ATOM     28  C   UNL     1       1.149  -4.705   3.907  0.00  0.00    +0.019 C 
ATOM     29  C   UNL     1       0.273  -5.887   4.327  0.00  0.00    +0.005 C 
ENDBRANCH  26  28
ENDBRANCH  25  26
BRANCH  23  30
ATOM     30  C   UNL     1       1.275  -3.683   1.162  0.00  0.00    +0.075 C 
BRANCH  30  31
ATOM     31  C   UNL     1      -0.190  -3.411   0.817  0.00  0.00    +0.009 C 
ATOM     32  C   UNL     1      -1.093  -4.164   1.795  0.00  0.00    +0.004 C 
ENDBRANCH  30  31
BRANCH  30  33
ATOM     33  C   UNL     1       2.177  -2.849   0.251  0.00  0.00    +0.013 C 
BRANCH  33  34
ATOM     34  C   UNL     1       1.962  -1.363   0.543  0.00  0.00    +0.000 C 
BRANCH  34  36
ATOM     35  C   UNL     1       2.649   0.959  -0.077  0.00  0.00    +0.004 C 
ATOM     36  C   UNL     1       2.864  -0.528  -0.369  0.00  0.00    -0.003 C 
ENDBRANCH  34  36
ENDBRANCH  33  34
ENDBRANCH  30  33
ENDBRANCH  23  30
ENDBRANCH  22  25
ENDBRANCH   1  22
TORSDOF 12
