REMARK  Name = ZINC04064452
REMARK  9 active torsions:
REMARK  status: ('A' for Active; 'I' for Inactive)
REMARK    1  A    between atoms: C_1  and  C_2
REMARK    2  A    between atoms: C_2  and  O_3
REMARK    3  A    between atoms: O_3  and  C_4
REMARK    4  A    between atoms: C_4  and  C_5
REMARK    5  A    between atoms: C_5  and  O_6
REMARK    6  A    between atoms: O_6  and  C_7
REMARK    7  A    between atoms: C_7  and  C_9
REMARK    8  A    between atoms: C_10  and  C_27
REMARK    9  A    between atoms: C_15  and  C_17
REMARK                            x       y       z     vdW  Elec       q    Type
REMARK                         _______ _______ _______ _____ _____    ______ ____
ROOT
ATOM      1  C   UNL     1       5.339  -1.952  -3.773  0.00  0.00    +0.078 C 
ATOM      2  C   UNL     1       6.314  -2.059  -4.702  0.00  0.00    +0.021 C 
ATOM      3  N   UNL     1       7.513  -1.427  -4.541  0.00  0.00    -0.273 N 
ATOM      4  C   UNL     1       7.817  -0.670  -3.480  0.00  0.00    +0.304 C 
ATOM      5  O   UNL     1       8.913  -0.146  -3.425  0.00  0.00    -0.252 OA
ATOM      6  N   UNL     1       6.947  -0.469  -2.470  0.00  0.00    -0.288 N 
ATOM      7  C   UNL     1       5.621  -1.103  -2.550  0.00  0.00    +0.145 C 
ATOM      8  C   UNL     1       6.073  -2.890  -5.936  0.00  0.00    +0.061 C 
ATOM      9  H   UNL     1       8.183  -1.533  -5.235  0.00  0.00    +0.156 HD
ATOM     10  H   UNL     1       7.188   0.084  -1.710  0.00  0.00    +0.151 HD
ENDROOT
BRANCH   7  11
ATOM     11  C   UNL     1       5.452  -1.973  -1.331  0.00  0.00    -0.005 A 
ATOM     12  C   UNL     1       6.539  -2.654  -0.814  0.00  0.00    +0.056 A 
ATOM     13  C   UNL     1       6.386  -3.454   0.306  0.00  0.00    +0.167 A 
ATOM     14  C   UNL     1       5.136  -3.571   0.909  0.00  0.00    +0.167 A 
ATOM     15  C   UNL     1       4.052  -2.886   0.387  0.00  0.00    +0.065 A 
ATOM     16  C   UNL     1       4.212  -2.084  -0.729  0.00  0.00    +0.027 A 
ATOM     17 BR   UNL     1       2.732  -1.144  -1.436  0.00  0.00    -0.050 Br
ATOM     18  O   UNL     1       5.247  -4.407   1.982  0.00  0.00    -0.453 OA
ATOM     19  C   UNL     1       6.482  -5.122   1.788  0.00  0.00    +0.466 C 
ATOM     20  O   UNL     1       7.279  -4.218   1.001  0.00  0.00    -0.453 OA
ENDBRANCH   7  11
BRANCH   1  21
ATOM     21  C   UNL     1       4.096  -2.606  -3.939  0.00  0.00    +0.339 C 
ATOM     22  O   UNL     1       3.880  -3.657  -3.365  0.00  0.00    -0.245 OA
BRANCH  21  23
ATOM     23  O   UNL     1       3.149  -2.064  -4.733  0.00  0.00    -0.459 OA
BRANCH  23  24
ATOM     24  C   UNL     1       1.885  -2.728  -4.781  0.00  0.00    +0.260 C 
BRANCH  24  25
ATOM     25  C   UNL     1       0.990  -2.047  -5.819  0.00  0.00    +0.201 C 
BRANCH  25  26
ATOM     26  O   UNL     1       1.547  -2.230  -7.122  0.00  0.00    -0.377 OA
BRANCH  26  28
ATOM     27  C   UNL     1       1.471  -1.886  -9.513  0.00  0.00    +0.034 C 
ATOM     28  C   UNL     1       0.784  -1.629  -8.170  0.00  0.00    +0.156 C 
ENDBRANCH  26  28
ENDBRANCH  25  26
ENDBRANCH  24  25
ENDBRANCH  23  24
ENDBRANCH  21  23
ENDBRANCH   1  21
TORSDOF 7
