REMARK  Name = ZINC08269586
REMARK  7 active torsions:
REMARK  status: ('A' for Active; 'I' for Inactive)
REMARK    1  A    between atoms: C_1  and  C_2
REMARK    2  A    between atoms: C_2  and  C_4
REMARK    3  A    between atoms: C_2  and  N_50
REMARK    4  A    between atoms: C_14  and  C_15
REMARK    5  A    between atoms: C_14  and  N_50
REMARK    6  A    between atoms: N_17  and  C_18
REMARK    7  A    between atoms: C_19  and  C_26
REMARK                            x       y       z     vdW  Elec       q    Type
REMARK                         _______ _______ _______ _____ _____    ______ ____
ROOT
ATOM      1  C   UNL     1      -0.742   1.585  -1.213  0.00  0.00    +0.201 C 
ATOM      2  O   UNL     1      -1.736   2.268  -1.088  0.00  0.00    -0.278 OA
ATOM      3  N   UNL     1      -0.288   1.272  -2.443  0.00  0.00    -0.281 N 
ATOM      4  H   UNL     1       0.507   0.726  -2.543  0.00  0.00    +0.155 HD
ENDROOT
BRANCH   3   5
ATOM      5  C   UNL     1      -0.959   1.732  -3.566  0.00  0.00    +0.084 A 
ATOM      6  C   UNL     1      -0.648   1.523  -4.899  0.00  0.00    +0.068 A 
ATOM      7  C   UNL     1      -1.530   2.121  -5.902  0.00  0.00    -0.023 A 
ATOM      8  C   UNL     1      -2.560   2.829  -5.406  0.00  0.00    -0.004 A 
ATOM      9  S   UNL     1      -2.384   2.711  -3.643  0.00  0.00    -0.077 S 
ATOM     10  C   UNL     1      -3.418   3.414  -6.496  0.00  0.00    +0.043 C 
ATOM     11  C   UNL     1      -3.035   2.617  -7.763  0.00  0.00    +0.010 C 
ATOM     12  C   UNL     1      -1.598   2.168  -7.429  0.00  0.00    +0.037 C 
BRANCH   6  13
ATOM     13  C   UNL     1       0.520   0.729  -5.292  0.00  0.00    +0.244 C 
ATOM     14  O   UNL     1       0.412  -0.472  -5.457  0.00  0.00    -0.270 OA
ATOM     15  N   UNL     1       1.714   1.329  -5.469  0.00  0.00    -0.325 N 
ATOM     16  H   UNL     1       1.800   2.286  -5.337  0.00  0.00    +0.145 HD
ATOM     17  H   UNL     1       2.487   0.803  -5.728  0.00  0.00    +0.145 HD
ENDBRANCH   6  13
ENDBRANCH   3   5
BRANCH   1  18
ATOM     18  C   UNL     1      -0.013   1.086   0.008  0.00  0.00    +0.016 C 
BRANCH  18  19
ATOM     19  N   UNL     1      -0.709   1.566   1.217  0.00  0.00    +0.389 N 
ATOM     20  H   UNL     1      -0.723   2.592   1.214  0.00  0.00    -0.084 HD
ATOM     21  H   UNL     1      -1.672   1.210   1.216  0.00  0.00    -0.084 HD
BRANCH  19  23
ATOM     22  C   UNL     1      -0.507  -0.315   2.781  0.00  0.00    -0.009 C 
ATOM     23  C   UNL     1      -0.016   1.091   2.429  0.00  0.00    -0.043 C 
BRANCH  23  24
ATOM     24  C   UNL     1      -0.318   2.028   3.570  0.00  0.00    -0.054 A 
ATOM     25  C   UNL     1      -1.456   2.776   3.559  0.00  0.00    +0.002 A 
ATOM     26  C   UNL     1      -1.752   3.647   4.605  0.00  0.00    +0.001 A 
ATOM     27  C   UNL     1      -0.912   3.777   5.668  0.00  0.00    +0.008 A 
ATOM     28  C   UNL     1       0.272   3.021   5.715  0.00  0.00    -0.018 A 
ATOM     29  C   UNL     1       0.570   2.131   4.654  0.00  0.00    -0.016 A 
ATOM     30  C   UNL     1       1.752   1.371   4.704  0.00  0.00    +0.009 A 
ATOM     31  C   UNL     1       2.588   1.496   5.770  0.00  0.00    +0.001 A 
ATOM     32  C   UNL     1       2.292   2.368   6.816  0.00  0.00    +0.001 A 
ATOM     33  C   UNL     1       1.163   3.127   6.797  0.00  0.00    +0.008 A 
ENDBRANCH  23  24
ENDBRANCH  19  23
ENDBRANCH  18  19
ENDBRANCH   1  18
TORSDOF 6
