REMARK  Name = ZINC26225262
REMARK  10 active torsions:
REMARK  status: ('A' for Active; 'I' for Inactive)
REMARK    1  A    between atoms: C_1  and  N_2
REMARK    2  A    between atoms: N_2  and  C_3
REMARK    3  A    between atoms: N_2  and  C_17
REMARK    4  A    between atoms: C_3  and  C_4
REMARK    5  A    between atoms: C_4  and  C_5
REMARK    6  A    between atoms: N_7  and  C_8
REMARK    7  A    between atoms: C_13  and  N_14
REMARK    8  A    between atoms: C_17  and  C_18
REMARK    9  A    between atoms: C_23  and  O_24
REMARK   10  A    between atoms: O_24  and  C_25
REMARK                            x       y       z     vdW  Elec       q    Type
REMARK                         _______ _______ _______ _____ _____    ______ ____
ROOT
ATOM      1  C   UNL     1      -6.005  -1.236   0.663  0.00  0.00    -0.070 C 
ENDROOT
BRANCH   1   3
ATOM      2  C   UNL     1      -7.648  -0.050  -0.663  0.00  0.00    -0.096 C 
ATOM      3  N   UNL     1      -7.321  -0.584   0.666  0.00  0.00    +0.381 N 
ATOM      4  H   UNL     1      -7.278   0.262   1.369  0.00  0.00    -0.082 HD
BRANCH   3   5
ATOM      5  C   UNL     1      -8.365  -1.506   1.134  0.00  0.00    -0.040 C 
BRANCH   5   6
ATOM      6  C   UNL     1      -9.645  -0.743   1.358  0.00  0.00    -0.021 A 
ATOM      7  C   UNL     1     -10.012  -0.368   2.636  0.00  0.00    +0.020 A 
ATOM      8  C   UNL     1     -11.185   0.336   2.842  0.00  0.00    +0.018 A 
ATOM      9  C   UNL     1     -11.998   0.657   1.770  0.00  0.00    +0.019 A 
ATOM     10  C   UNL     1     -11.638   0.280   0.491  0.00  0.00    +0.047 A 
ATOM     11  C   UNL     1     -10.460  -0.422   0.282  0.00  0.00    +0.121 A 
ATOM     12 BR   UNL     1     -11.680   0.855   4.592  0.00  0.00    -0.050 Br
BRANCH  11  13
ATOM     13  O   UNL     1     -10.104  -0.795  -0.976  0.00  0.00    -0.495 OA
ATOM     14  C   UNL     1     -10.990  -0.431  -2.036  0.00  0.00    +0.277 C 
ENDBRANCH  11  13
ENDBRANCH   5   6
ENDBRANCH   3   5
ENDBRANCH   1   3
BRANCH   1  15
ATOM     15  C   UNL     1      -4.918  -0.189   0.414  0.00  0.00    +0.077 C 
BRANCH  15  16
ATOM     16  C   UNL     1      -3.567  -0.859   0.411  0.00  0.00    +0.215 C 
ATOM     17  O   UNL     1      -3.483  -2.055   0.590  0.00  0.00    -0.276 OA
ATOM     18  N   UNL     1      -2.453  -0.128   0.209  0.00  0.00    -0.284 N 
ATOM     19  H   UNL     1      -2.520   0.968   0.133  0.00  0.00    +0.155 HD
BRANCH  18  20
ATOM     20  C   UNL     1      -1.211  -0.762   0.096  0.00  0.00    +0.064 A 
ATOM     21  C   UNL     1      -1.118  -2.005  -0.517  0.00  0.00    +0.025 A 
ATOM     22  C   UNL     1       0.109  -2.628  -0.628  0.00  0.00    +0.002 A 
ATOM     23  C   UNL     1       1.245  -2.016  -0.129  0.00  0.00    +0.002 A 
ATOM     24  C   UNL     1       1.156  -0.776   0.477  0.00  0.00    +0.034 A 
ATOM     25  C   UNL     1      -0.069  -0.150   0.596  0.00  0.00    +0.147 A 
BRANCH  25  26
ATOM     26  N   UNL     1      -0.165   1.174   1.250  0.00  0.00    +0.058 N 
ATOM     27  O   UNL     1       0.820   1.670   1.767  0.00  0.00    -0.126 OA
ATOM     28  O   UNL     1      -1.226   1.770   1.266  0.00  0.00    -0.126 OA
ENDBRANCH  25  26
ENDBRANCH  18  20
ENDBRANCH  15  16
ENDBRANCH   1  15
TORSDOF 8
