REMARK  Name = ZINC35890557
REMARK  5 active torsions:
REMARK  status: ('A' for Active; 'I' for Inactive)
REMARK    1  A    between atoms: C_4  and  C_7
REMARK    2  A    between atoms: C_7  and  C_8
REMARK    3  A    between atoms: N_24  and  C_27
REMARK    4  A    between atoms: C_27  and  C_28
REMARK    5  A    between atoms: C_31  and  C_34
REMARK                            x       y       z     vdW  Elec       q    Type
REMARK                         _______ _______ _______ _____ _____    ______ ____
ROOT
ATOM      1  C   UNL     1       5.422  -4.590   1.644  0.00  0.00    +0.145 A 
ATOM      2  N   UNL     1       6.477  -4.806   2.385  0.00  0.00    -0.133 NA
ATOM      3  N   UNL     1       6.396  -4.138   3.483  0.00  0.00    -0.129 NA
ATOM      4  C   UNL     1       5.277  -3.456   3.501  0.00  0.00    +0.173 A 
ATOM      5  N   UNL     1       4.621  -3.720   2.320  0.00  0.00    -0.250 N 
ATOM      6  C   UNL     1       3.412  -3.133   2.058  0.00  0.00    +0.206 A 
ATOM      7  N   UNL     1       2.832  -2.309   2.891  0.00  0.00    -0.215 NA
ATOM      8  C   UNL     1       3.389  -1.974   4.082  0.00  0.00    +0.078 A 
ATOM      9  C   UNL     1       4.634  -2.537   4.447  0.00  0.00    +0.045 A 
ATOM     10  C   UNL     1       5.219  -2.202   5.665  0.00  0.00    +0.014 A 
ATOM     11  C   UNL     1       4.571  -1.333   6.517  0.00  0.00    +0.001 A 
ATOM     12  C   UNL     1       3.341  -0.792   6.169  0.00  0.00    +0.002 A 
ATOM     13  C   UNL     1       2.755  -1.093   4.960  0.00  0.00    +0.028 A 
ATOM     14  N   UNL     1       2.782  -3.421   0.872  0.00  0.00    -0.304 N 
ATOM     15  C   UNL     1       2.882  -2.509  -0.278  0.00  0.00    +0.089 C 
ATOM     16  C   UNL     1       1.470  -2.234  -0.805  0.00  0.00    -0.059 C 
ATOM     17  N   UNL     1       0.801  -3.509  -1.098  0.00  0.00    +0.384 N 
ATOM     18  C   UNL     1       0.619  -4.274   0.142  0.00  0.00    -0.059 C 
ATOM     19  C   UNL     1       1.994  -4.653   0.713  0.00  0.00    +0.089 C 
ATOM     20  H   UNL     1       1.365  -4.043  -1.742  0.00  0.00    -0.081 HD
ENDROOT
BRANCH   1  21
ATOM     21  C   UNL     1       5.146  -5.189   0.289  0.00  0.00    +0.112 C 
BRANCH  21  25
ATOM     22  C   UNL     1       8.461  -7.605  -0.904  0.00  0.00    +0.000 A 
ATOM     23  C   UNL     1       7.217  -8.179  -0.723  0.00  0.00    +0.000 A 
ATOM     24  C   UNL     1       6.144  -7.397  -0.337  0.00  0.00    +0.004 A 
ATOM     25  C   UNL     1       6.316  -6.041  -0.131  0.00  0.00    -0.040 A 
ATOM     26  C   UNL     1       7.560  -5.467  -0.311  0.00  0.00    +0.004 A 
ATOM     27  C   UNL     1       8.633  -6.248  -0.699  0.00  0.00    +0.000 A 
ENDBRANCH  21  25
ENDBRANCH   1  21
BRANCH  17  28
ATOM     28  C   UNL     1      -0.510  -3.243  -1.705  0.00  0.00    -0.043 C 
BRANCH  28  29
ATOM     29  C   UNL     1      -1.145  -4.546  -2.118  0.00  0.00    -0.064 A 
ATOM     30  C   UNL     1      -0.915  -5.056  -3.382  0.00  0.00    +0.002 A 
ATOM     31  C   UNL     1      -1.497  -6.251  -3.762  0.00  0.00    +0.012 A 
ATOM     32  C   UNL     1      -2.309  -6.936  -2.877  0.00  0.00    +0.055 A 
ATOM     33  C   UNL     1      -2.538  -6.426  -1.613  0.00  0.00    +0.012 A 
ATOM     34  C   UNL     1      -1.952  -5.234  -1.232  0.00  0.00    +0.002 A 
BRANCH  32  35
ATOM     35  C   UNL     1      -2.945  -8.238  -3.291  0.00  0.00    +0.417 C 
ATOM     36  F   UNL     1      -2.092  -9.298  -2.964  0.00  0.00    -0.166 F 
ATOM     37  F   UNL     1      -4.162  -8.397  -2.621  0.00  0.00    -0.166 F 
ATOM     38  F   UNL     1      -3.170  -8.229  -4.672  0.00  0.00    -0.166 F 
ENDBRANCH  32  35
ENDBRANCH  28  29
ENDBRANCH  17  28
TORSDOF 5
