REMARK  Name = ZINC12891288
REMARK  15 active torsions:
REMARK  status: ('A' for Active; 'I' for Inactive)
REMARK    1  A    between atoms: CD1_1  and  CG1_2
REMARK    2  A    between atoms: CG1_2  and  CB_3
REMARK    3  A    between atoms: CB_3  and  CG2_5
REMARK    4  A    between atoms: CB_3  and  CA_6
REMARK    5  A    between atoms: CA_6  and  C_8
REMARK    6  A    between atoms: CA_6  and  N_19
REMARK    7  A    between atoms: N_10  and  CA_11
REMARK    8  A    between atoms: CA_11  and  CB_13
REMARK    9  A    between atoms: CA_11  and  C_17
REMARK   10  A    between atoms: CB_13  and  CG_14
REMARK   11  A    between atoms: CG_14  and  SD_15
REMARK   12  A    between atoms: SD_15  and  CE_16
REMARK   13  A    between atoms: C_32  and  C_34
REMARK   14  A    between atoms: C_34  and  C_35
REMARK   15  A    between atoms: C_34  and  C_36
REMARK                            x       y       z     vdW  Elec       q    Type
REMARK                         _______ _______ _______ _____ _____    ______ ____
ROOT
ATOM      1  N   MET A   1      -1.904   5.562   0.854  0.00  0.00    -0.287 N 
ATOM      2  C   UNK A   0      -3.060   5.087   0.349  0.00  0.00    +0.308 C 
ATOM      3  O   UNK A   0      -4.114   5.621   0.635  0.00  0.00    -0.252 OA
ATOM      4  N   UNK A   0      -3.047   4.018  -0.473  0.00  0.00    -0.242 N 
ATOM      5  C   UNK A   0      -4.243   3.435  -0.921  0.00  0.00    +0.060 A 
ATOM      6  C   UNK A   0      -5.392   3.481  -0.152  0.00  0.00    +0.025 A 
ATOM      7  C   UNK A   0      -6.553   2.891  -0.619  0.00  0.00    +0.002 A 
ATOM      8  C   UNK A   0      -6.566   2.257  -1.848  0.00  0.00    +0.002 A 
ATOM      9  C   UNK A   0      -5.421   2.208  -2.621  0.00  0.00    +0.025 A 
ATOM     10  C   UNK A   0      -4.253   2.794  -2.161  0.00  0.00    +0.055 A 
ATOM     11  N   UNK A   0      -3.087   2.770  -2.935  0.00  0.00    -0.282 N 
ATOM     12  C   UNK A   0      -1.896   3.087  -2.393  0.00  0.00    +0.238 C 
ATOM     13  O   UNK A   0      -0.904   3.099  -3.091  0.00  0.00    -0.273 OA
ATOM     14  C   UNK A   0      -1.780   3.427  -0.929  0.00  0.00    +0.171 C 
ATOM     15  H   MET A   1      -1.058   5.179   0.573  0.00  0.00    +0.151 HD
ATOM     16  H   UNK A   0      -3.137   2.519  -3.870  0.00  0.00    +0.155 HD
ENDROOT
BRANCH  14  17
ATOM     17  C   UNK A   0      -1.491   2.155  -0.129  0.00  0.00    +0.013 C 
ATOM     18  C   UNK A   0      -0.173   1.542  -0.606  0.00  0.00    +0.009 C 
ATOM     19  C   UNK A   0      -1.385   2.501   1.357  0.00  0.00    +0.009 C 
ENDBRANCH  14  17
BRANCH   1  20
ATOM     20  CA  MET A   1      -1.926   6.657   1.827  0.00  0.00    +0.163 C 
BRANCH  20  21
ATOM     21  C   MET A   1      -0.655   7.459   1.710  0.00  0.00    +0.234 C 
ATOM     22  O   MET A   1       0.327   6.967   1.196  0.00  0.00    -0.274 OA
ATOM     23  N   MET A   1      -0.611   8.723   2.175  0.00  0.00    -0.301 N 
ATOM     24  H   MET A   1      -1.370   9.090   2.654  0.00  0.00    +0.150 HD
BRANCH  23  25
ATOM     25  CA  MET A   1       0.585   9.542   1.957  0.00  0.00    +0.187 C 
BRANCH  25  26
ATOM     26  C   MET A   1       1.591   9.260   3.043  0.00  0.00    +0.376 C 
ATOM     27  O   MET A   1       1.337   8.458   3.909  0.00  0.00    -0.244 OA
ATOM     28  OXT MET A   1       2.771   9.901   3.047  0.00  0.00    -0.244 OA
ENDBRANCH  25  26
BRANCH  25  29
ATOM     29  CB  MET A   1       0.201  11.023   1.989  0.00  0.00    +0.044 C 
BRANCH  29  30
ATOM     30  CG  MET A   1      -0.725  11.335   0.812  0.00  0.00    +0.071 C 
BRANCH  30  31
ATOM     31  SD  MET A   1      -1.180  13.091   0.850  0.00  0.00    -0.164 S 
ATOM     32  CE  MET A   1      -2.263  13.295  -0.591  0.00  0.00    +0.084 C 
ENDBRANCH  30  31
ENDBRANCH  29  30
ENDBRANCH  25  29
ENDBRANCH  23  25
ENDBRANCH  20  21
BRANCH  20  33
ATOM     33  CB  MET A   1      -2.036   6.081   3.241  0.00  0.00    +0.015 C 
ATOM     34  CG2 MET A   1      -0.782   5.263   3.558  0.00  0.00    +0.010 C 
BRANCH  33  36
ATOM     35  CD1 MET A   1      -3.499   7.946   4.030  0.00  0.00    +0.004 C 
ATOM     36  CG1 MET A   1      -2.168   7.224   4.248  0.00  0.00    +0.002 C 
ENDBRANCH  33  36
ENDBRANCH  20  33
ENDBRANCH   1  20
TORSDOF 10
