REMARK  Name = ZINC06198002
REMARK  13 active torsions:
REMARK  status: ('A' for Active; 'I' for Inactive)
REMARK    1  A    between atoms: C_1  and  C_2
REMARK    2  A    between atoms: C_2  and  C_3
REMARK    3  A    between atoms: C_10  and  C_15
REMARK    4  A    between atoms: C_15  and  C_17
REMARK    5  A    between atoms: C_15  and  N_67
REMARK    6  A    between atoms: N_21  and  C_22
REMARK    7  A    between atoms: C_22  and  C_23
REMARK    8  A    between atoms: C_23  and  O_24
REMARK    9  A    between atoms: O_24  and  C_25
REMARK   10  A    between atoms: C_26  and  C_27
REMARK   11  A    between atoms: C_26  and  N_67
REMARK   12  A    between atoms: C_33  and  C_34
REMARK   13  A    between atoms: C_33  and  N_67
REMARK                            x       y       z     vdW  Elec       q    Type
REMARK                         _______ _______ _______ _____ _____    ______ ____
ROOT
ATOM      1  C   UNL     1       5.259  -1.724  -2.355  0.00  0.00    +0.040 C 
ENDROOT
BRANCH   1   9
ATOM      2  C   UNL     1       5.774  -3.627  -8.220  0.00  0.00    -0.047 A 
ATOM      3  C   UNL     1       6.375  -2.474  -8.706  0.00  0.00    +0.005 A 
ATOM      4  C   UNL     1       6.638  -1.411  -7.868  0.00  0.00    +0.026 A 
ATOM      5  C   UNL     1       6.300  -1.494  -6.521  0.00  0.00    +0.049 A 
ATOM      6  C   UNL     1       5.691  -2.665  -6.033  0.00  0.00    -0.001 A 
ATOM      7  C   UNL     1       5.433  -3.730  -6.901  0.00  0.00    +0.013 A 
ATOM      8  C   UNL     1       5.337  -2.741  -4.614  0.00  0.00    +0.017 A 
ATOM      9  C   UNL     1       5.611  -1.677  -3.820  0.00  0.00    +0.011 A 
ATOM     10  C   UNL     1       6.218  -0.524  -4.361  0.00  0.00    +0.251 A 
ATOM     11  O   UNL     1       6.450   0.424  -3.630  0.00  0.00    -0.268 OA
ATOM     12  N   UNL     1       6.551  -0.446  -5.661  0.00  0.00    -0.322 N 
ATOM     13  H   UNL     1       6.987   0.384  -6.010  0.00  0.00    +0.169 HD
BRANCH   2  15
ATOM     14  C   UNL     1       4.104  -4.611  -9.765  0.00  0.00    +0.009 C 
ATOM     15  C   UNL     1       5.497  -4.776  -9.155  0.00  0.00    +0.032 C 
ENDBRANCH   2  15
ENDBRANCH   1   9
BRANCH   1  16
ATOM     16  C   UNL     1       6.522  -1.680  -1.534  0.00  0.00    +0.143 A 
ATOM     17  N   UNL     1       7.194  -0.610  -1.186  0.00  0.00    -0.115 NA
ATOM     18  N   UNL     1       8.209  -0.986  -0.488  0.00  0.00    -0.023 NA
ATOM     19  N   UNL     1       8.208  -2.269  -0.389  0.00  0.00    -0.044 NA
ATOM     20  N   UNL     1       7.184  -2.734  -1.021  0.00  0.00    -0.228 N 
BRANCH  20  21
ATOM     21  C   UNL     1       6.810  -4.145  -1.154  0.00  0.00    +0.175 C 
BRANCH  21  22
ATOM     22  C   UNL     1       7.466  -4.730  -2.406  0.00  0.00    +0.183 C 
BRANCH  22  23
ATOM     23  O   UNL     1       7.102  -6.106  -2.536  0.00  0.00    -0.381 OA
ATOM     24  C   UNL     1       7.665  -6.751  -3.680  0.00  0.00    +0.194 C 
ENDBRANCH  22  23
ENDBRANCH  21  22
ENDBRANCH  20  21
ENDBRANCH   1  16
BRANCH   1  25
ATOM     25  N   UNL     1       4.433  -0.546  -2.017  0.00  0.00    +0.397 N 
ATOM     26  H   UNL     1       5.028   0.290  -2.014  0.00  0.00    -0.079 HD
BRANCH  25  27
ATOM     27  C   UNL     1       3.365  -0.372  -3.024  0.00  0.00    -0.041 C 
BRANCH  27  28
ATOM     28  C   UNL     1       2.680   0.949  -2.784  0.00  0.00    -0.064 A 
ATOM     29  C   UNL     1       3.157   2.095  -3.391  0.00  0.00    +0.002 A 
ATOM     30  C   UNL     1       2.528   3.307  -3.170  0.00  0.00    +0.000 A 
ATOM     31  C   UNL     1       1.423   3.371  -2.342  0.00  0.00    +0.000 A 
ATOM     32  C   UNL     1       0.947   2.224  -1.735  0.00  0.00    +0.000 A 
ATOM     33  C   UNL     1       1.575   1.013  -1.956  0.00  0.00    +0.002 A 
ENDBRANCH  27  28
ENDBRANCH  25  27
BRANCH  25  34
ATOM     34  C   UNL     1       3.837  -0.716  -0.674  0.00  0.00    -0.001 C 
BRANCH  34  35
ATOM     35  C   UNL     1       4.904  -0.473   0.362  0.00  0.00    +0.089 A 
ATOM     36  C   UNL     1       5.299   0.729   0.818  0.00  0.00    +0.042 A 
ATOM     37  C   UNL     1       6.314   0.491   1.773  0.00  0.00    +0.041 A 
ATOM     38  C   UNL     1       6.478  -0.842   1.844  0.00  0.00    +0.195 A 
ATOM     39  O   UNL     1       5.617  -1.421   0.991  0.00  0.00    -0.470 OA
ENDBRANCH  34  35
ENDBRANCH  25  34
ENDBRANCH   1  25
TORSDOF 11
