REMARK  Name = ZINC13217722
REMARK  8 active torsions:
REMARK  status: ('A' for Active; 'I' for Inactive)
REMARK    1  A    between atoms: C_4  and  O_32
REMARK    2  A    between atoms: C_5  and  C_7
REMARK    3  A    between atoms: C_9  and  C_25
REMARK    4  A    between atoms: N_13  and  C_14
REMARK    5  A    between atoms: C_17  and  C_20
REMARK    6  A    between atoms: C_20  and  C_21
REMARK    7  A    between atoms: C_25  and  C_27
REMARK    8  A    between atoms: O_32  and  C_33
REMARK                            x       y       z     vdW  Elec       q    Type
REMARK                         _______ _______ _______ _____ _____    ______ ____
ROOT
ATOM      1  C   UNL     1       1.058  -1.923   0.154  0.00  0.00    +0.153 C 
ATOM      2  C   UNL     1       1.174  -2.640   1.480  0.00  0.00    +0.080 C 
ATOM      3  C   UNL     1       0.185  -3.563   1.511  0.00  0.00    +0.250 C 
ATOM      4  C   UNL     1      -0.587  -3.492   0.256  0.00  0.00    +0.292 C 
ATOM      5  O   UNL     1      -1.541  -4.194  -0.017  0.00  0.00    -0.266 OA
ATOM      6  N   UNL     1      -0.080  -2.534  -0.543  0.00  0.00    -0.253 N 
ATOM      7  O   UNL     1      -0.057  -4.418   2.533  0.00  0.00    -0.282 OA
ENDROOT
BRANCH   1  12
ATOM      8  C   UNL     1       1.473   1.829   0.125  0.00  0.00    +0.001 A 
ATOM      9  C   UNL     1       0.333   2.241   0.791  0.00  0.00    +0.004 A 
ATOM     10  C   UNL     1      -0.574   1.308   1.253  0.00  0.00    +0.046 A 
ATOM     11  C   UNL     1      -0.342  -0.045   1.047  0.00  0.00    +0.132 A 
ATOM     12  C   UNL     1       0.802  -0.456   0.379  0.00  0.00    +0.020 A 
ATOM     13  C   UNL     1       1.707   0.482  -0.081  0.00  0.00    +0.009 A 
BRANCH  11  14
ATOM     14  O   UNL     1      -1.232  -0.965   1.501  0.00  0.00    -0.434 OA
BRANCH  14  15
ATOM     15  C   UNL     1      -2.325  -0.480   2.284  0.00  0.00    +0.541 C 
ATOM     16  F   UNL     1      -1.832   0.250   3.371  0.00  0.00    -0.166 F 
ATOM     17  F   UNL     1      -3.133   0.346   1.495  0.00  0.00    -0.166 F 
ENDBRANCH  14  15
ENDBRANCH  11  14
ENDBRANCH   1  12
BRANCH   6  18
ATOM     18  C   UNL     1      -0.552  -2.182  -1.811  0.00  0.00    +0.038 A 
ATOM     19  C   UNL     1       0.073  -1.173  -2.532  0.00  0.00    +0.024 A 
ATOM     20  C   UNL     1      -0.396  -0.829  -3.784  0.00  0.00    +0.006 A 
ATOM     21  C   UNL     1      -1.488  -1.487  -4.321  0.00  0.00    -0.037 A 
ATOM     22  C   UNL     1      -2.113  -2.492  -3.606  0.00  0.00    +0.006 A 
ATOM     23  C   UNL     1      -1.645  -2.845  -2.355  0.00  0.00    +0.024 A 
BRANCH  21  24
ATOM     24  C   UNL     1      -1.998  -1.108  -5.687  0.00  0.00    +0.160 C 
BRANCH  24  25
ATOM     25  C   UNL     1      -1.300  -1.940  -6.732  0.00  0.00    +0.360 C 
ATOM     26  O   UNL     1      -0.466  -2.764  -6.398  0.00  0.00    -0.246 OA
ATOM     27  O   UNL     1      -1.569  -1.788  -7.912  0.00  0.00    -0.246 OA
ENDBRANCH  24  25
ENDBRANCH  21  24
ENDBRANCH   6  18
BRANCH   2  28
ATOM     28  C   UNL     1       2.166  -2.383   2.529  0.00  0.00    +0.230 C 
ATOM     29  O   UNL     1       2.069  -2.940   3.609  0.00  0.00    -0.283 OA
BRANCH  28  30
ATOM     30  C   UNL     1       3.274  -1.457   2.280  0.00  0.00    +0.175 A 
ATOM     31  C   UNL     1       4.196  -1.024   3.209  0.00  0.00    +0.053 A 
ATOM     32  C   UNL     1       5.066  -0.156   2.534  0.00  0.00    +0.042 A 
ATOM     33  C   UNL     1       4.651  -0.094   1.248  0.00  0.00    +0.196 A 
ATOM     34  O   UNL     1       3.578  -0.880   1.098  0.00  0.00    -0.460 OA
ENDBRANCH  28  30
ENDBRANCH   2  28
TORSDOF 8
