REMARK  Name = ZINC62709971
REMARK  6 active torsions:
REMARK  status: ('A' for Active; 'I' for Inactive)
REMARK    1  A    between atoms: C_1  and  C_2
REMARK    2  A    between atoms: C_2  and  C_3
REMARK    3  A    between atoms: C_2  and  C_4
REMARK    4  A    between atoms: C_14  and  N_16
REMARK    5  A    between atoms: C_17  and  N_23
REMARK    6  A    between atoms: C_18  and  C_21
REMARK                            x       y       z     vdW  Elec       q    Type
REMARK                         _______ _______ _______ _____ _____    ______ ____
ROOT
ATOM      1  C   UNL     1      -1.412  -0.526   0.013  0.00  0.00    -0.003 A 
ATOM      2  C   UNL     1      -2.262  -0.206   1.055  0.00  0.00    +0.007 A 
ATOM      3  C   UNL     1      -3.560  -0.682   1.064  0.00  0.00    +0.001 A 
ATOM      4  C   UNL     1      -4.016  -1.475   0.025  0.00  0.00    +0.009 A 
ATOM      5  C   UNL     1      -3.167  -1.790  -1.017  0.00  0.00    +0.019 A 
ATOM      6  C   UNL     1      -1.869  -1.325  -1.027  0.00  0.00    +0.129 A 
ATOM      7  O   UNL     1      -1.023  -1.673  -2.036  0.00  0.00    -0.491 OA
ATOM      8  C   UNL     1      -0.609  -3.043  -2.051  0.00  0.00    +0.229 C 
ATOM      9  C   UNL     1      -1.602  -3.900  -2.809  0.00  0.00    +0.043 C 
ATOM     10  C   UNL     1      -2.966  -3.982  -2.139  0.00  0.00    +0.035 C 
ATOM     11  C   UNL     1      -3.667  -2.636  -2.171  0.00  0.00    +0.143 C 
ENDROOT
BRANCH  11  12
ATOM     12  N   UNL     1      -5.114  -2.831  -2.048  0.00  0.00    -0.242 N 
ATOM     13  C   UNL     1      -6.040  -2.454  -2.955  0.00  0.00    +0.133 A 
ATOM     14  C   UNL     1      -7.282  -2.826  -2.449  0.00  0.00    +0.110 A 
ATOM     15  C   UNL     1      -7.052  -3.442  -1.197  0.00  0.00    +0.155 A 
ATOM     16  N   UNL     1      -5.768  -3.444  -0.974  0.00  0.00    -0.176 NA
BRANCH  13  17
ATOM     17  N   UNL     1      -5.800  -1.819  -4.158  0.00  0.00    -0.342 N 
ATOM     18  H   UNL     1      -4.891  -1.602  -4.419  0.00  0.00    +0.144 HD
ATOM     19  H   UNL     1      -6.540  -1.589  -4.742  0.00  0.00    +0.144 HD
ENDBRANCH  13  17
BRANCH  14  20
ATOM     20  C   UNL     1      -8.553  -2.622  -3.077  0.00  0.00    +0.104 C 
ATOM     21  N   UNL     1      -9.561  -2.460  -3.575  0.00  0.00    -0.191 NA
ENDBRANCH  14  20
ENDBRANCH  11  12
BRANCH   1  23
ATOM     22  C   UNL     1      -0.019   1.526   0.010  0.00  0.00    +0.012 C 
ATOM     23  C   UNL     1       0.002  -0.004   0.002  0.00  0.00    +0.016 C 
ATOM     24  C   UNL     1       0.742  -0.511   1.242  0.00  0.00    +0.012 C 
ENDBRANCH   1  23
TORSDOF 4
