REMARK  Name = ZINC14996622
REMARK  13 active torsions:
REMARK  status: ('A' for Active; 'I' for Inactive)
REMARK    1  A    between atoms: C_1  and  C_2
REMARK    2  A    between atoms: C_2  and  C_3
REMARK    3  A    between atoms: C_3  and  C_4
REMARK    4  A    between atoms: C_6  and  C_9
REMARK    5  A    between atoms: C_14  and  C_17
REMARK    6  A    between atoms: C_17  and  C_28
REMARK    7  A    between atoms: N_20  and  C_24
REMARK    8  A    between atoms: C_24  and  C_25
REMARK    9  A    between atoms: C_25  and  N_73
REMARK   10  A    between atoms: C_26  and  N_73
REMARK   11  A    between atoms: C_27  and  N_73
REMARK   12  A    between atoms: C_28  and  C_29
REMARK   13  A    between atoms: C_29  and  C_30
REMARK                            x       y       z     vdW  Elec       q    Type
REMARK                         _______ _______ _______ _____ _____    ______ ____
ROOT
ATOM      1  C   UNL     1       1.438   1.658   0.004  0.00  0.00    +0.116 C 
ATOM      2  C   UNL     1       2.222   0.361   0.030  0.00  0.00    +0.247 C 
ATOM      3  O   UNL     1       3.428   0.234   0.033  0.00  0.00    -0.273 OA
ATOM      4  N   UNL     1       1.300  -0.622   0.050  0.00  0.00    -0.226 N 
ATOM      5  C   UNL     1       0.056  -0.131   0.039  0.00  0.00    +0.309 C 
ATOM      6  O   UNL     1      -0.944  -0.823   0.053  0.00  0.00    -0.252 OA
ATOM      7  N   UNL     1       0.034   1.214   0.012  0.00  0.00    -0.285 N 
ATOM      8  H   UNL     1      -0.753   1.780  -0.003  0.00  0.00    +0.151 HD
ENDROOT
BRANCH   1  14
ATOM      9  C   UNL     1       4.126   2.985   4.557  0.00  0.00    +0.268 C 
ATOM     10  O   UNL     1       3.856   2.410   5.593  0.00  0.00    -0.268 OA
ATOM     11  N   UNL     1       3.190   3.118   3.596  0.00  0.00    -0.296 N 
ATOM     12  C   UNL     1       1.874   2.481   3.740  0.00  0.00    +0.108 C 
ATOM     13  C   UNL     1       1.600   1.628   2.497  0.00  0.00    +0.025 C 
ATOM     14  C   UNL     1       1.745   2.497   1.246  0.00  0.00    +0.024 C 
ATOM     15  C   UNL     1       3.175   3.034   1.158  0.00  0.00    +0.025 C 
ATOM     16  C   UNL     1       3.467   3.903   2.385  0.00  0.00    +0.108 C 
BRANCH   9  19
ATOM     17  C   UNL     1       7.596   4.068   4.575  0.00  0.00    +0.138 A 
ATOM     18  C   UNL     1       6.613   3.380   5.202  0.00  0.00    +0.080 A 
ATOM     19  C   UNL     1       5.486   3.540   4.350  0.00  0.00    +0.168 A 
ATOM     20  N   UNL     1       5.889   4.282   3.349  0.00  0.00    -0.073 NA
ATOM     21  O   UNL     1       7.055   4.581   3.462  0.00  0.00    -0.359 OA
BRANCH  17  22
ATOM     22  C   UNL     1       9.019   4.231   5.042  0.00  0.00    +0.077 C 
BRANCH  22  24
ATOM     23  C   UNL     1      11.321   3.263   4.943  0.00  0.00    +0.004 C 
ATOM     24  C   UNL     1       9.875   3.099   4.470  0.00  0.00    +0.004 C 
ENDBRANCH  22  24
ENDBRANCH  17  22
ENDBRANCH   9  19
ENDBRANCH   1  14
BRANCH   4  25
ATOM     25  C   UNL     1       1.621  -2.051   0.078  0.00  0.00    +0.099 C 
BRANCH  25  26
ATOM     26  C   UNL     1       1.733  -2.577  -1.355  0.00  0.00    -0.060 C 
BRANCH  26  29
ATOM     27  C   UNL     1       0.947  -4.787  -0.754  0.00  0.00    -0.097 C 
ATOM     28  C   UNL     1       2.403  -4.498  -2.668  0.00  0.00    -0.097 C 
ATOM     29  N   UNL     1       2.078  -4.014  -1.310  0.00  0.00    +0.377 N 
ATOM     30  H   UNL     1       2.898  -4.141  -0.705  0.00  0.00    -0.083 HD
ENDBRANCH  26  29
ENDBRANCH  25  26
ENDBRANCH   4  25
BRANCH   1  31
ATOM     31  C   UNL     1       1.746   2.447  -1.271  0.00  0.00    +0.040 C 
BRANCH  31  32
ATOM     32  C   UNL     1       1.365   1.609  -2.493  0.00  0.00    +0.038 C 
BRANCH  32  33
ATOM     33  C   UNL     1       1.668   2.386  -3.748  0.00  0.00    -0.047 A 
ATOM     34  C   UNL     1       0.703   3.205  -4.304  0.00  0.00    +0.003 A 
ATOM     35  C   UNL     1       0.982   3.922  -5.453  0.00  0.00    +0.000 A 
ATOM     36  C   UNL     1       2.223   3.811  -6.051  0.00  0.00    +0.000 A 
ATOM     37  C   UNL     1       3.186   2.988  -5.499  0.00  0.00    +0.000 A 
ATOM     38  C   UNL     1       2.909   2.276  -4.347  0.00  0.00    +0.003 A 
ENDBRANCH  32  33
ENDBRANCH  31  32
ENDBRANCH   1  31
TORSDOF 10
