REMARK  Name = ZINC03311927
REMARK  9 active torsions:
REMARK  status: ('A' for Active; 'I' for Inactive)
REMARK    1  A    between atoms: C_4  and  C_7
REMARK    2  A    between atoms: C_12  and  O_13
REMARK    3  A    between atoms: O_13  and  C_14
REMARK    4  A    between atoms: C_14  and  C_15
REMARK    5  A    between atoms: C_18  and  S_30
REMARK    6  A    between atoms: N_19  and  C_20
REMARK    7  A    between atoms: C_25  and  C_26
REMARK    8  A    between atoms: S_30  and  C_31
REMARK    9  A    between atoms: C_31  and  C_32
REMARK                            x       y       z     vdW  Elec       q    Type
REMARK                         _______ _______ _______ _____ _____    ______ ____
ROOT
ATOM      1  C   UNL     1       1.326  -0.355  -0.013  0.00  0.00    +0.176 A 
ATOM      2  N   UNL     1       2.019   0.748  -0.013  0.00  0.00    -0.130 NA
ATOM      3  N   UNL     1       1.234   1.765  -0.000  0.00  0.00    -0.122 NA
ATOM      4  C   UNL     1      -0.017   1.364   0.009  0.00  0.00    +0.197 A 
ATOM      5  N   UNL     1       0.002  -0.004   0.002  0.00  0.00    -0.271 N 
ENDROOT
BRANCH   5   6
ATOM      6  C   UNL     1      -1.104  -0.867   0.007  0.00  0.00    +0.062 A 
ATOM      7  C   UNL     1      -1.663  -1.288  -1.191  0.00  0.00    +0.027 A 
ATOM      8  C   UNL     1      -2.752  -2.137  -1.183  0.00  0.00    +0.002 A 
ATOM      9  C   UNL     1      -3.285  -2.569   0.018  0.00  0.00    +0.001 A 
ATOM     10  C   UNL     1      -2.729  -2.152   1.214  0.00  0.00    +0.014 A 
ATOM     11  C   UNL     1      -1.637  -1.306   1.211  0.00  0.00    +0.079 A 
BRANCH  11  12
ATOM     12  C   UNL     1      -1.028  -0.856   2.515  0.00  0.00    +0.419 C 
ATOM     13  F   UNL     1      -1.734  -1.426   3.580  0.00  0.00    -0.166 F 
ATOM     14  F   UNL     1       0.309  -1.263   2.570  0.00  0.00    -0.166 F 
ATOM     15  F   UNL     1      -1.096   0.538   2.604  0.00  0.00    -0.166 F 
ENDBRANCH  11  12
ENDBRANCH   5   6
BRANCH   1  16
ATOM     16  C   UNL     1       1.878  -1.758  -0.026  0.00  0.00    +0.305 C 
BRANCH  16  17
ATOM     17  O   UNL     1       2.040  -2.193  -1.377  0.00  0.00    -0.484 OA
BRANCH  17  23
ATOM     18  C   UNL     1       2.716  -3.937  -2.862  0.00  0.00    +0.024 A 
ATOM     19  C   UNL     1       3.221  -5.223  -3.047  0.00  0.00    +0.012 A 
ATOM     20  C   UNL     1       3.536  -6.002  -1.953  0.00  0.00    +0.001 A 
ATOM     21  C   UNL     1       3.353  -5.512  -0.672  0.00  0.00    +0.004 A 
ATOM     22  C   UNL     1       2.857  -4.237  -0.477  0.00  0.00    +0.046 A 
ATOM     23  C   UNL     1       2.531  -3.445  -1.567  0.00  0.00    +0.129 A 
BRANCH  18  27
ATOM     24  C   UNL     1       1.738  -1.524  -6.223  0.00  0.00    +0.000 A 
ATOM     25  C   UNL     1       2.972  -2.146  -6.157  0.00  0.00    +0.001 A 
ATOM     26  C   UNL     1       3.295  -2.930  -5.069  0.00  0.00    +0.008 A 
ATOM     27  C   UNL     1       2.375  -3.095  -4.035  0.00  0.00    -0.014 A 
ATOM     28  C   UNL     1       1.131  -2.471  -4.109  0.00  0.00    +0.008 A 
ATOM     29  C   UNL     1       0.822  -1.684  -5.200  0.00  0.00    +0.001 A 
ENDBRANCH  18  27
ENDBRANCH  17  23
ENDBRANCH  16  17
ENDBRANCH   1  16
BRANCH   4  30
ATOM     30  S   UNL     1      -1.447   2.393   0.022  0.00  0.00    -0.074 S 
BRANCH  30  31
ATOM     31  C   UNL     1      -0.661   4.023   0.027  0.00  0.00    +0.202 C 
BRANCH  31  32
ATOM     32  C   UNL     1      -1.723   5.092   0.038  0.00  0.00    +0.366 C 
ATOM     33  O   UNL     1      -2.891   4.784   0.042  0.00  0.00    -0.245 OA
ATOM     34  O   UNL     1      -1.371   6.388   0.043  0.00  0.00    -0.245 OA
ENDBRANCH  31  32
ENDBRANCH  30  31
ENDBRANCH   4  30
TORSDOF 9
