REMARK  Name = ZINC19755513
REMARK  3 active torsions:
REMARK  status: ('A' for Active; 'I' for Inactive)
REMARK    1  A    between atoms: C_1  and  C_2
REMARK    2  A    between atoms: C_2  and  C_3
REMARK    3  A    between atoms: C_9  and  C_14
REMARK                            x       y       z     vdW  Elec       q    Type
REMARK                         _______ _______ _______ _____ _____    ______ ____
ROOT
ATOM      1  C   UNL     1      -8.916  -1.461   0.562  0.00  0.00    +0.190 C 
ATOM      2  C   UNL     1      -7.888  -2.409  -0.072  0.00  0.00    +0.146 C 
ATOM      3  N   UNL     1      -6.547  -1.883   0.236  0.00  0.00    -0.337 N 
ATOM      4  C   UNL     1      -6.352  -0.496   0.134  0.00  0.00    +0.070 A 
ATOM      5  C   UNL     1      -5.069   0.022   0.126  0.00  0.00    +0.036 A 
ATOM      6  C   UNL     1      -4.879   1.401   0.034  0.00  0.00    +0.003 A 
ATOM      7  C   UNL     1      -5.982   2.247  -0.060  0.00  0.00    +0.014 A 
ATOM      8  C   UNL     1      -7.260   1.724  -0.058  0.00  0.00    +0.048 A 
ATOM      9  C   UNL     1      -7.453   0.353   0.038  0.00  0.00    +0.142 A 
ATOM     10  O   UNL     1      -8.717  -0.148   0.034  0.00  0.00    -0.485 OA
ATOM     11  H   UNL     1      -5.741  -2.569   0.533  0.00  0.00    +0.146 HD
ENDROOT
BRANCH   6  12
ATOM     12  C   UNL     1      -3.507   1.964   0.030  0.00  0.00    +0.080 A 
ATOM     13  C   UNL     1      -3.316   3.317   0.037  0.00  0.00    +0.076 A 
ATOM     14  S   UNL     1      -1.531   3.402   0.036  0.00  0.00    -0.060 S 
ATOM     15  C   UNL     1      -1.220   1.642   0.017  0.00  0.00    +0.156 A 
ATOM     16  N   UNL     1      -2.448   1.157   0.020  0.00  0.00    -0.225 NA
ATOM     17  N   UNL     1      -0.011   0.966   0.007  0.00  0.00    -0.338 N 
ATOM     18  H   UNL     1       0.004  -0.134  -0.004  0.00  0.00    +0.144 HD
ATOM     19  H   UNL     1       0.934   1.529   0.011  0.00  0.00    +0.144 HD
ENDBRANCH   6  12
BRANCH   1  21
ATOM     20  C   UNL     1     -11.351  -1.057   0.949  0.00  0.00    +0.007 C 
ATOM     21  C   UNL     1     -10.330  -1.940   0.228  0.00  0.00    +0.043 C 
ENDBRANCH   1  21
TORSDOF 2
