REMARK  Name = ZINC02775447
REMARK  8 active torsions:
REMARK  status: ('A' for Active; 'I' for Inactive)
REMARK    1  A    between atoms: C_1  and  C_2
REMARK    2  A    between atoms: C_2  and  C_3
REMARK    3  A    between atoms: C_3  and  O_4
REMARK    4  A    between atoms: O_4  and  C_5
REMARK    5  A    between atoms: C_5  and  C_7
REMARK    6  A    between atoms: C_8  and  C_35
REMARK    7  A    between atoms: C_12  and  C_14
REMARK    8  A    between atoms: C_25  and  C_28
REMARK                            x       y       z     vdW  Elec       q    Type
REMARK                         _______ _______ _______ _____ _____    ______ ____
ROOT
ATOM      1  C   UNL     1       1.471   1.656  -0.052  0.00  0.00    +0.065 C 
ATOM      2  C   UNL     1       1.724   2.723  -0.830  0.00  0.00    +0.016 C 
ATOM      3  N   UNL     1       0.728   3.285  -1.579  0.00  0.00    -0.321 N 
ATOM      4  C   UNL     1      -0.406   2.577  -1.875  0.00  0.00    +0.016 C 
ATOM      5  C   UNL     1      -0.754   1.502  -1.137  0.00  0.00    +0.024 C 
ATOM      6  C   UNL     1       0.097   1.058   0.026  0.00  0.00    +0.092 C 
ATOM      7  C   UNL     1      -1.916   0.766  -1.429  0.00  0.00    +0.162 C 
ATOM      8  O   UNL     1      -2.193  -0.205  -0.753  0.00  0.00    -0.292 OA
ATOM      9  C   UNL     1      -2.823   1.160  -2.562  0.00  0.00    +0.088 C 
ATOM     10  C   UNL     1      -2.716   2.673  -2.783  0.00  0.00    +0.032 C 
ATOM     11  C   UNL     1      -1.250   3.023  -3.043  0.00  0.00    +0.059 C 
ATOM     12  C   UNL     1       3.114   3.303  -0.877  0.00  0.00    +0.061 C 
ATOM     13  H   UNL     1       0.834   4.315  -1.951  0.00  0.00    +0.152 HD
ENDROOT
BRANCH   6  14
ATOM     14  C   UNL     1      -0.559   1.491   1.312  0.00  0.00    -0.034 A 
ATOM     15  C   UNL     1      -0.945   0.546   2.243  0.00  0.00    +0.006 A 
ATOM     16  C   UNL     1      -1.547   0.942   3.423  0.00  0.00    +0.022 A 
ATOM     17  C   UNL     1      -1.763   2.286   3.672  0.00  0.00    +0.059 A 
ATOM     18  C   UNL     1      -1.376   3.233   2.739  0.00  0.00    +0.060 A 
ATOM     19  C   UNL     1      -0.768   2.834   1.561  0.00  0.00    +0.026 A 
ATOM     20 CL   UNL     1      -1.646   4.919   3.049  0.00  0.00    -0.082 Cl
ATOM     21 CL   UNL     1      -2.519   2.784   5.153  0.00  0.00    -0.082 Cl
ENDBRANCH   6  14
BRANCH  10  22
ATOM     22  C   UNL     1      -3.551   3.072  -3.972  0.00  0.00    -0.043 A 
ATOM     23  C   UNL     1      -3.291   2.524  -5.214  0.00  0.00    +0.005 A 
ATOM     24  C   UNL     1      -4.060   2.886  -6.304  0.00  0.00    +0.020 A 
ATOM     25  C   UNL     1      -5.084   3.804  -6.154  0.00  0.00    +0.041 A 
ATOM     26  C   UNL     1      -5.341   4.356  -4.912  0.00  0.00    +0.020 A 
ATOM     27  C   UNL     1      -4.574   3.990  -3.821  0.00  0.00    +0.005 A 
ATOM     28 CL   UNL     1      -6.045   4.264  -7.524  0.00  0.00    -0.084 Cl
ENDBRANCH  10  22
BRANCH   1  29
ATOM     29  C   UNL     1       2.520   1.087   0.707  0.00  0.00    +0.338 C 
ATOM     30  O   UNL     1       3.658   1.495   0.574  0.00  0.00    -0.245 OA
BRANCH  29  31
ATOM     31  O   UNL     1       2.258   0.091   1.580  0.00  0.00    -0.461 OA
BRANCH  31  32
ATOM     32  C   UNL     1       3.365  -0.436   2.313  0.00  0.00    +0.232 C 
BRANCH  32  34
ATOM     33  C   UNL     1       4.062  -2.112   4.030  0.00  0.00    +0.007 C 
ATOM     34  C   UNL     1       2.876  -1.547   3.245  0.00  0.00    +0.038 C 
ENDBRANCH  32  34
ENDBRANCH  31  32
ENDBRANCH  29  31
ENDBRANCH   1  29
TORSDOF 6
