REMARK  Name = ZINC15947786
REMARK  5 active torsions:
REMARK  status: ('A' for Active; 'I' for Inactive)
REMARK    1  A    between atoms: C_1  and  C_2
REMARK    2  A    between atoms: C_6  and  C_9
REMARK    3  A    between atoms: C_7  and  O_8
REMARK    4  A    between atoms: C_18  and  C_22
REMARK    5  A    between atoms: C_23  and  O_25
REMARK                            x       y       z     vdW  Elec       q    Type
REMARK                         _______ _______ _______ _____ _____    ______ ____
ROOT
ATOM      1  C   UNL     1       0.052  -2.856   2.487  0.00  0.00    +0.227 C 
ATOM      2  N   UNL     1      -0.497  -4.205   2.259  0.00  0.00    -0.313 N 
ATOM      3  C   UNL     1      -1.869  -4.316   2.284  0.00  0.00    +0.080 A 
ATOM      4  C   UNL     1      -2.673  -3.408   2.983  0.00  0.00    +0.068 A 
ATOM      5  C   UNL     1      -4.103  -3.647   2.907  0.00  0.00    -0.023 A 
ATOM      6  C   UNL     1      -4.454  -4.726   2.171  0.00  0.00    -0.004 A 
ATOM      7  S   UNL     1      -2.919  -5.401   1.598  0.00  0.00    -0.078 S 
ATOM      8  C   UNL     1      -5.840  -5.226   1.910  0.00  0.00    +0.046 C 
ATOM      9  C   UNL     1      -6.793  -4.552   2.908  0.00  0.00    -0.009 C 
ATOM     10  C   UNL     1      -6.510  -3.047   2.924  0.00  0.00    +0.008 C 
ATOM     11  C   UNL     1      -5.156  -2.779   3.583  0.00  0.00    +0.037 C 
ATOM     12  C   UNL     1      -8.242  -4.800   2.481  0.00  0.00    +0.008 C 
ATOM     13  C   UNL     1      -1.989  -2.317   3.724  0.00  0.00    +0.220 C 
ATOM     14  N   UNL     1      -0.723  -2.122   3.480  0.00  0.00    -0.223 NA
ATOM     15  H   UNL     1       0.076  -4.971   2.100  0.00  0.00    +0.149 HD
ENDROOT
BRANCH   1  21
ATOM     16  C   UNL     1      -0.018   1.503   0.010  0.00  0.00    +0.047 C 
ATOM     17  C   UNL     1       0.002  -0.004   0.002  0.00  0.00    -0.008 A 
ATOM     18  C   UNL     1       0.006  -0.689  -1.198  0.00  0.00    +0.021 A 
ATOM     19  C   UNL     1       0.025  -2.072  -1.206  0.00  0.00    +0.014 A 
ATOM     20  C   UNL     1       0.040  -2.772  -0.013  0.00  0.00    +0.025 A 
ATOM     21  C   UNL     1       0.036  -2.092   1.188  0.00  0.00    +0.037 A 
ATOM     22  C   UNL     1       0.023  -0.705   1.199  0.00  0.00    +0.127 A 
ATOM     23  I   UNL     1       0.029  -3.107  -3.028  0.00  0.00    -0.044 I 
BRANCH  22  24
ATOM     24  O   UNL     1       0.025  -0.033   2.381  0.00  0.00    -0.506 OA
ATOM     25  H   UNL     1      -0.858   0.149   2.731  0.00  0.00    +0.292 HD
ENDBRANCH  22  24
ENDBRANCH   1  21
BRANCH  13  26
ATOM     26  O   UNL     1      -2.657  -1.554   4.620  0.00  0.00    -0.492 OA
ATOM     27  H   UNL     1      -2.112  -0.875   5.041  0.00  0.00    +0.294 HD
ENDBRANCH  13  26
TORSDOF 3
