REMARK  Name = ZINC41513662
REMARK  13 active torsions:
REMARK  status: ('A' for Active; 'I' for Inactive)
REMARK    1  A    between atoms: C_1  and  C_2
REMARK    2  A    between atoms: C_4  and  O_34
REMARK    3  A    between atoms: C_5  and  C_24
REMARK    4  A    between atoms: C_11  and  C_12
REMARK    5  A    between atoms: C_24  and  N_25
REMARK    6  A    between atoms: N_25  and  C_26
REMARK    7  A    between atoms: N_25  and  C_30
REMARK    8  A    between atoms: C_26  and  C_27
REMARK    9  A    between atoms: C_27  and  C_28
REMARK   10  A    between atoms: C_27  and  C_29
REMARK   11  A    between atoms: C_30  and  C_31
REMARK   12  A    between atoms: C_31  and  C_32
REMARK   13  A    between atoms: C_31  and  C_33
REMARK                            x       y       z     vdW  Elec       q    Type
REMARK                         _______ _______ _______ _____ _____    ______ ____
ROOT
ATOM      1  C   UNL     1      -1.484   1.365   1.650  0.00  0.00    +0.045 C 
ATOM      2  C   UNL     1      -1.179  -0.038   1.194  0.00  0.00    -0.033 A 
ATOM      3  C   UNL     1      -1.019  -0.306  -0.136  0.00  0.00    +0.050 A 
ATOM      4  C   UNL     1      -0.736  -1.602  -0.559  0.00  0.00    +0.122 A 
ATOM      5  C   UNL     1      -0.613  -2.633   0.359  0.00  0.00    +0.020 A 
ATOM      6  C   UNL     1      -0.773  -2.377   1.715  0.00  0.00    +0.145 A 
ATOM      7  C   UNL     1      -1.053  -1.065   2.130  0.00  0.00    +0.071 A 
ATOM      8  C   UNL     1      -1.159  -1.108   3.600  0.00  0.00    +0.232 C 
ATOM      9  O   UNL     1      -1.396  -0.184   4.359  0.00  0.00    -0.283 OA
ATOM     10  C   UNL     1      -0.914  -2.515   3.946  0.00  0.00    +0.176 C 
ATOM     11  C   UNL     1      -0.909  -3.045   5.197  0.00  0.00    +0.061 C 
ATOM     12  O   UNL     1      -0.705  -3.191   2.791  0.00  0.00    -0.451 OA
ENDROOT
BRANCH  11  13
ATOM     13  C   UNL     1      -1.329  -2.228   6.341  0.00  0.00    +0.022 A 
ATOM     14  C   UNL     1      -2.444  -1.387   6.235  0.00  0.00    +0.027 A 
ATOM     15  C   UNL     1      -2.830  -0.622   7.314  0.00  0.00    +0.019 A 
ATOM     16  C   UNL     1      -2.119  -0.679   8.502  0.00  0.00    +0.024 A 
ATOM     17  C   UNL     1      -1.017  -1.505   8.622  0.00  0.00    +0.022 A 
ATOM     18  C   UNL     1      -0.619  -2.289   7.552  0.00  0.00    +0.136 A 
ATOM     19  O   UNL     1       0.452  -3.116   7.661  0.00  0.00    -0.465 OA
ATOM     20  C   UNL     1       1.342  -2.881   8.756  0.00  0.00    +0.395 C 
ATOM     21  O   UNL     1       0.566  -2.724   9.950  0.00  0.00    -0.339 OA
ATOM     22  C   UNL     1      -0.257  -1.549   9.924  0.00  0.00    +0.202 C 
ATOM     23 BR   UNL     1      -4.336   0.513   7.171  0.00  0.00    -0.050 Br
ENDBRANCH  11  13
BRANCH   4  24
ATOM     24  O   UNL     1      -0.579  -1.859  -1.883  0.00  0.00    -0.506 OA
ATOM     25  H   UNL     1       0.331  -1.767  -2.196  0.00  0.00    +0.292 HD
ENDBRANCH   4  24
BRANCH   5  26
ATOM     26  C   UNL     1      -0.307  -4.030  -0.114  0.00  0.00    -0.036 C 
BRANCH  26  27
ATOM     27  N   UNL     1       1.112  -4.124  -0.479  0.00  0.00    +0.383 N 
ATOM     28  H   UNL     1       1.334  -3.405  -1.152  0.00  0.00    -0.081 HD
BRANCH  27  29
ATOM     29  C   UNL     1       1.940  -3.945   0.721  0.00  0.00    -0.075 C 
BRANCH  29  30
ATOM     30  C   UNL     1       2.145  -2.451   0.981  0.00  0.00    -0.034 C 
ATOM     31  C   UNL     1       2.912  -2.262   2.291  0.00  0.00    +0.005 C 
ATOM     32  C   UNL     1       2.943  -1.838  -0.171  0.00  0.00    +0.005 C 
ENDBRANCH  29  30
ENDBRANCH  27  29
BRANCH  27  33
ATOM     33  C   UNL     1       1.381  -5.443  -1.067  0.00  0.00    -0.075 C 
BRANCH  33  34
ATOM     34  C   UNL     1       0.635  -5.571  -2.397  0.00  0.00    -0.034 C 
ATOM     35  C   UNL     1       1.207  -4.567  -3.400  0.00  0.00    +0.005 C 
ATOM     36  C   UNL     1       0.804  -6.990  -2.942  0.00  0.00    +0.005 C 
ENDBRANCH  33  34
ENDBRANCH  27  33
ENDBRANCH  26  27
ENDBRANCH   5  26
TORSDOF 8
