REMARK  Name = ZINC58912515
REMARK  5 active torsions:
REMARK  status: ('A' for Active; 'I' for Inactive)
REMARK    1  A    between atoms: C_1  and  C_2
REMARK    2  A    between atoms: C_2  and  C_4
REMARK    3  A    between atoms: C_2  and  N_14
REMARK    4  A    between atoms: C_7  and  N_10
REMARK    5  A    between atoms: C_15  and  C_17
REMARK                            x       y       z     vdW  Elec       q    Type
REMARK                         _______ _______ _______ _____ _____    ______ ____
ROOT
ATOM      1  C   UNL     1       0.002   1.489   0.238  0.00  0.00    +0.033 C 
ATOM      2  C   UNL     1       0.010  -0.025   0.017  0.00  0.00    +0.100 C 
ENDROOT
BRANCH   2   3
ATOM      3  C   UNL     1      -1.406  -0.541   0.024  0.00  0.00    -0.027 A 
ATOM      4  C   UNL     1      -2.059  -0.749   1.225  0.00  0.00    +0.007 A 
ATOM      5  C   UNL     1      -3.357  -1.222   1.234  0.00  0.00    +0.023 A 
ATOM      6  C   UNL     1      -4.006  -1.488   0.036  0.00  0.00    +0.035 A 
ATOM      7  C   UNL     1      -3.347  -1.279  -1.168  0.00  0.00    +0.023 A 
ATOM      8  C   UNL     1      -2.051  -0.801  -1.171  0.00  0.00    +0.007 A 
BRANCH   6   9
ATOM      9  N   UNL     1      -5.320  -1.968   0.042  0.00  0.00    -0.270 N 
ATOM     10  C   UNL     1      -6.177  -1.575   1.006  0.00  0.00    +0.301 C 
ATOM     11  O   UNL     1      -5.838  -0.730   1.812  0.00  0.00    -0.253 OA
ATOM     12  N   UNL     1      -7.408  -2.117   1.075  0.00  0.00    -0.313 N 
ATOM     13  H   UNL     1      -5.615  -2.584  -0.647  0.00  0.00    +0.156 HD
ATOM     14  H   UNL     1      -7.678  -2.791   0.432  0.00  0.00    +0.146 HD
ATOM     15  H   UNL     1      -8.025  -1.834   1.769  0.00  0.00    +0.146 HD
ENDBRANCH   6   9
ENDBRANCH   2   3
BRANCH   2  16
ATOM     16  N   UNL     1       0.770  -0.671   1.090  0.00  0.00    -0.308 N 
ATOM     17  C   UNL     1       2.110  -0.780   0.995  0.00  0.00    +0.227 C 
ATOM     18  O   UNL     1       2.687  -0.344   0.021  0.00  0.00    -0.275 OA
ATOM     19  H   UNL     1       0.309  -1.020   1.869  0.00  0.00    +0.149 HD
BRANCH  17  20
ATOM     20  C   UNL     1       2.892  -1.445   2.098  0.00  0.00    +0.141 C 
ATOM     21  C   UNL     1       4.310  -0.844   2.225  0.00  0.00    +0.060 C 
ATOM     22  C   UNL     1       5.333  -1.891   2.589  0.00  0.00    -0.032 A 
ATOM     23  C   UNL     1       6.588  -1.668   3.160  0.00  0.00    +0.005 A 
ATOM     24  C   UNL     1       7.443  -2.712   3.432  0.00  0.00    +0.000 A 
ATOM     25  C   UNL     1       7.082  -4.016   3.146  0.00  0.00    +0.001 A 
ATOM     26  C   UNL     1       5.842  -4.263   2.588  0.00  0.00    +0.015 A 
ATOM     27  C   UNL     1       4.983  -3.213   2.324  0.00  0.00    +0.012 A 
ATOM     28  S   UNL     1       3.332  -3.178   1.659  0.00  0.00    -0.112 S 
ENDBRANCH  17  20
ENDBRANCH   2  16
TORSDOF 4
