REMARK  Name = ZINC11841166
REMARK  5 active torsions:
REMARK  status: ('A' for Active; 'I' for Inactive)
REMARK    1  A    between atoms: C_4  and  C_8
REMARK    2  A    between atoms: C_8  and  C_10
REMARK    3  A    between atoms: C_8  and  O_30
REMARK    4  A    between atoms: C_20  and  C_21
REMARK    5  A    between atoms: C_20  and  N_50
REMARK                            x       y       z     vdW  Elec       q    Type
REMARK                         _______ _______ _______ _____ _____    ______ ____
ROOT
ATOM      1  C   UNL     1      -0.730   2.762   3.392  0.00  0.00    -0.014 A 
ATOM      2  C   UNL     1      -1.954   2.245   3.774  0.00  0.00    +0.010 A 
ATOM      3  C   UNL     1      -2.504   1.179   3.088  0.00  0.00    +0.046 A 
ATOM      4  C   UNL     1      -1.822   0.626   2.013  0.00  0.00    +0.122 A 
ATOM      5  C   UNL     1      -0.586   1.133   1.652  0.00  0.00    -0.022 A 
ATOM      6  C   UNL     1      -0.043   2.203   2.327  0.00  0.00    +0.011 A 
ATOM      7  C   UNL     1       0.164   0.493   0.498  0.00  0.00    -0.039 C 
ATOM      8  C   UNL     1      -1.635  -0.212  -0.986  0.00  0.00    -0.036 C 
ATOM      9  C   UNL     1      -2.791  -0.090  -0.016  0.00  0.00    +0.210 C 
ATOM     10  O   UNL     1      -2.369  -0.406   1.317  0.00  0.00    -0.494 OA
ATOM     11  N   UNL     1      -0.577   0.793  -0.750  0.00  0.00    +0.387 N 
ATOM     12  H   UNL     1      -1.016   1.717  -0.658  0.00  0.00    -0.081 HD
ENDROOT
BRANCH   1  13
ATOM     13  C   UNL     1      -0.142   3.933   4.135  0.00  0.00    +0.179 C 
BRANCH  13  17
ATOM     14  C   UNL     1       2.100   2.515   7.486  0.00  0.00    +0.004 A 
ATOM     15  C   UNL     1       0.718   2.496   7.522  0.00  0.00    +0.039 A 
ATOM     16  C   UNL     1      -0.009   2.955   6.437  0.00  0.00    +0.131 A 
ATOM     17  C   UNL     1       0.648   3.433   5.316  0.00  0.00    +0.039 A 
ATOM     18  C   UNL     1       2.031   3.447   5.280  0.00  0.00    +0.050 A 
ATOM     19  C   UNL     1       2.756   2.992   6.367  0.00  0.00    +0.020 A 
ATOM     20 CL   UNL     1       2.856   4.039   3.872  0.00  0.00    -0.083 Cl
ATOM     21  F   UNL     1      -1.359   2.937   6.472  0.00  0.00    -0.205 F 
ENDBRANCH  13  17
BRANCH  13  22
ATOM     22  O   UNL     1      -1.195   4.784   4.592  0.00  0.00    -0.382 OA
ATOM     23  H   UNL     1      -1.869   4.330   5.116  0.00  0.00    +0.211 HD
ENDBRANCH  13  22
ENDBRANCH   1  13
BRANCH  11  24
ATOM     24  C   UNL     1       0.351   0.819  -1.892  0.00  0.00    -0.042 C 
BRANCH  24  25
ATOM     25  C   UNL     1      -0.444   0.842  -3.172  0.00  0.00    -0.062 A 
ATOM     26  C   UNL     1      -0.766  -0.363  -3.796  0.00  0.00    +0.004 A 
ATOM     27  C   UNL     1      -1.483  -0.397  -4.944  0.00  0.00    +0.031 A 
ATOM     28  C   UNL     1      -1.915   0.812  -5.547  0.00  0.00    +0.100 A 
ATOM     29  C   UNL     1      -1.573   2.074  -4.897  0.00  0.00    +0.100 A 
ATOM     30  C   UNL     1      -0.824   2.033  -3.693  0.00  0.00    +0.032 A 
ATOM     31  N   UNL     1      -2.041   3.125  -5.569  0.00  0.00    -0.191 NA
ATOM     32  S   UNL     1      -2.788   2.549  -6.819  0.00  0.00    +0.116 S 
ATOM     33  N   UNL     1      -2.617   0.999  -6.663  0.00  0.00    -0.191 NA
ENDBRANCH  24  25
ENDBRANCH  11  24
TORSDOF 5
