REMARK  Name = ZINC40360870
REMARK  13 active torsions:
REMARK  status: ('A' for Active; 'I' for Inactive)
REMARK    1  A    between atoms: C_1  and  C_2
REMARK    2  A    between atoms: C_2  and  C_3
REMARK    3  A    between atoms: C_6  and  N_9
REMARK    4  A    between atoms: C_19  and  C_20
REMARK    5  A    between atoms: C_20  and  C_22
REMARK    6  A    between atoms: C_20  and  N_23
REMARK    7  A    between atoms: N_23  and  C_24
REMARK    8  A    between atoms: C_24  and  C_25
REMARK    9  A    between atoms: C_25  and  N_26
REMARK   10  A    between atoms: N_26  and  C_27
REMARK   11  A    between atoms: N_26  and  C_28
REMARK   12  A    between atoms: C_29  and  C_31
REMARK   13  A    between atoms: C_32  and  C_33
REMARK                            x       y       z     vdW  Elec       q    Type
REMARK                         _______ _______ _______ _____ _____    ______ ____
ROOT
ATOM      1  N   UNL     1       3.237  -3.144  -4.736  0.00  0.00    -0.263 N 
ATOM      2  C   UNL     1       2.639  -3.472  -5.905  0.00  0.00    +0.266 A 
ATOM      3  O   UNL     1       2.008  -4.506  -6.025  0.00  0.00    -0.267 OA
ATOM      4  C   UNL     1       2.783  -2.531  -7.026  0.00  0.00    +0.065 A 
ATOM      5  C   UNL     1       2.206  -2.774  -8.271  0.00  0.00    +0.015 A 
ATOM      6  C   UNL     1       2.371  -1.858  -9.286  0.00  0.00    +0.001 A 
ATOM      7  C   UNL     1       3.106  -0.698  -9.078  0.00  0.00    +0.002 A 
ATOM      8  C   UNL     1       3.684  -0.439  -7.856  0.00  0.00    +0.028 A 
ATOM      9  C   UNL     1       3.530  -1.352  -6.810  0.00  0.00    +0.078 A 
ATOM     10  N   UNL     1       4.082  -1.136  -5.590  0.00  0.00    -0.231 NA
ATOM     11  C   UNL     1       3.934  -1.982  -4.616  0.00  0.00    +0.138 A 
ENDROOT
BRANCH   1  15
ATOM     12  C   UNL     1       2.923  -5.709  -1.466  0.00  0.00    -0.047 A 
ATOM     13  C   UNL     1       3.893  -5.931  -2.427  0.00  0.00    +0.005 A 
ATOM     14  C   UNL     1       3.999  -5.083  -3.511  0.00  0.00    +0.026 A 
ATOM     15  C   UNL     1       3.131  -4.006  -3.637  0.00  0.00    +0.051 A 
ATOM     16  C   UNL     1       2.159  -3.786  -2.671  0.00  0.00    +0.026 A 
ATOM     17  C   UNL     1       2.054  -4.641  -1.591  0.00  0.00    +0.005 A 
BRANCH  12  19
ATOM     18  C   UNL     1       1.856  -7.783  -0.624  0.00  0.00    +0.009 C 
ATOM     19  C   UNL     1       2.810  -6.636  -0.284  0.00  0.00    +0.032 C 
ENDBRANCH  12  19
ENDBRANCH   1  15
BRANCH  11  20
ATOM     20  C   UNL     1       4.573  -1.665  -3.289  0.00  0.00    +0.140 C 
ATOM     21  C   UNL     1       4.077  -0.303  -2.797  0.00  0.00    +0.036 C 
BRANCH  20  22
ATOM     22  N   UNL     1       6.029  -1.627  -3.445  0.00  0.00    -0.290 N 
ATOM     23  C   UNL     1       6.805  -2.471  -2.736  0.00  0.00    +0.240 C 
ATOM     24  O   UNL     1       6.295  -3.265  -1.967  0.00  0.00    -0.271 OA
BRANCH  23  25
ATOM     25  C   UNL     1       8.260  -2.433  -2.892  0.00  0.00    +0.068 C 
ATOM     26  C   UNL     1       9.036  -3.278  -2.183  0.00  0.00    +0.013 C 
BRANCH  26  27
ATOM     27  C   UNL     1      10.499  -3.240  -2.339  0.00  0.00    -0.025 A 
ATOM     28  C   UNL     1      11.089  -2.325  -3.218  0.00  0.00    +0.008 A 
ATOM     29  C   UNL     1      12.460  -2.296  -3.359  0.00  0.00    +0.001 A 
ATOM     30  C   UNL     1      13.253  -3.169  -2.634  0.00  0.00    +0.000 A 
ATOM     31  C   UNL     1      12.677  -4.077  -1.762  0.00  0.00    +0.001 A 
ATOM     32  C   UNL     1      11.307  -4.114  -1.606  0.00  0.00    +0.008 A 
ENDBRANCH  26  27
ENDBRANCH  23  25
BRANCH  22  33
ATOM     33  C   UNL     1       6.642  -0.671  -4.370  0.00  0.00    +0.090 C 
BRANCH  33  34
ATOM     34  C   UNL     1       6.944   0.634  -3.631  0.00  0.00    -0.060 C 
BRANCH  34  35
ATOM     35  N   UNL     1       7.559   1.592  -4.559  0.00  0.00    +0.377 N 
ATOM     36  C   UNL     1       6.591   1.952  -5.603  0.00  0.00    -0.097 C 
ATOM     37  C   UNL     1       7.958   2.799  -3.823  0.00  0.00    -0.097 C 
ATOM     38  H   UNL     1       8.372   1.173  -4.984  0.00  0.00    -0.083 HD
ENDBRANCH  34  35
ENDBRANCH  33  34
ENDBRANCH  22  33
ENDBRANCH  20  22
ENDBRANCH  11  20
TORSDOF 9
