REMARK  Name = ZINC37338747
REMARK  3 active torsions:
REMARK  status: ('A' for Active; 'I' for Inactive)
REMARK    1  A    between atoms: C_10  and  C_12
REMARK    2  A    between atoms: C_15  and  C_18
REMARK    3  A    between atoms: N_19  and  O_20
REMARK                            x       y       z     vdW  Elec       q    Type
REMARK                         _______ _______ _______ _____ _____    ______ ____
ROOT
ATOM      1  C   UNL     1       5.130   0.975  -0.152  0.00  0.00    +0.037 A 
ATOM      2  C   UNL     1       4.115   1.935  -0.131  0.00  0.00    +0.014 A 
ATOM      3  C   UNL     1       4.430   3.271  -0.229  0.00  0.00    +0.012 A 
ATOM      4  C   UNL     1       5.763   3.667  -0.350  0.00  0.00    +0.018 A 
ATOM      5  C   UNL     1       6.777   2.709  -0.372  0.00  0.00    +0.012 A 
ATOM      6  C   UNL     1       6.464   1.372  -0.267  0.00  0.00    +0.014 A 
ENDROOT
BRANCH   1  16
ATOM      7  C   UNL     1       1.825  -4.666  -0.177  0.00  0.00    +0.000 A 
ATOM      8  C   UNL     1       3.205  -4.587  -0.126  0.00  0.00    +0.002 A 
ATOM      9  C   UNL     1       3.830  -3.359  -0.096  0.00  0.00    +0.024 A 
ATOM     10  C   UNL     1       3.075  -2.184  -0.118  0.00  0.00    +0.040 A 
ATOM     11  C   UNL     1       1.693  -2.274  -0.169  0.00  0.00    -0.024 A 
ATOM     12  C   UNL     1       1.071  -3.507  -0.199  0.00  0.00    +0.005 A 
ATOM     13  C   UNL     1       1.121  -0.874  -0.183  0.00  0.00    +0.056 C 
ATOM     14  C   UNL     1       2.350   0.047  -0.133  0.00  0.00    +0.118 C 
ATOM     15  N   UNL     1       3.505  -0.855  -0.095  0.00  0.00    -0.267 N 
ATOM     16  C   UNL     1       4.792  -0.460  -0.046  0.00  0.00    +0.251 C 
ATOM     17  O   UNL     1       5.676  -1.284   0.086  0.00  0.00    -0.270 OA
ENDBRANCH   1  16
BRANCH   4  18
ATOM     18  C   UNL     1       6.101   5.105  -0.456  0.00  0.00    +0.162 C 
ATOM     19  N   UNL     1       5.156   5.998  -0.437  0.00  0.00    -0.072 NA
ATOM     20  N   UNL     1       7.424   5.498  -0.577  0.00  0.00    -0.340 N 
ATOM     21  H   UNL     1       8.129   4.832  -0.591  0.00  0.00    +0.144 HD
ATOM     22  H   UNL     1       7.645   6.440  -0.646  0.00  0.00    +0.144 HD
BRANCH  19  23
ATOM     23  O   UNL     1       5.480   7.373  -0.538  0.00  0.00    -0.408 OA
ATOM     24  H   UNL     1       4.712   7.960  -0.515  0.00  0.00    +0.328 HD
ENDBRANCH  19  23
ENDBRANCH   4  18
TORSDOF 3
