REMARK  Name = ZINC09218158
REMARK  13 active torsions:
REMARK  status: ('A' for Active; 'I' for Inactive)
REMARK    1  A    between atoms: C_1  and  C_2
REMARK    2  A    between atoms: C_5  and  C_8
REMARK    3  A    between atoms: N_15  and  C_18
REMARK    4  A    between atoms: C_18  and  C_19
REMARK    5  A    between atoms: C_19  and  C_20
REMARK    6  A    between atoms: N_22  and  C_23
REMARK    7  A    between atoms: C_23  and  C_24
REMARK    8  A    between atoms: C_24  and  C_26
REMARK    9  A    between atoms: C_24  and  N_65
REMARK   10  A    between atoms: C_31  and  O_32
REMARK   11  A    between atoms: O_32  and  C_33
REMARK   12  A    between atoms: C_34  and  N_65
REMARK   13  A    between atoms: C_35  and  N_65
REMARK                            x       y       z     vdW  Elec       q    Type
REMARK                         _______ _______ _______ _____ _____    ______ ____
ROOT
ATOM      1  C   UNL     1      -3.972   0.919  -2.791  0.00  0.00    +0.117 C 
ENDROOT
BRANCH   1   2
ATOM      2  C   UNL     1      -4.442  -0.437  -2.330  0.00  0.00    +0.215 C 
ATOM      3  O   UNL     1      -4.518  -0.682  -1.145  0.00  0.00    -0.276 OA
ATOM      4  N   UNL     1      -4.778  -1.377  -3.236  0.00  0.00    -0.316 N 
ATOM      5  H   UNL     1      -4.717  -1.181  -4.184  0.00  0.00    +0.149 HD
BRANCH   4   6
ATOM      6  C   UNL     1      -5.234  -2.695  -2.788  0.00  0.00    +0.093 C 
BRANCH   6   7
ATOM      7  C   UNL     1      -5.395  -3.617  -3.998  0.00  0.00    -0.017 C 
BRANCH   7   8
ATOM      8  C   UNL     1      -6.034  -4.911  -3.563  0.00  0.00    -0.018 A 
ATOM      9  C   UNL     1      -5.266  -6.053  -3.437  0.00  0.00    +0.005 A 
ATOM     10  C   UNL     1      -5.851  -7.239  -3.034  0.00  0.00    +0.000 A 
ATOM     11  C   UNL     1      -7.206  -7.288  -2.764  0.00  0.00    +0.004 A 
ATOM     12  C   UNL     1      -7.979  -6.150  -2.893  0.00  0.00    +0.046 A 
ATOM     13  C   UNL     1      -7.394  -4.957  -3.293  0.00  0.00    +0.122 A 
BRANCH  13  14
ATOM     14  O   UNL     1      -8.152  -3.837  -3.420  0.00  0.00    -0.495 OA
ATOM     15  C   UNL     1      -9.545  -3.958  -3.126  0.00  0.00    +0.277 C 
ENDBRANCH  13  14
ENDBRANCH   7   8
BRANCH   7  18
ATOM     16  C   UNL     1      -3.709  -2.868  -5.566  0.00  0.00    -0.096 C 
ATOM     17  C   UNL     1      -3.051  -4.010  -3.535  0.00  0.00    -0.096 C 
ATOM     18  N   UNL     1      -4.077  -3.920  -4.595  0.00  0.00    +0.382 N 
ATOM     19  H   UNL     1      -4.132  -4.821  -5.085  0.00  0.00    -0.082 HD
ENDBRANCH   7  18
ENDBRANCH   6   7
ENDBRANCH   4   6
ENDBRANCH   1   2
BRANCH   1  20
ATOM     20  C   UNL     1      -3.658   1.791  -1.573  0.00  0.00    +0.135 C 
BRANCH  20  28
ATOM     21  C   UNL     1      -4.419   6.581  -2.927  0.00  0.00    +0.004 A 
ATOM     22  C   UNL     1      -3.762   7.693  -3.335  0.00  0.00    +0.056 A 
ATOM     23  S   UNL     1      -2.057   7.176  -3.373  0.00  0.00    -0.076 S 
ATOM     24  C   UNL     1      -2.263   5.495  -2.845  0.00  0.00    +0.116 A 
ATOM     25  C   UNL     1      -3.648   5.374  -2.651  0.00  0.00    +0.080 A 
ATOM     26  C   UNL     1      -4.103   4.089  -2.213  0.00  0.00    +0.263 A 
ATOM     27  O   UNL     1      -5.290   3.884  -2.023  0.00  0.00    -0.267 OA
ATOM     28  N   UNL     1      -3.201   3.109  -2.021  0.00  0.00    -0.298 N 
ATOM     29  C   UNL     1      -1.877   3.317  -2.233  0.00  0.00    +0.203 A 
ATOM     30  N   UNL     1      -1.431   4.478  -2.633  0.00  0.00    -0.230 NA
BRANCH  21  35
ATOM     31  C   UNL     1     -10.142   6.617  -2.292  0.00  0.00    +0.044 C 
ATOM     32  C   UNL     1      -8.644   6.607  -2.458  0.00  0.00    -0.050 A 
ATOM     33  C   UNL     1      -7.880   7.604  -1.878  0.00  0.00    +0.004 A 
ATOM     34  C   UNL     1      -6.508   7.601  -2.027  0.00  0.00    +0.009 A 
ATOM     35  C   UNL     1      -5.892   6.590  -2.763  0.00  0.00    -0.017 A 
ATOM     36  C   UNL     1      -6.667   5.591  -3.350  0.00  0.00    +0.009 A 
ATOM     37  C   UNL     1      -8.038   5.601  -3.189  0.00  0.00    +0.004 A 
ENDBRANCH  21  35
ENDBRANCH  20  28
ENDBRANCH   1  20
TORSDOF 9
