REMARK  Name = ZINC13088410
REMARK  12 active torsions:
REMARK  status: ('A' for Active; 'I' for Inactive)
REMARK    1  A    between atoms: C_1  and  O_2
REMARK    2  A    between atoms: O_2  and  C_3
REMARK    3  A    between atoms: C_8  and  O_9
REMARK    4  A    between atoms: O_9  and  C_10
REMARK    5  A    between atoms: C_11  and  C_29
REMARK    6  A    between atoms: N_13  and  S_16
REMARK    7  A    between atoms: S_16  and  C_19
REMARK    8  A    between atoms: C_22  and  C_25
REMARK    9  A    between atoms: C_26  and  C_27
REMARK   10  A    between atoms: C_29  and  C_30
REMARK   11  A    between atoms: C_30  and  O_32
REMARK   12  A    between atoms: O_32  and  C_33
REMARK                            x       y       z     vdW  Elec       q    Type
REMARK                         _______ _______ _______ _____ _____    ______ ____
ROOT
ATOM      1  C   UNL     1      -2.383   0.722  -0.057  0.00  0.00    +0.162 A 
ATOM      2  C   UNL     1      -3.279  -0.167  -0.622  0.00  0.00    +0.053 A 
ATOM      3  C   UNL     1      -4.493  -0.439  -0.002  0.00  0.00    -0.038 A 
ATOM      4  C   UNL     1      -4.804   0.182   1.188  0.00  0.00    -0.021 A 
ATOM      5  C   UNL     1      -3.911   1.080   1.756  0.00  0.00    +0.055 A 
ATOM      6  C   UNL     1      -2.700   1.349   1.145  0.00  0.00    +0.162 A 
ATOM      7  C   UNL     1      -6.096  -0.081   1.921  0.00  0.00    +0.121 C 
ATOM      8  N   UNL     1      -7.010  -0.835   1.057  0.00  0.00    -0.168 NA
ATOM      9  C   UNL     1      -6.447  -1.966   0.301  0.00  0.00    +0.115 C 
ATOM     10  C   UNL     1      -5.422  -1.408  -0.685  0.00  0.00    +0.052 C 
ENDROOT
BRANCH   8  11
ATOM     11  S   UNL     1      -8.611  -0.430   0.935  0.00  0.00    +0.061 S 
ATOM     12  O   UNL     1      -8.733   0.895   1.432  0.00  0.00    -0.153 OA
ATOM     13  O   UNL     1      -9.024  -0.794  -0.375  0.00  0.00    -0.153 OA
BRANCH  11  14
ATOM     14  C   UNL     1      -9.497  -1.469   2.050  0.00  0.00    +0.106 A 
ATOM     15  C   UNL     1      -9.870  -2.742   1.655  0.00  0.00    +0.029 A 
ATOM     16  C   UNL     1     -10.560  -3.562   2.522  0.00  0.00    +0.010 A 
ATOM     17  C   UNL     1     -10.891  -3.101   3.800  0.00  0.00    -0.025 A 
ATOM     18  C   UNL     1     -10.515  -1.812   4.190  0.00  0.00    +0.010 A 
ATOM     19  C   UNL     1      -9.821  -1.006   3.313  0.00  0.00    +0.029 A 
BRANCH  17  20
ATOM     20  C   UNL     1     -11.631  -3.969   4.731  0.00  0.00    +0.015 C 
ATOM     21  C   UNL     1     -11.992  -5.212   4.351  0.00  0.00    +0.096 C 
BRANCH  21  22
ATOM     22  C   UNL     1     -12.728  -6.074   5.276  0.00  0.00    +0.380 C 
ATOM     23  O   UNL     1     -13.014  -5.670   6.386  0.00  0.00    -0.241 OA
ATOM     24  O   UNL     1     -13.089  -7.317   4.896  0.00  0.00    -0.241 OA
ENDBRANCH  21  22
ENDBRANCH  17  20
ENDBRANCH  11  14
ENDBRANCH   8  11
BRANCH   1  26
ATOM     25  C   UNL     1      -0.939   0.293  -1.897  0.00  0.00    +0.277 C 
ATOM     26  O   UNL     1      -1.196   0.978  -0.670  0.00  0.00    -0.491 OA
ENDBRANCH   1  26
BRANCH   6  27
ATOM     27  O   UNL     1      -1.826   2.224   1.711  0.00  0.00    -0.491 OA
ATOM     28  C   UNL     1      -2.221   2.828   2.944  0.00  0.00    +0.277 C 
ENDBRANCH   6  27
BRANCH   7  29
ATOM     29  C   UNL     1      -5.806  -0.892   3.186  0.00  0.00    +0.146 C 
BRANCH  29  30
ATOM     30  C   UNL     1      -5.020  -2.125   2.823  0.00  0.00    +0.309 C 
ATOM     31  O   UNL     1      -4.399  -2.163   1.787  0.00  0.00    -0.251 OA
BRANCH  30  32
ATOM     32  O   UNL     1      -5.009  -3.182   3.651  0.00  0.00    -0.468 OA
ATOM     33  C   UNL     1      -4.136  -4.287   3.298  0.00  0.00    +0.280 C 
ENDBRANCH  30  32
ENDBRANCH  29  30
ENDBRANCH   7  29
TORSDOF 9
