REMARK  Name = ZINC34859832
REMARK  9 active torsions:
REMARK  status: ('A' for Active; 'I' for Inactive)
REMARK    1  A    between atoms: C_1  and  C_2
REMARK    2  A    between atoms: C_7  and  C_37
REMARK    3  A    between atoms: N_9  and  C_10
REMARK    4  A    between atoms: C_10  and  C_11
REMARK    5  A    between atoms: C_11  and  C_12
REMARK    6  A    between atoms: C_12  and  N_13
REMARK    7  A    between atoms: C_14  and  C_16
REMARK    8  A    between atoms: N_26  and  C_27
REMARK    9  A    between atoms: C_27  and  C_28
REMARK                            x       y       z     vdW  Elec       q    Type
REMARK                         _______ _______ _______ _____ _____    ______ ____
ROOT
ATOM      1  C   UNL     1       6.118  -1.032   5.829  0.00  0.00    +0.194 C 
ATOM      2  C   UNL     1       5.302  -0.656   7.040  0.00  0.00    -0.006 A 
ATOM      3  C   UNL     1       3.981  -0.835   7.379  0.00  0.00    +0.007 A 
ATOM      4  C   UNL     1       3.510  -0.367   8.595  0.00  0.00    +0.000 A 
ATOM      5  C   UNL     1       4.364   0.280   9.470  0.00  0.00    +0.001 A 
ATOM      6  C   UNL     1       5.691   0.464   9.140  0.00  0.00    +0.013 A 
ATOM      7  C   UNL     1       6.173  -0.004   7.916  0.00  0.00    +0.042 A 
ATOM      8  C   UNL     1       7.510   0.041   7.292  0.00  0.00    +0.248 C 
ATOM      9  O   UNL     1       8.495   0.541   7.797  0.00  0.00    -0.270 OA
ATOM     10  N   UNL     1       7.481  -0.554   6.085  0.00  0.00    -0.278 N 
ENDROOT
BRANCH   1  12
ATOM     11  N   UNL     1       4.600  -0.978   3.876  0.00  0.00    -0.314 N 
ATOM     12  C   UNL     1       5.558  -0.364   4.600  0.00  0.00    +0.238 C 
ATOM     13  O   UNL     1       5.968   0.726   4.261  0.00  0.00    -0.273 OA
ATOM     14  H   UNL     1       4.272  -1.850   4.147  0.00  0.00    +0.149 HD
BRANCH  11  15
ATOM     15  C   UNL     1       4.056  -0.329   2.681  0.00  0.00    +0.102 C 
BRANCH  15  16
ATOM     16  C   UNL     1       2.993  -1.230   2.051  0.00  0.00    +0.000 C 
BRANCH  16  17
ATOM     17  C   UNL     1       2.424  -0.552   0.803  0.00  0.00    -0.077 C 
BRANCH  17  24
ATOM     18  C   UNL     1       2.808  -2.437  -1.337  0.00  0.00    -0.013 C 
ATOM     19  C   UNL     1       1.826  -2.653  -0.184  0.00  0.00    -0.071 C 
ATOM     20  C   UNL     1       0.662  -3.524  -0.663  0.00  0.00    -0.016 C 
ATOM     21  C   UNL     1      -0.053  -2.820  -1.820  0.00  0.00    -0.003 C 
ATOM     22  C   UNL     1      -0.516  -1.437  -1.354  0.00  0.00    -0.016 C 
ATOM     23  C   UNL     1       0.691  -0.643  -0.849  0.00  0.00    -0.071 C 
ATOM     24  N   UNL     1       1.314  -1.355   0.272  0.00  0.00    +0.383 N 
ATOM     25  C   UNL     1       0.232   0.740  -0.382  0.00  0.00    -0.013 C 
ATOM     26  H   UNL     1       0.629  -1.502   0.999  0.00  0.00    -0.081 HD
ENDBRANCH  17  24
ENDBRANCH  16  17
ENDBRANCH  15  16
ENDBRANCH  11  15
ENDBRANCH   1  12
BRANCH  10  27
ATOM     27  C   UNL     1       8.622  -0.699   5.178  0.00  0.00    +0.144 C 
BRANCH  27  28
ATOM     28  C   UNL     1       9.262  -2.047   5.386  0.00  0.00    -0.026 A 
ATOM     29  C   UNL     1      10.211  -2.214   6.378  0.00  0.00    +0.009 A 
ATOM     30  C   UNL     1      10.800  -3.449   6.573  0.00  0.00    +0.050 A 
ATOM     31  C   UNL     1      10.441  -4.523   5.775  0.00  0.00    +0.166 A 
ATOM     32  C   UNL     1       9.485  -4.355   4.776  0.00  0.00    +0.167 A 
ATOM     33  C   UNL     1       8.894  -3.116   4.590  0.00  0.00    +0.054 A 
ATOM     34  O   UNL     1       9.308  -5.548   4.136  0.00  0.00    -0.453 OA
ATOM     35  C   UNL     1      10.457  -6.343   4.482  0.00  0.00    +0.466 C 
ATOM     36  O   UNL     1      10.863  -5.821   5.761  0.00  0.00    -0.453 OA
ENDBRANCH  27  28
ENDBRANCH  10  27
TORSDOF 7
