REMARK  Name = ZINC40009300
REMARK  18 active torsions:
REMARK  status: ('A' for Active; 'I' for Inactive)
REMARK    1  A    between atoms: C_1  and  C_2
REMARK    2  A    between atoms: C_2  and  C_3
REMARK    3  A    between atoms: C_3  and  C_4
REMARK    4  A    between atoms: C_4  and  N_5
REMARK    5  A    between atoms: N_5  and  C_6
REMARK    6  A    between atoms: N_5  and  C_10
REMARK    7  A    between atoms: C_6  and  C_7
REMARK    8  A    between atoms: C_7  and  C_8
REMARK    9  A    between atoms: C_8  and  C_9
REMARK   10  A    between atoms: C_10  and  C_11
REMARK   11  A    between atoms: C_11  and  C_12
REMARK   12  A    between atoms: C_12  and  N_13
REMARK   13  A    between atoms: C_14  and  C_31
REMARK   14  A    between atoms: C_21  and  C_30
REMARK   15  A    between atoms: C_22  and  C_29
REMARK   16  A    between atoms: C_34  and  C_37
REMARK   17  A    between atoms: C_37  and  C_38
REMARK   18  A    between atoms: C_37  and  C_39
REMARK                            x       y       z     vdW  Elec       q    Type
REMARK                         _______ _______ _______ _____ _____    ______ ____
ROOT
ATOM      1  N   UNL     1       2.898  -6.159  -5.551  0.00  0.00    -0.284 N 
ATOM      2  C   UNL     1       2.411  -6.166  -6.941  0.00  0.00    +0.144 C 
ATOM      3  C   UNL     1       3.572  -6.595  -7.777  0.00  0.00    +0.072 A 
ATOM      4  C   UNL     1       3.699  -6.797  -9.224  0.00  0.00    +0.199 A 
ATOM      5  O   UNL     1       2.843  -6.458 -10.022  0.00  0.00    -0.287 OA
ATOM      6  C   UNL     1       4.969  -7.453  -9.624  0.00  0.00    +0.065 A 
ATOM      7  C   UNL     1       5.155  -7.893 -10.934  0.00  0.00    +0.019 A 
ATOM      8  C   UNL     1       6.329  -8.500 -11.285  0.00  0.00    -0.047 A 
ATOM      9  C   UNL     1       7.332  -8.679 -10.342  0.00  0.00    -0.044 A 
ATOM     10  C   UNL     1       7.166  -8.248  -9.045  0.00  0.00    +0.050 A 
ATOM     11  C   UNL     1       5.979  -7.624  -8.663  0.00  0.00    +0.140 A 
ATOM     12  O   UNL     1       5.841  -7.201  -7.386  0.00  0.00    -0.450 OA
ATOM     13  C   UNL     1       4.631  -6.808  -6.941  0.00  0.00    +0.199 A 
ATOM     14  C   UNL     1       4.194  -6.530  -5.561  0.00  0.00    +0.283 C 
ATOM     15  O   UNL     1       4.899  -6.623  -4.576  0.00  0.00    -0.267 OA
ATOM     16  C   UNL     1       8.619  -9.352 -10.744  0.00  0.00    +0.044 C 
ATOM     17  C   UNL     1       6.534  -8.977 -12.700  0.00  0.00    +0.044 C 
ENDROOT
BRANCH   2  18
ATOM     18  C   UNL     1       1.962  -4.784  -7.341  0.00  0.00    -0.022 A 
ATOM     19  C   UNL     1       2.692  -3.679  -6.947  0.00  0.00    +0.006 A 
ATOM     20  C   UNL     1       2.280  -2.411  -7.314  0.00  0.00    +0.004 A 
ATOM     21  C   UNL     1       1.139  -2.249  -8.077  0.00  0.00    -0.045 A 
ATOM     22  C   UNL     1       0.409  -3.355  -8.472  0.00  0.00    +0.004 A 
ATOM     23  C   UNL     1       0.823  -4.623  -8.108  0.00  0.00    +0.006 A 
BRANCH  21  24
ATOM     24  C   UNL     1       0.689  -0.868  -8.477  0.00  0.00    +0.013 C 
ATOM     25  C   UNL     1       0.658  -0.763 -10.003  0.00  0.00    +0.012 C 
ATOM     26  C   UNL     1      -0.711  -0.606  -7.919  0.00  0.00    +0.012 C 
ENDBRANCH  21  24
ENDBRANCH   2  18
BRANCH   1  27
ATOM     27  C   UNL     1       2.113  -5.804  -4.366  0.00  0.00    +0.107 C 
BRANCH  27  28
ATOM     28  C   UNL     1       2.234  -4.301  -4.105  0.00  0.00    +0.000 C 
BRANCH  28  29
ATOM     29  C   UNL     1       1.414  -3.931  -2.867  0.00  0.00    -0.077 C 
BRANCH  29  30
ATOM     30  N   UNL     1       1.634  -2.516  -2.539  0.00  0.00    +0.380 N 
ATOM     31  H   UNL     1       2.623  -2.345  -2.436  0.00  0.00    -0.082 HD
BRANCH  30  32
ATOM     32  C   UNL     1       1.103  -1.675  -3.620  0.00  0.00    -0.079 C 
BRANCH  32  33
ATOM     33  C   UNL     1       1.442  -0.210  -3.339  0.00  0.00    -0.019 C 
BRANCH  33  35
ATOM     34  C   UNL     1       1.227   2.132  -4.183  0.00  0.00    +0.004 C 
ATOM     35  C   UNL     1       0.888   0.667  -4.464  0.00  0.00    -0.005 C 
ENDBRANCH  33  35
ENDBRANCH  32  33
ENDBRANCH  30  32
BRANCH  30  36
ATOM     36  C   UNL     1       0.947  -2.192  -1.283  0.00  0.00    -0.079 C 
BRANCH  36  37
ATOM     37  C   UNL     1       1.607  -2.952  -0.130  0.00  0.00    -0.019 C 
BRANCH  37  38
ATOM     38  C   UNL     1       0.840  -2.678   1.166  0.00  0.00    -0.005 C 
ATOM     39  C   UNL     1       1.500  -3.438   2.319  0.00  0.00    +0.004 C 
ENDBRANCH  37  38
ENDBRANCH  36  37
ENDBRANCH  30  36
ENDBRANCH  29  30
ENDBRANCH  28  29
ENDBRANCH  27  28
ENDBRANCH   1  27
TORSDOF 12
