REMARK  Name = ZINC36593757
REMARK  10 active torsions:
REMARK  status: ('A' for Active; 'I' for Inactive)
REMARK    1  A    between atoms: C_1  and  C_2
REMARK    2  A    between atoms: C_2  and  C_3
REMARK    3  A    between atoms: C_2  and  C_4
REMARK    4  A    between atoms: C_2  and  N_5
REMARK    5  A    between atoms: N_5  and  C_6
REMARK    6  A    between atoms: C_6  and  C_8
REMARK    7  A    between atoms: C_6  and  C_17
REMARK    8  A    between atoms: N_19  and  C_20
REMARK    9  A    between atoms: C_26  and  C_28
REMARK   10  A    between atoms: C_31  and  N_34
REMARK                            x       y       z     vdW  Elec       q    Type
REMARK                         _______ _______ _______ _____ _____    ______ ____
ROOT
ATOM      1  C   UNL     1       1.343  -1.518   0.266  0.00  0.00    +0.193 C 
ENDROOT
BRANCH   1   2
ATOM      2  C   UNL     1       1.677  -2.814   0.958  0.00  0.00    -0.014 A 
ATOM      3  C   UNL     1       0.675  -3.554   1.557  0.00  0.00    +0.010 A 
ATOM      4  C   UNL     1       0.976  -4.744   2.193  0.00  0.00    +0.050 A 
ATOM      5  C   UNL     1       2.284  -5.198   2.231  0.00  0.00    +0.166 A 
ATOM      6  C   UNL     1       3.294  -4.452   1.627  0.00  0.00    +0.167 A 
ATOM      7  C   UNL     1       2.984  -3.263   0.987  0.00  0.00    +0.055 A 
ATOM      8  O   UNL     1       4.481  -5.104   1.801  0.00  0.00    -0.453 OA
ATOM      9  C   UNL     1       4.250  -6.045   2.866  0.00  0.00    +0.466 C 
ATOM     10  O   UNL     1       2.838  -6.317   2.783  0.00  0.00    -0.453 OA
ENDBRANCH   1   2
BRANCH   1  11
ATOM     11  C   UNL     1       1.457  -0.380   1.248  0.00  0.00    +0.238 C 
ATOM     12  O   UNL     1       0.497   0.328   1.469  0.00  0.00    -0.273 OA
ATOM     13  N   UNL     1       2.624  -0.150   1.881  0.00  0.00    -0.311 N 
ATOM     14  H   UNL     1       3.391  -0.717   1.704  0.00  0.00    +0.149 HD
BRANCH  13  15
ATOM     15  C   UNL     1       2.734   0.956   2.835  0.00  0.00    +0.073 C 
ATOM     16  C   UNL     1       3.056   2.248   2.083  0.00  0.00    +0.022 C 
ATOM     17  C   UNL     1       3.171   3.403   3.080  0.00  0.00    +0.002 C 
ATOM     18  C   UNL     1       4.289   3.104   4.081  0.00  0.00    +0.000 C 
ATOM     19  C   UNL     1       3.968   1.811   4.833  0.00  0.00    +0.002 C 
ATOM     20  C   UNL     1       3.852   0.656   3.836  0.00  0.00    +0.022 C 
ENDBRANCH  13  15
ENDBRANCH   1  11
BRANCH   1  21
ATOM     21  N   UNL     1      -0.025  -1.580  -0.254  0.00  0.00    -0.277 N 
ATOM     22  C   UNL     1      -1.042  -1.918   0.564  0.00  0.00    +0.248 C 
ATOM     23  O   UNL     1      -0.976  -1.668   1.752  0.00  0.00    -0.270 OA
BRANCH  22  24
ATOM     24  C   UNL     1      -2.237  -2.595   0.017  0.00  0.00    +0.037 A 
ATOM     25  C   UNL     1      -2.422  -2.683  -1.364  0.00  0.00    +0.015 A 
ATOM     26  C   UNL     1      -3.539  -3.316  -1.869  0.00  0.00    +0.033 A 
ATOM     27  C   UNL     1      -4.476  -3.862  -1.009  0.00  0.00    +0.126 A 
ATOM     28  C   UNL     1      -4.299  -3.777   0.361  0.00  0.00    +0.033 A 
ATOM     29  C   UNL     1      -3.183  -3.153   0.878  0.00  0.00    +0.015 A 
BRANCH  27  30
ATOM     30  N   UNL     1      -5.672  -4.539  -1.557  0.00  0.00    +0.056 N 
ATOM     31  O   UNL     1      -5.830  -4.614  -2.753  0.00  0.00    -0.126 OA
ATOM     32  O   UNL     1      -6.492  -5.017  -0.808  0.00  0.00    -0.126 OA
ENDBRANCH  27  30
ENDBRANCH  22  24
BRANCH  21  34
ATOM     33  C   UNL     1       0.755  -0.277  -2.171  0.00  0.00    +0.031 C 
ATOM     34  C   UNL     1      -0.289  -1.274  -1.662  0.00  0.00    +0.030 C 
ATOM     35  C   UNL     1      -1.685  -0.664  -1.798  0.00  0.00    +0.031 C 
ATOM     36  C   UNL     1      -0.211  -2.560  -2.487  0.00  0.00    +0.031 C 
ENDBRANCH  21  34
ENDBRANCH   1  21
TORSDOF 7
