REMARK  Name = ZINC08809638
REMARK  5 active torsions:
REMARK  status: ('A' for Active; 'I' for Inactive)
REMARK    1  A    between atoms: C_12  and  C_28
REMARK    2  A    between atoms: C_14  and  C_21
REMARK    3  A    between atoms: C_16  and  C_17
REMARK    4  A    between atoms: C_16  and  C_19
REMARK    5  A    between atoms: C_28  and  C_30
REMARK                            x       y       z     vdW  Elec       q    Type
REMARK                         _______ _______ _______ _____ _____    ______ ____
ROOT
ATOM      1  C   UNL     1       0.002  -0.004   0.002  0.00  0.00    +0.001 A 
ATOM      2  C   UNL     1       1.206  -0.688  -0.013  0.00  0.00    +0.002 A 
ATOM      3  C   UNL     1       2.405   0.000  -0.018  0.00  0.00    +0.024 A 
ATOM      4  C   UNL     1       2.406   1.381  -0.008  0.00  0.00    +0.038 A 
ATOM      5  C   UNL     1       1.179   2.082   0.002  0.00  0.00    -0.004 A 
ATOM      6  C   UNL     1      -0.017   1.377   0.010  0.00  0.00    +0.010 A 
ATOM      7  C   UNL     1       1.209   3.564  -0.003  0.00  0.00    +0.007 C 
ATOM      8  C   UNL     1       2.313   4.165   0.476  0.00  0.00    -0.002 C 
ATOM      9  C   UNL     1       3.402   3.260   0.966  0.00  0.00    +0.132 C 
ATOM     10  N   UNL     1       3.550   2.143  -0.005  0.00  0.00    -0.309 N 
ATOM     11  C   UNL     1       4.818   1.513   0.380  0.00  0.00    +0.156 C 
ATOM     12  C   UNL     1       5.752   2.723   0.658  0.00  0.00    +0.083 C 
ATOM     13  C   UNL     1       4.795   3.894   1.002  0.00  0.00    +0.173 C 
ENDROOT
BRANCH  12  14
ATOM     14  C   UNL     1       6.658   2.427   1.825  0.00  0.00    -0.039 A 
ATOM     15  C   UNL     1       6.118   2.152   3.067  0.00  0.00    +0.007 A 
ATOM     16  C   UNL     1       6.949   1.875   4.136  0.00  0.00    +0.038 A 
ATOM     17  C   UNL     1       8.323   1.886   3.966  0.00  0.00    +0.123 A 
ATOM     18  C   UNL     1       8.863   2.167   2.723  0.00  0.00    +0.038 A 
ATOM     19  C   UNL     1       8.030   2.438   1.653  0.00  0.00    +0.007 A 
ATOM     20  F   UNL     1       9.136   1.622   5.012  0.00  0.00    -0.205 F 
ENDBRANCH  12  14
BRANCH  13  21
ATOM     21  C   UNL     1       5.087   4.422   2.344  0.00  0.00    +0.087 C 
ATOM     22  N   UNL     1       5.312   4.829   3.381  0.00  0.00    -0.195 NA
ENDBRANCH  13  21
BRANCH  13  23
ATOM     23  C   UNL     1       4.902   4.960  -0.008  0.00  0.00    +0.087 C 
ATOM     24  N   UNL     1       4.984   5.783  -0.786  0.00  0.00    -0.195 NA
ENDBRANCH  13  23
BRANCH  11  25
ATOM     25  C   UNL     1       4.642   0.680   1.623  0.00  0.00    +0.191 C 
ATOM     26  O   UNL     1       3.637   0.797   2.295  0.00  0.00    -0.289 OA
BRANCH  25  27
ATOM     27  C   UNL     1       5.646  -0.236   2.008  0.00  0.00    +0.056 A 
ATOM     28  C   UNL     1       5.681  -1.089   3.106  0.00  0.00    +0.019 A 
ATOM     29  C   UNL     1       6.789  -1.883   3.242  0.00  0.00    +0.008 A 
ATOM     30  C   UNL     1       7.784  -1.802   2.317  0.00  0.00    +0.046 A 
ATOM     31  S   UNL     1       7.197  -0.606   1.207  0.00  0.00    -0.094 S 
ENDBRANCH  25  27
ENDBRANCH  11  25
TORSDOF 5
