REMARK  Name = ZINC18195784
REMARK  4 active torsions:
REMARK  status: ('A' for Active; 'I' for Inactive)
REMARK    1  A    between atoms: C_4  and  C_7
REMARK    2  A    between atoms: C_7  and  C_9
REMARK    3  A    between atoms: C_7  and  O_23
REMARK    4  A    between atoms: N_13  and  C_16
REMARK                            x       y       z     vdW  Elec       q    Type
REMARK                         _______ _______ _______ _____ _____    ______ ____
ROOT
ATOM      1  C   UNL     1       4.049  -1.182   1.377  0.00  0.00    +0.174 C 
ATOM      2  C   UNL     1       4.243   0.001   2.304  0.00  0.00    +0.126 C 
ATOM      3  N   UNL     1       5.458  -0.054   2.736  0.00  0.00    -0.161 NA
ATOM      4  N   UNL     1       6.163  -1.141   2.228  0.00  0.00    -0.159 N 
ATOM      5  C   UNL     1       5.394  -1.881   1.398  0.00  0.00    +0.252 C 
ATOM      6  O   UNL     1       5.710  -2.888   0.799  0.00  0.00    -0.273 OA
ATOM      7  N   UNL     1       3.299   0.956   2.625  0.00  0.00    -0.345 N 
ATOM      8  H   UNL     1       2.408   0.906   2.243  0.00  0.00    +0.143 HD
ATOM      9  H   UNL     1       3.526   1.677   3.232  0.00  0.00    +0.143 HD
ENDROOT
BRANCH   4  10
ATOM     10  C   UNL     1       7.497  -1.431   2.536  0.00  0.00    +0.060 A 
ATOM     11  C   UNL     1       8.117  -2.538   1.971  0.00  0.00    +0.025 A 
ATOM     12  C   UNL     1       9.433  -2.821   2.278  0.00  0.00    +0.002 A 
ATOM     13  C   UNL     1      10.134  -2.004   3.147  0.00  0.00    +0.000 A 
ATOM     14  C   UNL     1       9.519  -0.901   3.710  0.00  0.00    +0.002 A 
ATOM     15  C   UNL     1       8.205  -0.609   3.403  0.00  0.00    +0.025 A 
ENDBRANCH   4  10
BRANCH   1  16
ATOM     16  C   UNL     1       3.711  -0.707  -0.038  0.00  0.00    +0.164 C 
BRANCH  16  20
ATOM     17  C   UNL     1      -0.017   1.378   0.010  0.00  0.00    +0.000 A 
ATOM     18  C   UNL     1       1.171   2.086   0.002  0.00  0.00    +0.000 A 
ATOM     19  C   UNL     1       2.377   1.411  -0.013  0.00  0.00    +0.006 A 
ATOM     20  C   UNL     1       2.396   0.029  -0.020  0.00  0.00    -0.018 A 
ATOM     21  C   UNL     1       1.208  -0.679  -0.012  0.00  0.00    +0.006 A 
ATOM     22  C   UNL     1       0.002  -0.004   0.002  0.00  0.00    +0.000 A 
ENDBRANCH  16  20
BRANCH  16  23
ATOM     23  O   UNL     1       3.614  -1.836  -0.908  0.00  0.00    -0.386 OA
ATOM     24  H   UNL     1       2.934  -2.474  -0.651  0.00  0.00    +0.210 HD
ENDBRANCH  16  23
ENDBRANCH   1  16
TORSDOF 4
