REMARK  Name = ZINC12568765
REMARK  10 active torsions:
REMARK  status: ('A' for Active; 'I' for Inactive)
REMARK    1  A    between atoms: C_1  and  C_2
REMARK    2  A    between atoms: C_4  and  C_16
REMARK    3  A    between atoms: C_5  and  C_15
REMARK    4  A    between atoms: N_6  and  C_7
REMARK    5  A    between atoms: C_7  and  C_8
REMARK    6  A    between atoms: C_8  and  C_9
REMARK    7  A    between atoms: C_16  and  C_18
REMARK    8  A    between atoms: C_18  and  N_19
REMARK    9  A    between atoms: C_22  and  C_26
REMARK   10  A    between atoms: C_22  and  C_27
REMARK                            x       y       z     vdW  Elec       q    Type
REMARK                         _______ _______ _______ _____ _____    ______ ____
ROOT
ATOM      1  C   UNL     1       2.779   0.354   6.221  0.00  0.00    +0.197 C 
ENDROOT
BRANCH   1   2
ATOM      2  N   UNL     1       3.869   0.903   7.032  0.00  0.00    -0.216 N 
ATOM      3  C   UNL     1       5.176   0.671   6.801  0.00  0.00    +0.251 C 
ATOM      4  O   UNL     1       5.654  -0.006   5.916  0.00  0.00    -0.272 OA
ATOM      5  C   UNL     1       5.924   1.434   7.876  0.00  0.00    +0.135 C 
ATOM      6  N   UNL     1       4.851   2.060   8.667  0.00  0.00    -0.281 N 
ATOM      7  C   UNL     1       3.689   1.692   8.098  0.00  0.00    +0.310 C 
ATOM      8  O   UNL     1       2.597   2.038   8.505  0.00  0.00    -0.252 OA
ATOM      9  C   UNL     1       6.828   2.501   7.255  0.00  0.00    +0.047 C 
ATOM     10  H   UNL     1       4.960   2.628   9.446  0.00  0.00    +0.152 HD
BRANCH   5  11
ATOM     11  C   UNL     1       6.731   0.491   8.731  0.00  0.00    -0.012 A 
ATOM     12  C   UNL     1       7.304  -0.633   8.165  0.00  0.00    +0.010 A 
ATOM     13  C   UNL     1       8.046  -1.501   8.945  0.00  0.00    +0.050 A 
ATOM     14  C   UNL     1       8.215  -1.246  10.296  0.00  0.00    +0.166 A 
ATOM     15  C   UNL     1       7.637  -0.115  10.866  0.00  0.00    +0.167 A 
ATOM     16  C   UNL     1       6.900   0.753  10.078  0.00  0.00    +0.055 A 
ATOM     17  O   UNL     1       7.947  -0.089  12.195  0.00  0.00    -0.453 OA
ATOM     18  C   UNL     1       8.375  -1.426  12.517  0.00  0.00    +0.466 C 
ATOM     19  O   UNL     1       8.887  -1.930  11.269  0.00  0.00    -0.453 OA
ENDBRANCH   5  11
ENDBRANCH   1   2
BRANCH   1  20
ATOM     20  C   UNL     1       2.454   1.310   5.103  0.00  0.00    +0.183 C 
ATOM     21  O   UNL     1       3.072   2.349   4.994  0.00  0.00    -0.290 OA
BRANCH  20  25
ATOM     22  C   UNL     1      -1.338  -1.081   2.682  0.00  0.00    +0.063 C 
ATOM     23  C   UNL     1      -0.282  -0.085   3.089  0.00  0.00    +0.017 A 
ATOM     24  C   UNL     1       0.552  -0.219   4.133  0.00  0.00    +0.034 A 
ATOM     25  C   UNL     1       1.393   0.986   4.147  0.00  0.00    +0.040 A 
ATOM     26  C   UNL     1       0.976   1.750   3.074  0.00  0.00    +0.026 A 
ATOM     27  N   UNL     1      -0.020   1.094   2.454  0.00  0.00    -0.347 N 
ATOM     28  C   UNL     1       1.540   3.088   2.669  0.00  0.00    +0.064 C 
BRANCH  27  29
ATOM     29  C   UNL     1      -0.729   1.579   1.267  0.00  0.00    +0.126 C 
BRANCH  29  30
ATOM     30  C   UNL     1      -0.013   1.086   0.008  0.00  0.00    +0.052 C 
BRANCH  30  31
ATOM     31  C   UNL     1      -0.742   1.585  -1.213  0.00  0.00    -0.072 C 
ATOM     32  C   UNL     1      -0.324   2.679  -1.764  0.00  0.00    -0.028 C 
ATOM     33  C   UNL     1      -0.952   3.303  -2.976  0.00  0.00    +0.027 C 
ATOM     34  C   UNL     1      -1.838   2.284  -3.694  0.00  0.00    +0.004 C 
ATOM     35  C   UNL     1      -2.762   1.629  -2.659  0.00  0.00    +0.005 C 
ATOM     36  C   UNL     1      -1.903   0.779  -1.718  0.00  0.00    +0.030 C 
ENDBRANCH  30  31
ENDBRANCH  29  30
ENDBRANCH  27  29
ENDBRANCH  20  25
ENDBRANCH   1  20
TORSDOF 7
