REMARK  Name = ZINC61361025
REMARK  5 active torsions:
REMARK  status: ('A' for Active; 'I' for Inactive)
REMARK    1  A    between atoms: C_1  and  C_2
REMARK    2  A    between atoms: C_3  and  N_19
REMARK    3  A    between atoms: C_4  and  N_8
REMARK    4  A    between atoms: N_5  and  C_7
REMARK    5  A    between atoms: N_8  and  C_9
REMARK                            x       y       z     vdW  Elec       q    Type
REMARK                         _______ _______ _______ _____ _____    ______ ____
ROOT
ATOM      1  N   UNL     1      -0.457  -3.355  -1.357  0.00  0.00    -0.321 N 
ATOM      2  H   UNL     1      -0.640  -3.313  -2.309  0.00  0.00    +0.148 HD
ENDROOT
BRANCH   1   3
ATOM      3  C   UNL     1      -0.580  -4.628  -0.643  0.00  0.00    +0.103 C 
ATOM      4  C   UNL     1      -0.367  -5.786  -1.619  0.00  0.00    +0.027 C 
ATOM      5  C   UNL     1      -1.513  -5.835  -2.633  0.00  0.00    +0.007 C 
ATOM      6  C   UNL     1      -2.789  -6.295  -1.911  0.00  0.00    +0.043 C 
ATOM      7  C   UNL     1      -2.926  -5.504  -0.651  0.00  0.00    -0.005 A 
ATOM      8  C   UNL     1      -1.976  -4.742  -0.038  0.00  0.00    -0.017 A 
ATOM      9  C   UNL     1      -2.353  -4.095   1.138  0.00  0.00    +0.013 A 
ATOM     10  C   UNL     1      -3.609  -4.241   1.620  0.00  0.00    +0.046 A 
ATOM     11  S   UNL     1      -4.345  -5.332   0.399  0.00  0.00    -0.101 S 
ENDBRANCH   1   3
BRANCH   1  15
ATOM     12  C   UNL     1       2.272   0.024   1.113  0.00  0.00    +0.069 C 
ATOM     13  C   UNL     1       1.118  -0.672   0.438  0.00  0.00    +0.082 A 
ATOM     14  C   UNL     1       1.169  -1.926  -0.182  0.00  0.00    +0.087 A 
ATOM     15  C   UNL     1      -0.075  -2.202  -0.668  0.00  0.00    +0.138 A 
ATOM     16  N   UNL     1      -0.877  -1.147  -0.358  0.00  0.00    -0.252 N 
ATOM     17  N   UNL     1      -0.103  -0.209   0.337  0.00  0.00    -0.173 NA
ATOM     18  C   UNL     1      -2.298  -1.017  -0.689  0.00  0.00    +0.174 C 
BRANCH  14  19
ATOM     19  N   UNL     1       2.307  -2.758  -0.286  0.00  0.00    -0.354 N 
ATOM     20  H   UNL     1       3.128  -2.518   0.172  0.00  0.00    +0.142 HD
ATOM     21  H   UNL     1       2.268  -3.570  -0.815  0.00  0.00    +0.142 HD
ENDBRANCH  14  19
ENDBRANCH   1  15
TORSDOF 3
