REMARK  Name = ZINC39674176
REMARK  10 active torsions:
REMARK  status: ('A' for Active; 'I' for Inactive)
REMARK    1  A    between atoms: C_1  and  C_2
REMARK    2  A    between atoms: C_4  and  C_9
REMARK    3  A    between atoms: C_5  and  C_8
REMARK    4  A    between atoms: C_9  and  C_11
REMARK    5  A    between atoms: C_9  and  N_12
REMARK    6  A    between atoms: C_13  and  C_15
REMARK    7  A    between atoms: C_26  and  C_28
REMARK    8  A    between atoms: C_33  and  O_34
REMARK    9  A    between atoms: O_34  and  C_35
REMARK   10  A    between atoms: C_35  and  C_37
REMARK                            x       y       z     vdW  Elec       q    Type
REMARK                         _______ _______ _______ _____ _____    ______ ____
ROOT
ATOM      1  C   UNL     1      -4.409   3.189  -1.717  0.00  0.00    +0.100 C 
ATOM      2  C   UNL     1      -3.910   3.952  -0.470  0.00  0.00    +0.121 C 
ATOM      3  N   UNL     1      -4.942   4.987  -0.227  0.00  0.00    -0.296 N 
ATOM      4  C   UNL     1      -6.225   4.302  -0.510  0.00  0.00    +0.115 C 
ATOM      5  C   UNL     1      -5.929   3.420  -1.740  0.00  0.00    -0.004 C 
ATOM      6  C   UNL     1      -6.668   2.091  -1.625  0.00  0.00    -0.010 C 
ATOM      7  C   UNL     1      -8.177   2.341  -1.708  0.00  0.00    -0.082 C 
ATOM      8  N   UNL     1      -8.496   2.993  -2.984  0.00  0.00    +0.379 N 
ATOM      9  C   UNL     1      -7.856   4.312  -3.047  0.00  0.00    -0.082 C 
ATOM     10  C   UNL     1      -6.334   4.145  -3.020  0.00  0.00    -0.010 C 
ATOM     11  C   UNL     1      -4.755   6.264   0.164  0.00  0.00    +0.250 C 
ATOM     12  O   UNL     1      -5.713   6.971   0.409  0.00  0.00    -0.270 OA
ATOM     13  H   UNL     1      -8.161   2.421  -3.745  0.00  0.00    -0.086 HD
ATOM     14  H   UNL     1      -9.496   3.101  -3.063  0.00  0.00    -0.086 HD
ENDROOT
BRANCH  11  15
ATOM     15  C   UNL     1      -3.388   6.804   0.293  0.00  0.00    +0.079 A 
ATOM     16  C   UNL     1      -2.350   5.986   0.745  0.00  0.00    +0.017 A 
ATOM     17  C   UNL     1      -1.075   6.495   0.863  0.00  0.00    +0.001 A 
ATOM     18  C   UNL     1      -0.817   7.817   0.536  0.00  0.00    +0.004 A 
ATOM     19  C   UNL     1      -1.835   8.636   0.088  0.00  0.00    +0.047 A 
ATOM     20  C   UNL     1      -3.122   8.138  -0.042  0.00  0.00    +0.144 A 
BRANCH  20  21
ATOM     21  O   UNL     1      -4.122   8.941  -0.487  0.00  0.00    -0.425 OA
BRANCH  21  22
ATOM     22  C   UNL     1      -4.445   8.883  -1.789  0.00  0.00    +0.309 C 
ATOM     23  O   UNL     1      -3.908   8.075  -2.509  0.00  0.00    -0.251 OA
ATOM     24  C   UNL     1      -5.477   9.825  -2.352  0.00  0.00    +0.136 C 
ENDBRANCH  21  22
ENDBRANCH  20  21
ENDBRANCH  11  15
BRANCH   1  26
ATOM     25  N   UNL     1      -4.008   0.952  -2.694  0.00  0.00    -0.309 N 
ATOM     26  C   UNL     1      -4.104   1.718  -1.589  0.00  0.00    +0.219 C 
ATOM     27  O   UNL     1      -3.945   1.225  -0.493  0.00  0.00    -0.275 OA
ATOM     28  H   UNL     1      -4.136   1.346  -3.571  0.00  0.00    +0.149 HD
BRANCH  25  29
ATOM     29  C   UNL     1      -3.712  -0.478  -2.570  0.00  0.00    +0.100 C 
ATOM     30  C   UNL     1      -5.015  -1.253  -2.370  0.00  0.00    +0.033 C 
BRANCH  29  33
ATOM     31  C   UNL     1      -3.721   0.582  -5.676  0.00  0.00    +0.039 C 
ATOM     32  C   UNL     1      -3.528  -0.876  -5.254  0.00  0.00    +0.154 C 
ATOM     33  C   UNL     1      -3.027  -0.959  -3.823  0.00  0.00    -0.001 C 
ATOM     34  C   UNL     1      -1.839  -1.558  -3.933  0.00  0.00    +0.063 C 
ATOM     35  N   UNL     1      -1.563  -1.842  -5.224  0.00  0.00    -0.159 NA
ATOM     36  N   UNL     1      -2.442  -1.503  -6.026  0.00  0.00    -0.180 NA
ATOM     37  C   UNL     1      -0.930  -1.874  -2.773  0.00  0.00    +0.067 C 
ENDBRANCH  29  33
ENDBRANCH  25  29
ENDBRANCH   1  26
TORSDOF 6
