REMARK  Name = ZINC35777141
REMARK  16 active torsions:
REMARK  status: ('A' for Active; 'I' for Inactive)
REMARK    1  A    between atoms: C_1  and  C_2
REMARK    2  A    between atoms: C_2  and  C_3
REMARK    3  A    between atoms: C_3  and  C_4
REMARK    4  A    between atoms: C_4  and  O_6
REMARK    5  A    between atoms: O_6  and  C_7
REMARK    6  A    between atoms: C_7  and  C_8
REMARK    7  A    between atoms: C_8  and  C_10
REMARK    8  A    between atoms: C_8  and  O_36
REMARK    9  A    between atoms: C_10  and  N_11
REMARK   10  A    between atoms: N_11  and  C_12
REMARK   11  A    between atoms: N_11  and  C_33
REMARK   12  A    between atoms: C_12  and  C_13
REMARK   13  A    between atoms: C_14  and  C_32
REMARK   14  A    between atoms: N_16  and  C_25
REMARK   15  A    between atoms: C_17  and  O_18
REMARK   16  A    between atoms: O_18  and  C_19
REMARK                            x       y       z     vdW  Elec       q    Type
REMARK                         _______ _______ _______ _____ _____    ______ ____
ROOT
ATOM      1  C   UNL     1       2.975  -8.664  -5.965  0.00  0.00    +0.021 A 
ATOM      2  C   UNL     1       2.166  -8.735  -7.104  0.00  0.00    +0.065 A 
ATOM      3  N   UNL     1       2.909  -9.101  -8.117  0.00  0.00    -0.168 NA
ATOM      4  N   UNL     1       4.222  -9.277  -7.663  0.00  0.00    -0.200 N 
ATOM      5  C   UNL     1       4.242  -8.997  -6.332  0.00  0.00    +0.225 A 
ATOM      6  C   UNL     1       0.689  -8.441  -7.154  0.00  0.00    +0.068 C 
ENDROOT
BRANCH   4   7
ATOM      7  C   UNL     1       5.320  -9.667  -8.441  0.00  0.00    +0.070 A 
ATOM      8  C   UNL     1       6.554  -9.057  -8.259  0.00  0.00    +0.028 A 
ATOM      9  C   UNL     1       7.635  -9.443  -9.027  0.00  0.00    +0.003 A 
ATOM     10  C   UNL     1       7.489 -10.436  -9.978  0.00  0.00    +0.020 A 
ATOM     11  C   UNL     1       6.261 -11.046 -10.163  0.00  0.00    +0.043 A 
ATOM     12  C   UNL     1       5.178 -10.668  -9.393  0.00  0.00    +0.048 A 
ATOM     13 CL   UNL     1       6.083 -12.293 -11.358  0.00  0.00    -0.083 Cl
ENDBRANCH   4   7
BRANCH   1  14
ATOM     14  C   UNL     1       2.525  -8.280  -4.580  0.00  0.00    -0.035 C 
BRANCH  14  15
ATOM     15  N   UNL     1       2.784  -6.851  -4.359  0.00  0.00    +0.386 N 
ATOM     16  H   UNL     1       3.761  -6.657  -4.525  0.00  0.00    -0.081 HD
BRANCH  15  17
ATOM     17  C   UNL     1       2.444  -6.500  -2.974  0.00  0.00    -0.068 C 
ATOM     18  C   UNL     1       3.521  -5.809  -2.135  0.00  0.00    -0.017 C 
ATOM     19  C   UNL     1       3.153  -7.267  -1.856  0.00  0.00    -0.017 C 
ENDBRANCH  15  17
BRANCH  15  20
ATOM     20  C   UNL     1       1.963  -6.056  -5.282  0.00  0.00    -0.043 C 
BRANCH  20  21
ATOM     21  C   UNL     1       2.324  -4.576  -5.139  0.00  0.00    +0.136 C 
BRANCH  21  22
ATOM     22  O   UNL     1       2.077  -4.153  -3.796  0.00  0.00    -0.390 OA
ATOM     23  H   UNL     1       1.157  -4.251  -3.516  0.00  0.00    +0.210 HD
ENDBRANCH  21  22
BRANCH  21  24
ATOM     24  C   UNL     1       1.468  -3.748  -6.100  0.00  0.00    +0.261 C 
BRANCH  24  25
ATOM     25  O   UNL     1       1.885  -2.382  -6.052  0.00  0.00    -0.462 OA
BRANCH  25  26
ATOM     26  C   UNL     1       1.230  -1.517  -6.842  0.00  0.00    +0.307 C 
ATOM     27  O   UNL     1       0.333  -1.907  -7.552  0.00  0.00    -0.251 OA
BRANCH  26  28
ATOM     28  C   UNL     1       1.613  -0.059  -6.845  0.00  0.00    +0.120 C 
BRANCH  28  30
ATOM     29  C   UNL     1       1.108   2.181  -7.828  0.00  0.00    +0.004 C 
ATOM     30  C   UNL     1       0.719   0.702  -7.825  0.00  0.00    +0.008 C 
ENDBRANCH  28  30
ENDBRANCH  26  28
ENDBRANCH  25  26
ENDBRANCH  24  25
ENDBRANCH  21  24
ENDBRANCH  20  21
ENDBRANCH  15  20
ENDBRANCH  14  15
ENDBRANCH   1  14
BRANCH   5  31
ATOM     31  O   UNL     1       5.327  -9.044  -5.518  0.00  0.00    -0.438 OA
BRANCH  31  32
ATOM     32  C   UNL     1       5.660 -10.241  -4.967  0.00  0.00    +0.130 A 
ATOM     33  C   UNL     1       4.973 -11.389  -5.333  0.00  0.00    +0.046 A 
ATOM     34  C   UNL     1       5.313 -12.605  -4.771  0.00  0.00    +0.004 A 
ATOM     35  C   UNL     1       6.337 -12.677  -3.844  0.00  0.00    +0.000 A 
ATOM     36  C   UNL     1       7.023 -11.533  -3.478  0.00  0.00    +0.004 A 
ATOM     37  C   UNL     1       6.691 -10.317  -4.041  0.00  0.00    +0.046 A 
ENDBRANCH  31  32
ENDBRANCH   5  31
TORSDOF 14
