REMARK  Name = ZINC58853639
REMARK  12 active torsions:
REMARK  status: ('A' for Active; 'I' for Inactive)
REMARK    1  A    between atoms: C_1  and  C_2
REMARK    2  A    between atoms: C_6  and  C_34
REMARK    3  A    between atoms: C_7  and  N_8
REMARK    4  A    between atoms: N_8  and  C_9
REMARK    5  A    between atoms: N_8  and  S_30
REMARK    6  A    between atoms: C_9  and  C_10
REMARK    7  A    between atoms: N_12  and  N_13
REMARK    8  A    between atoms: C_14  and  C_15
REMARK    9  A    between atoms: C_17  and  C_29
REMARK   10  A    between atoms: N_18  and  C_21
REMARK   11  A    between atoms: C_19  and  C_20
REMARK   12  A    between atoms: S_30  and  C_33
REMARK                            x       y       z     vdW  Elec       q    Type
REMARK                         _______ _______ _______ _____ _____    ______ ____
ROOT
ATOM      1  C   UNL     1      -1.030  -2.074   4.294  0.00  0.00    +0.251 C 
ATOM      2  O   UNL     1      -0.163  -2.831   3.909  0.00  0.00    -0.272 OA
ATOM      3  N   UNL     1      -1.888  -2.466   5.256  0.00  0.00    -0.206 N 
ATOM      4  H   UNL     1      -2.581  -1.861   5.564  0.00  0.00    +0.177 HD
ENDROOT
BRANCH   3   5
ATOM      5  N   UNL     1      -1.781  -3.747   5.812  0.00  0.00    -0.188 NA
ATOM      6  C   UNL     1      -2.608  -4.125   6.738  0.00  0.00    +0.140 C 
BRANCH   6   7
ATOM      7  C   UNL     1      -2.494  -5.473   7.323  0.00  0.00    +0.016 A 
ATOM      8  C   UNL     1      -3.346  -6.054   8.365  0.00  0.00    +0.032 A 
ATOM      9  C   UNL     1      -2.884  -7.298   8.590  0.00  0.00    +0.022 A 
ATOM     10  N   UNL     1      -1.817  -7.528   7.769  0.00  0.00    -0.317 N 
ATOM     11  C   UNL     1      -1.579  -6.433   6.997  0.00  0.00    +0.030 A 
ATOM     12  C   UNL     1      -0.491  -6.301   5.963  0.00  0.00    +0.064 C 
ATOM     13  C   UNL     1      -3.452  -8.277   9.585  0.00  0.00    +0.064 C 
BRANCH  10  14
ATOM     14  C   UNL     1      -1.079  -8.719   7.724  0.00  0.00    +0.049 A 
ATOM     15  C   UNL     1       0.254  -8.725   8.111  0.00  0.00    +0.046 A 
ATOM     16  C   UNL     1       0.979  -9.901   8.067  0.00  0.00    +0.044 A 
ATOM     17  C   UNL     1       0.378 -11.071   7.637  0.00  0.00    +0.040 A 
ATOM     18  C   UNL     1      -0.951 -11.067   7.251  0.00  0.00    +0.044 A 
ATOM     19  C   UNL     1      -1.682  -9.895   7.299  0.00  0.00    +0.046 A 
ATOM     20 CL   UNL     1      -1.702 -12.536   6.712  0.00  0.00    -0.083 Cl
ATOM     21 CL   UNL     1       2.647  -9.910   8.550  0.00  0.00    -0.083 Cl
ENDBRANCH  10  14
ENDBRANCH   6   7
ENDBRANCH   3   5
BRANCH   1  22
ATOM     22  C   UNL     1      -1.145  -0.696   3.696  0.00  0.00    +0.228 C 
BRANCH  22  23
ATOM     23  N   UNL     1      -0.199  -0.564   2.585  0.00  0.00    -0.198 N 
BRANCH  23  30
ATOM     24  C   UNL     1      -2.262   0.872   1.252  0.00  0.00    +0.046 C 
ATOM     25  C   UNL     1      -1.569  -0.305   0.615  0.00  0.00    -0.028 A 
ATOM     26  C   UNL     1      -1.926  -0.714  -0.655  0.00  0.00    +0.005 A 
ATOM     27  C   UNL     1      -1.291  -1.793  -1.240  0.00  0.00    +0.001 A 
ATOM     28  C   UNL     1      -0.296  -2.468  -0.556  0.00  0.00    +0.005 A 
ATOM     29  C   UNL     1       0.066  -2.065   0.714  0.00  0.00    -0.028 A 
ATOM     30  C   UNL     1      -0.567  -0.977   1.303  0.00  0.00    +0.057 A 
ATOM     31  C   UNL     1       1.150  -2.801   1.459  0.00  0.00    +0.046 C 
ENDBRANCH  23  30
BRANCH  23  32
ATOM     32  S   UNL     1       1.305   0.075   2.850  0.00  0.00    +0.043 S 
ATOM     33  O   UNL     1       1.642  -0.326   4.172  0.00  0.00    -0.155 OA
ATOM     34  O   UNL     1       2.083  -0.357   1.742  0.00  0.00    -0.155 OA
ATOM     35  C   UNL     1       1.067   1.872   2.784  0.00  0.00    +0.218 C 
ENDBRANCH  23  32
ENDBRANCH  22  23
ENDBRANCH   1  22
TORSDOF 7
