REMARK  Name = ZINC39661357
REMARK  6 active torsions:
REMARK  status: ('A' for Active; 'I' for Inactive)
REMARK    1  A    between atoms: C_1  and  C_2
REMARK    2  A    between atoms: C_12  and  O_13
REMARK    3  A    between atoms: O_13  and  C_14
REMARK    4  A    between atoms: C_14  and  C_15
REMARK    5  A    between atoms: C_19  and  C_28
REMARK    6  A    between atoms: N_30  and  C_31
REMARK                            x       y       z     vdW  Elec       q    Type
REMARK                         _______ _______ _______ _____ _____    ______ ____
ROOT
ATOM      1  C   UNL     1       0.240  -6.134   3.578  0.00  0.00    +0.253 C 
ATOM      2  O   UNL     1       0.282  -6.452   2.409  0.00  0.00    -0.272 OA
ATOM      3  N   UNL     1       0.210  -7.084   4.534  0.00  0.00    -0.297 N 
ATOM      4  C   UNL     1       0.152  -6.893   6.003  0.00  0.00    +0.121 C 
ATOM      5  C   UNL     1      -0.808  -7.996   6.502  0.00  0.00    +0.100 C 
ATOM      6  C   UNL     1      -0.753  -9.085   5.417  0.00  0.00    -0.004 C 
ATOM      7  C   UNL     1       0.220  -8.555   4.353  0.00  0.00    +0.115 C 
ATOM      8  C   UNL     1      -0.234 -10.393   6.006  0.00  0.00    -0.010 C 
ATOM      9  C   UNL     1      -0.243 -11.474   4.922  0.00  0.00    -0.082 C 
ATOM     10  N   UNL     1      -1.610 -11.651   4.416  0.00  0.00    +0.379 N 
ATOM     11  C   UNL     1      -2.068 -10.416   3.768  0.00  0.00    -0.082 C 
ATOM     12  C   UNL     1      -2.135  -9.289   4.803  0.00  0.00    -0.010 C 
ATOM     13  H   UNL     1      -1.624 -12.406   3.747  0.00  0.00    -0.086 HD
ATOM     14  H   UNL     1      -2.225 -11.874   5.184  0.00  0.00    -0.086 HD
ENDROOT
BRANCH   5  15
ATOM     15  C   UNL     1      -2.208  -7.453   6.633  0.00  0.00    +0.219 C 
ATOM     16  O   UNL     1      -2.589  -6.573   5.891  0.00  0.00    -0.275 OA
ATOM     17  N   UNL     1      -3.036  -7.946   7.575  0.00  0.00    -0.304 N 
ATOM     18  H   UNL     1      -2.731  -8.650   8.169  0.00  0.00    +0.149 HD
BRANCH  17  19
ATOM     19  C   UNL     1      -4.397  -7.418   7.703  0.00  0.00    +0.151 C 
ATOM     20  C   UNL     1      -4.868  -7.602   9.147  0.00  0.00    +0.042 C 
ATOM     21  C   UNL     1      -6.415  -7.600   9.142  0.00  0.00    +0.079 C 
ATOM     22  S   UNL     1      -6.782  -8.286   7.480  0.00  0.00    -0.086 S 
ATOM     23  C   UNL     1      -5.295  -8.133   6.721  0.00  0.00    +0.209 C 
ATOM     24  O   UNL     1      -5.002  -8.517   5.609  0.00  0.00    -0.283 OA
ENDBRANCH  17  19
ENDBRANCH   5  15
BRANCH   1  25
ATOM     25  C   UNL     1       0.223  -4.677   3.963  0.00  0.00    +0.324 C 
BRANCH  25  26
ATOM     26  O   UNL     1       0.262  -3.872   2.783  0.00  0.00    -0.479 OA
BRANCH  26  38
ATOM     27  C   UNL     1       0.306   2.093   1.029  0.00  0.00    +0.045 C 
ATOM     28  C   UNL     1       0.316   0.595   0.871  0.00  0.00    -0.033 A 
ATOM     29  C   UNL     1       0.361   0.024  -0.360  0.00  0.00    +0.096 A 
ATOM     30  C   UNL     1       0.369  -1.383  -0.481  0.00  0.00    +0.338 A 
ATOM     31  O   UNL     1       0.410  -1.883  -1.590  0.00  0.00    -0.245 OA
ATOM     32  O   UNL     1       0.334  -2.182   0.596  0.00  0.00    -0.418 OA
ATOM     33  C   UNL     1       0.289  -1.678   1.848  0.00  0.00    +0.181 A 
ATOM     34  C   UNL     1       0.283  -0.287   2.042  0.00  0.00    +0.024 A 
ATOM     35  C   UNL     1       0.242   0.238   3.338  0.00  0.00    +0.012 A 
ATOM     36  C   UNL     1       0.212  -0.613   4.419  0.00  0.00    +0.004 A 
ATOM     37  C   UNL     1       0.223  -1.988   4.230  0.00  0.00    +0.049 A 
ATOM     38  C   UNL     1       0.252  -2.523   2.955  0.00  0.00    +0.164 A 
ENDBRANCH  26  38
ENDBRANCH  25  26
ENDBRANCH   1  25
TORSDOF 5
