REMARK  Name = ZINC11654232
REMARK  8 active torsions:
REMARK  status: ('A' for Active; 'I' for Inactive)
REMARK    1  A    between atoms: C_1  and  C_2
REMARK    2  A    between atoms: C_3  and  C_14
REMARK    3  A    between atoms: C_4  and  C_13
REMARK    4  A    between atoms: C_8  and  C_12
REMARK    5  A    between atoms: N_10  and  C_11
REMARK    6  A    between atoms: C_14  and  C_15
REMARK    7  A    between atoms: C_15  and  C_16
REMARK    8  A    between atoms: N_18  and  C_19
REMARK                            x       y       z     vdW  Elec       q    Type
REMARK                         _______ _______ _______ _____ _____    ______ ____
ROOT
ATOM      1  C   UNL     1      -0.981   7.944   2.565  0.00  0.00    +0.101 C 
ENDROOT
BRANCH   1   2
ATOM      2  C   UNL     1      -1.203   7.179   1.286  0.00  0.00    +0.218 C 
ATOM      3  O   UNL     1      -1.490   7.771   0.267  0.00  0.00    -0.275 OA
ATOM      4  N   UNL     1      -1.082   5.837   1.274  0.00  0.00    -0.285 N 
ATOM      5  H   UNL     1      -0.912   5.291   2.213  0.00  0.00    +0.155 HD
BRANCH   4   6
ATOM      6  C   UNL     1      -1.173   5.137   0.065  0.00  0.00    +0.037 A 
ATOM      7  C   UNL     1      -0.871   5.778  -1.126  0.00  0.00    +0.023 A 
ATOM      8  C   UNL     1      -0.962   5.085  -2.318  0.00  0.00    +0.002 A 
ATOM      9  C   UNL     1      -1.354   3.762  -2.315  0.00  0.00    +0.004 A 
ATOM     10  C   UNL     1      -1.659   3.115  -1.124  0.00  0.00    -0.042 A 
ATOM     11  C   UNL     1      -1.567   3.799   0.067  0.00  0.00    -0.023 A 
ATOM     12  C   UNL     1      -1.874   3.159   1.396  0.00  0.00    +0.037 C 
ATOM     13  C   UNL     1      -2.683   1.879   1.202  0.00  0.00    +0.005 C 
ATOM     14  C   UNL     1      -1.962   1.004   0.169  0.00  0.00    +0.005 C 
ATOM     15  C   UNL     1      -2.085   1.672  -1.199  0.00  0.00    +0.035 C 
ENDBRANCH   4   6
ENDBRANCH   1   2
BRANCH   1  16
ATOM     16  C   UNL     1      -1.178   9.439   2.306  0.00  0.00    +0.046 C 
BRANCH  16  19
ATOM     17  C   UNL     1       1.470  10.408   2.996  0.00  0.00    +0.045 C 
ATOM     18  C   UNL     1       0.296  10.659   3.907  0.00  0.00    -0.033 A 
ATOM     19  C   UNL     1      -0.956  10.204   3.586  0.00  0.00    -0.022 A 
ATOM     20  C   UNL     1      -2.018  10.455   4.441  0.00  0.00    +0.044 A 
ATOM     21  N   UNL     1      -1.855  11.115   5.567  0.00  0.00    -0.232 NA
ATOM     22  C   UNL     1      -0.667  11.580   5.932  0.00  0.00    +0.159 A 
ATOM     23  C   UNL     1       0.455  11.365   5.106  0.00  0.00    +0.045 A 
ATOM     24  C   UNL     1       1.589  11.990   5.777  0.00  0.00    +0.069 A 
ATOM     25  N   UNL     1       1.151  12.514   6.886  0.00  0.00    -0.174 NA
ATOM     26  N   UNL     1      -0.222  12.285   7.017  0.00  0.00    -0.249 N 
ATOM     27  C   UNL     1      -1.053  12.730   8.139  0.00  0.00    +0.174 C 
ATOM     28  C   UNL     1       3.010  12.023   5.277  0.00  0.00    +0.068 C 
ATOM     29  C   UNL     1      -3.392   9.956   4.074  0.00  0.00    +0.066 C 
ENDBRANCH  16  19
ENDBRANCH   1  16
TORSDOF 4
