REMARK  Name = ZINC41155328
REMARK  5 active torsions:
REMARK  status: ('A' for Active; 'I' for Inactive)
REMARK    1  A    between atoms: C_1  and  C_2
REMARK    2  A    between atoms: C_5  and  C_8
REMARK    3  A    between atoms: C_8  and  C_9
REMARK    4  A    between atoms: C_11  and  C_14
REMARK    5  A    between atoms: C_14  and  N_21
REMARK                            x       y       z     vdW  Elec       q    Type
REMARK                         _______ _______ _______ _____ _____    ______ ____
ROOT
ATOM      1  C   UNL     1       1.912  -4.460  -0.495  0.00  0.00    +0.232 A 
ATOM      2  N   UNL     1       2.442  -4.758   0.659  0.00  0.00    -0.197 NA
ATOM      3  C   UNL     1       3.637  -5.331   0.481  0.00  0.00    +0.161 A 
ATOM      4  N   UNL     1       3.884  -5.405  -0.795  0.00  0.00    -0.063 NA
ATOM      5  O   UNL     1       2.760  -4.843  -1.457  0.00  0.00    -0.338 OA
ENDROOT
BRANCH   3   6
ATOM      6  C   UNL     1       4.551  -5.812   1.579  0.00  0.00    -0.006 C 
ATOM      7  C   UNL     1       3.909  -6.966   2.301  0.00  0.00    -0.005 C 
ATOM      8  C   UNL     1       4.256  -6.989   3.802  0.00  0.00    -0.001 C 
ATOM      9  C   UNL     1       5.736  -6.660   4.078  0.00  0.00    -0.000 C 
ATOM     10  C   UNL     1       6.665  -7.326   3.100  0.00  0.00    -0.000 C 
ATOM     11  C   UNL     1       6.957  -6.338   1.951  0.00  0.00    -0.001 C 
ATOM     12  C   UNL     1       5.883  -6.295   0.971  0.00  0.00    -0.005 C 
BRANCH   6  13
ATOM     13  N   UNL     1       4.808  -4.716   2.523  0.00  0.00    +0.387 N 
ATOM     14  H   UNL     1       4.176  -4.791   3.306  0.00  0.00    -0.089 HD
ATOM     15  H   UNL     1       5.760  -4.772   2.852  0.00  0.00    -0.089 HD
ATOM     16  H   UNL     1       4.664  -3.832   2.058  0.00  0.00    -0.089 HD
ENDBRANCH   6  13
ENDBRANCH   3   6
BRANCH   1  17
ATOM     17  C   UNL     1       0.572  -3.804  -0.709  0.00  0.00    +0.134 C 
BRANCH  17  22
ATOM     18  C   UNL     1       1.234   1.935  -0.833  0.00  0.00    +0.044 C 
ATOM     19  C   UNL     1       1.062   0.439  -0.801  0.00  0.00    -0.050 A 
ATOM     20  C   UNL     1       1.150  -0.293  -1.970  0.00  0.00    +0.003 A 
ATOM     21  C   UNL     1       0.992  -1.666  -1.941  0.00  0.00    +0.004 A 
ATOM     22  C   UNL     1       0.746  -2.307  -0.741  0.00  0.00    -0.038 A 
ATOM     23  C   UNL     1       0.658  -1.576   0.429  0.00  0.00    +0.004 A 
ATOM     24  C   UNL     1       0.820  -0.203   0.399  0.00  0.00    +0.003 A 
ENDBRANCH  17  22
ENDBRANCH   1  17
TORSDOF 4
