REMARK  Name = ZINC62714287
REMARK  2 active torsions:
REMARK  status: ('A' for Active; 'I' for Inactive)
REMARK    1  A    between atoms: C_1  and  C_12
REMARK    2  A    between atoms: C_3  and  C_9
REMARK                            x       y       z     vdW  Elec       q    Type
REMARK                         _______ _______ _______ _____ _____    ______ ____
ROOT
ATOM      1  C   UNL     1      -0.013   1.086   0.008  0.00  0.00    +0.189 C 
ATOM      2  C   UNL     1      -0.750   1.595  -1.237  0.00  0.00    +0.189 C 
ATOM      3  S   UNL     1       0.385   2.629  -2.227  0.00  0.00    -0.094 S 
ATOM      4  C   UNL     1       2.006   2.044  -1.740  0.00  0.00    +0.087 C 
ATOM      5  S   UNL     1       3.434   1.852  -2.664  0.00  0.00    -0.037 S 
ATOM      6  S   UNL     1       1.700   1.720  -0.005  0.00  0.00    -0.094 S 
ENDROOT
BRANCH   2   7
ATOM      7  C   UNL     1      -1.941   2.417  -0.816  0.00  0.00    +0.371 C 
ATOM      8  O   UNL     1      -1.846   3.630  -0.733  0.00  0.00    -0.245 OA
ATOM      9  O   UNL     1      -2.999   1.869  -0.558  0.00  0.00    -0.245 OA
ENDBRANCH   2   7
BRANCH   1  10
ATOM     10  C   UNL     1      -0.721   1.573   1.246  0.00  0.00    +0.371 C 
ATOM     11  O   UNL     1      -0.341   2.587   1.806  0.00  0.00    -0.245 OA
ATOM     12  O   UNL     1      -1.673   0.953   1.687  0.00  0.00    -0.245 OA
ENDBRANCH   1  10
TORSDOF 2
