REMARK  Name = ZINC06282075
REMARK  6 active torsions:
REMARK  status: ('A' for Active; 'I' for Inactive)
REMARK    1  A    between atoms: C_1  and  C_2
REMARK    2  A    between atoms: C_7  and  C_14
REMARK    3  A    between atoms: C_14  and  C_16
REMARK    4  A    between atoms: C_14  and  N_66
REMARK    5  A    between atoms: N_20  and  C_21
REMARK    6  A    between atoms: N_28  and  C_31
REMARK                            x       y       z     vdW  Elec       q    Type
REMARK                         _______ _______ _______ _____ _____    ______ ____
ROOT
ATOM      1  C   UNL     1       2.531  -0.331  -0.056  0.00  0.00    +0.039 C 
ENDROOT
BRANCH   1   8
ATOM      2  C   UNL     1       4.855  -1.998  -7.501  0.00  0.00    +0.044 C 
ATOM      3  C   UNL     1       4.207  -1.766  -6.160  0.00  0.00    -0.048 A 
ATOM      4  C   UNL     1       2.874  -2.103  -5.974  0.00  0.00    +0.004 A 
ATOM      5  C   UNL     1       2.268  -1.901  -4.767  0.00  0.00    +0.010 A 
ATOM      6  C   UNL     1       2.998  -1.349  -3.708  0.00  0.00    -0.001 A 
ATOM      7  C   UNL     1       2.381  -1.124  -2.400  0.00  0.00    +0.017 A 
ATOM      8  C   UNL     1       3.136  -0.581  -1.413  0.00  0.00    +0.011 A 
ATOM      9  C   UNL     1       4.489  -0.255  -1.650  0.00  0.00    +0.251 A 
ATOM     10  O   UNL     1       5.151   0.228  -0.748  0.00  0.00    -0.268 OA
ATOM     11  N   UNL     1       5.065  -0.463  -2.847  0.00  0.00    -0.322 N 
ATOM     12  H   UNL     1       5.997  -0.228  -2.976  0.00  0.00    +0.169 HD
ATOM     13  C   UNL     1       4.350  -1.007  -3.893  0.00  0.00    +0.049 A 
ATOM     14  C   UNL     1       4.946  -1.222  -5.132  0.00  0.00    +0.029 A 
ENDBRANCH   1   8
BRANCH   1  20
ATOM     15  C   UNL     1       3.312  -2.519   0.626  0.00  0.00    -0.058 C 
ATOM     16  C   UNL     1       4.161  -3.260   1.663  0.00  0.00    +0.086 C 
ATOM     17  N   UNL     1       3.591  -3.048   3.001  0.00  0.00    -0.331 N 
ATOM     18  C   UNL     1       3.554  -1.617   3.334  0.00  0.00    +0.086 C 
ATOM     19  C   UNL     1       2.705  -0.877   2.297  0.00  0.00    -0.058 C 
ATOM     20  N   UNL     1       3.301  -1.079   0.961  0.00  0.00    +0.391 N 
ATOM     21  H   UNL     1       4.267  -0.731   0.970  0.00  0.00    -0.080 HD
BRANCH  17  22
ATOM     22  C   UNL     1       4.299  -3.769   3.967  0.00  0.00    +0.065 A 
ATOM     23  C   UNL     1       3.875  -3.764   5.289  0.00  0.00    +0.026 A 
ATOM     24  C   UNL     1       4.575  -4.480   6.241  0.00  0.00    +0.002 A 
ATOM     25  C   UNL     1       5.702  -5.196   5.881  0.00  0.00    +0.003 A 
ATOM     26  C   UNL     1       6.131  -5.201   4.566  0.00  0.00    +0.040 A 
ATOM     27  C   UNL     1       5.433  -4.489   3.607  0.00  0.00    +0.144 A 
ATOM     28  F   UNL     1       5.853  -4.493   2.323  0.00  0.00    -0.204 F 
ENDBRANCH  17  22
ENDBRANCH   1  20
BRANCH   1  29
ATOM     29  C   UNL     1       1.091  -0.775  -0.058  0.00  0.00    +0.143 A 
ATOM     30  N   UNL     1       0.652  -2.009  -0.022  0.00  0.00    -0.115 NA
ATOM     31  N   UNL     1      -0.636  -1.975  -0.040  0.00  0.00    -0.023 NA
ATOM     32  N   UNL     1      -1.030  -0.750  -0.081  0.00  0.00    -0.044 NA
ATOM     33  N   UNL     1       0.005   0.020  -0.099  0.00  0.00    -0.227 N 
BRANCH  33  34
ATOM     34  C   UNL     1      -0.001   1.484  -0.148  0.00  0.00    +0.111 C 
ATOM     35  C   UNL     1      -0.788   2.050   1.051  0.00  0.00    +0.027 C 
ATOM     36  C   UNL     1      -1.526   3.284   0.472  0.00  0.00    +0.002 C 
ATOM     37  C   UNL     1      -1.928   2.808  -0.946  0.00  0.00    +0.002 C 
ATOM     38  C   UNL     1      -0.724   1.966  -1.418  0.00  0.00    +0.027 C 
ENDBRANCH  33  34
ENDBRANCH   1  29
TORSDOF 5
