REMARK  Name = ZINC15675834
REMARK  5 active torsions:
REMARK  status: ('A' for Active; 'I' for Inactive)
REMARK    1  A    between atoms: C_3  and  N_8
REMARK    2  A    between atoms: C_20  and  C_22
REMARK    3  A    between atoms: C_24  and  C_27
REMARK    4  A    between atoms: C_30  and  O_33
REMARK    5  A    between atoms: O_33  and  C_34
REMARK                            x       y       z     vdW  Elec       q    Type
REMARK                         _______ _______ _______ _____ _____    ______ ____
ROOT
ATOM      1  N   UNL     1       3.584   2.127  -0.024  0.00  0.00    -0.269 N 
ATOM      2  C   UNL     1       4.759   1.473   0.066  0.00  0.00    +0.307 C 
ATOM      3  O   UNL     1       4.779   0.257   0.062  0.00  0.00    -0.252 OA
ATOM      4  N   UNL     1       5.911   2.166   0.160  0.00  0.00    -0.267 N 
ATOM      5  C   UNL     1       5.900   3.635   0.285  0.00  0.00    +0.165 C 
ATOM      6  C   UNL     1       6.958   4.173  -0.649  0.00  0.00    +0.054 A 
ATOM      7  C   UNL     1       7.881   3.400  -1.260  0.00  0.00    +0.040 A 
ATOM      8  N   UNL     1       8.659   4.228  -2.011  0.00  0.00    -0.349 N 
ATOM      9  H   UNL     1       9.412   3.968  -2.565  0.00  0.00    +0.166 HD
ATOM     10  C   UNL     1       8.184   5.483  -1.838  0.00  0.00    +0.171 A 
ATOM     11  N   UNL     1       7.165   5.438  -1.020  0.00  0.00    -0.348 N 
ATOM     12  C   UNL     1       7.986   1.904  -1.112  0.00  0.00    +0.087 C 
ATOM     13  C   UNL     1       7.209   1.475   0.145  0.00  0.00    +0.172 C 
ATOM     14  H   UNL     1       3.573   3.088  -0.159  0.00  0.00    +0.156 HD
ATOM     15  H   UNL     1       6.642   6.202  -0.730  0.00  0.00    +0.166 HD
ENDROOT
BRANCH   1  18
ATOM     16  C   UNL     1       0.069   1.336   0.715  0.00  0.00    +0.005 A 
ATOM     17  C   UNL     1       1.257   2.035   0.616  0.00  0.00    +0.023 A 
ATOM     18  C   UNL     1       2.380   1.421   0.078  0.00  0.00    +0.037 A 
ATOM     19  C   UNL     1       2.307   0.105  -0.358  0.00  0.00    +0.061 A 
ATOM     20  C   UNL     1       1.115  -0.590  -0.257  0.00  0.00    +0.125 A 
ATOM     21  C   UNL     1      -0.003   0.026   0.280  0.00  0.00    +0.038 A 
ATOM     22  F   UNL     1       1.042  -1.871  -0.681  0.00  0.00    -0.205 F 
ENDBRANCH   1  18
BRANCH  13  23
ATOM     23  C   UNL     1       7.992   1.849   1.378  0.00  0.00    +0.249 A 
ATOM     24  N   UNL     1       8.651   1.023   2.140  0.00  0.00    -0.190 NA
ATOM     25  C   UNL     1       9.233   1.694   3.150  0.00  0.00    +0.202 A 
ATOM     26  N   UNL     1       8.941   2.966   3.031  0.00  0.00    -0.056 NA
ATOM     27  O   UNL     1       8.132   3.086   1.871  0.00  0.00    -0.336 OA
BRANCH  25  28
ATOM     28  C   UNL     1      10.066   1.093   4.221  0.00  0.00    +0.023 A 
ATOM     29  C   UNL     1      10.307  -0.280   4.231  0.00  0.00    +0.015 A 
ATOM     30  C   UNL     1      11.082  -0.835   5.227  0.00  0.00    +0.046 A 
ATOM     31  C   UNL     1      11.622  -0.028   6.220  0.00  0.00    +0.130 A 
ATOM     32  C   UNL     1      11.384   1.340   6.212  0.00  0.00    +0.046 A 
ATOM     33  C   UNL     1      10.615   1.902   5.215  0.00  0.00    +0.015 A 
BRANCH  31  34
ATOM     34  O   UNL     1      12.385  -0.578   7.200  0.00  0.00    -0.406 OA
BRANCH  34  35
ATOM     35  C   UNL     1      12.909   0.311   8.189  0.00  0.00    +0.575 C 
ATOM     36  F   UNL     1      11.854   0.950   8.848  0.00  0.00    -0.133 F 
ATOM     37  F   UNL     1      13.665  -0.416   9.115  0.00  0.00    -0.133 F 
ATOM     38  F   UNL     1      13.722   1.268   7.572  0.00  0.00    -0.133 F 
ENDBRANCH  34  35
ENDBRANCH  31  34
ENDBRANCH  25  28
ENDBRANCH  13  23
TORSDOF 5
