REMARK  Name = ZINC39666210
REMARK  12 active torsions:
REMARK  status: ('A' for Active; 'I' for Inactive)
REMARK    1  A    between atoms: C_1  and  C_2
REMARK    2  A    between atoms: C_5  and  O_8
REMARK    3  A    between atoms: O_8  and  C_9
REMARK    4  A    between atoms: C_9  and  C_11
REMARK    5  A    between atoms: C_9  and  C_12
REMARK    6  A    between atoms: C_12  and  N_13
REMARK    7  A    between atoms: C_14  and  C_16
REMARK    8  A    between atoms: C_27  and  C_29
REMARK    9  A    between atoms: C_31  and  O_37
REMARK   10  A    between atoms: C_34  and  O_35
REMARK   11  A    between atoms: O_35  and  C_36
REMARK   12  A    between atoms: O_37  and  C_38
REMARK                            x       y       z     vdW  Elec       q    Type
REMARK                         _______ _______ _______ _____ _____    ______ ____
ROOT
ATOM      1  C   UNL     1       4.469  -6.837   0.096  0.00  0.00    +0.100 C 
ATOM      2  C   UNL     1       5.439  -6.163   1.093  0.00  0.00    +0.121 C 
ATOM      3  N   UNL     1       6.090  -7.290   1.802  0.00  0.00    -0.296 N 
ATOM      4  C   UNL     1       6.314  -8.309   0.748  0.00  0.00    +0.115 C 
ATOM      5  C   UNL     1       5.049  -8.243  -0.130  0.00  0.00    -0.004 C 
ATOM      6  C   UNL     1       4.046  -9.305   0.312  0.00  0.00    -0.010 C 
ATOM      7  C   UNL     1       4.622 -10.695   0.025  0.00  0.00    -0.082 C 
ATOM      8  N   UNL     1       4.902 -10.823  -1.411  0.00  0.00    +0.379 N 
ATOM      9  C   UNL     1       5.935  -9.859  -1.808  0.00  0.00    -0.082 C 
ATOM     10  C   UNL     1       5.415  -8.435  -1.599  0.00  0.00    -0.010 C 
ATOM     11  C   UNL     1       6.406  -7.371   3.110  0.00  0.00    +0.250 C 
ATOM     12  O   UNL     1       6.238  -6.411   3.836  0.00  0.00    -0.270 OA
ATOM     13  H   UNL     1       5.223 -11.759  -1.607  0.00  0.00    -0.086 HD
ATOM     14  H   UNL     1       4.058 -10.644  -1.934  0.00  0.00    -0.086 HD
ENDROOT
BRANCH  11  15
ATOM     15  C   UNL     1       6.955  -8.625   3.659  0.00  0.00    +0.082 A 
ATOM     16  C   UNL     1       7.913  -9.346   2.942  0.00  0.00    +0.062 A 
ATOM     17  C   UNL     1       8.424 -10.520   3.463  0.00  0.00    +0.121 A 
ATOM     18  C   UNL     1       7.988 -10.984   4.698  0.00  0.00    +0.049 A 
ATOM     19  C   UNL     1       7.042 -10.278   5.414  0.00  0.00    +0.050 A 
ATOM     20  C   UNL     1       6.524  -9.096   4.907  0.00  0.00    +0.132 A 
BRANCH  20  21
ATOM     21  O   UNL     1       5.598  -8.399   5.614  0.00  0.00    -0.494 OA
ATOM     22  C   UNL     1       5.206  -8.940   6.877  0.00  0.00    +0.277 C 
ENDBRANCH  20  21
BRANCH  17  23
ATOM     23  O   UNL     1       9.356 -11.223   2.765  0.00  0.00    -0.495 OA
ATOM     24  C   UNL     1       9.842 -12.427   3.362  0.00  0.00    +0.277 C 
ENDBRANCH  17  23
ENDBRANCH  11  15
BRANCH   1  26
ATOM     25  N   UNL     1       2.013  -7.040  -0.117  0.00  0.00    -0.312 N 
ATOM     26  C   UNL     1       3.087  -6.928   0.690  0.00  0.00    +0.218 C 
ATOM     27  O   UNL     1       2.941  -6.901   1.894  0.00  0.00    -0.275 OA
ATOM     28  H   UNL     1       2.130  -7.062  -1.079  0.00  0.00    +0.149 HD
BRANCH  25  29
ATOM     29  C   UNL     1       0.670  -7.129   0.461  0.00  0.00    +0.148 C 
BRANCH  29  30
ATOM     30  C   UNL     1      -0.361  -7.248  -0.663  0.00  0.00    +0.187 C 
ATOM     31  C   UNL     1      -1.770  -7.215  -0.068  0.00  0.00    +0.053 C 
BRANCH  30  32
ATOM     32  O   UNL     1      -0.167  -8.481  -1.360  0.00  0.00    -0.488 OA
BRANCH  32  37
ATOM     33  C   UNL     1      -1.745  -8.642  -6.764  0.00  0.00    +0.044 C 
ATOM     34  C   UNL     1      -1.323  -8.599  -5.318  0.00  0.00    -0.050 A 
ATOM     35  C   UNL     1      -1.581  -7.474  -4.557  0.00  0.00    +0.007 A 
ATOM     36  C   UNL     1      -1.195  -7.432  -3.231  0.00  0.00    +0.046 A 
ATOM     37  C   UNL     1      -0.548  -8.520  -2.663  0.00  0.00    +0.121 A 
ATOM     38  C   UNL     1      -0.290  -9.647  -3.429  0.00  0.00    +0.046 A 
ATOM     39  C   UNL     1      -0.683  -9.686  -4.753  0.00  0.00    +0.007 A 
ENDBRANCH  32  37
ENDBRANCH  30  32
ENDBRANCH  29  30
ENDBRANCH  25  29
ENDBRANCH   1  26
TORSDOF 8
