REMARK  Name = ZINC01337542
REMARK  9 active torsions:
REMARK  status: ('A' for Active; 'I' for Inactive)
REMARK    1  A    between atoms: C_5  and  N_7
REMARK    2  A    between atoms: N_7  and  C_8
REMARK    3  A    between atoms: C_8  and  C_10
REMARK    4  A    between atoms: C_8  and  C_17
REMARK    5  A    between atoms: N_19  and  C_20
REMARK    6  A    between atoms: C_23  and  C_25
REMARK    7  A    between atoms: C_25  and  N_26
REMARK    8  A    between atoms: C_28  and  C_31
REMARK    9  A    between atoms: C_34  and  C_37
REMARK                            x       y       z     vdW  Elec       q    Type
REMARK                         _______ _______ _______ _____ _____    ______ ____
ROOT
ATOM      1  N   UNL     1       1.963  -2.363  -0.173  0.00  0.00    -0.251 N 
ATOM      2  C   UNL     1       2.159  -3.173   0.886  0.00  0.00    +0.244 C 
ATOM      3  O   UNL     1       1.640  -4.269   0.916  0.00  0.00    -0.273 OA
ENDROOT
BRANCH   1   8
ATOM      4  C   UNL     1       2.646   1.181   0.534  0.00  0.00    +0.002 A 
ATOM      5  C   UNL     1       3.744   1.404  -0.277  0.00  0.00    +0.003 A 
ATOM      6  C   UNL     1       4.253   0.381  -1.054  0.00  0.00    +0.040 A 
ATOM      7  C   UNL     1       3.665  -0.871  -1.023  0.00  0.00    +0.145 A 
ATOM      8  C   UNL     1       2.562  -1.098  -0.208  0.00  0.00    +0.073 A 
ATOM      9  C   UNL     1       2.054  -0.067   0.571  0.00  0.00    +0.026 A 
ATOM     10  F   UNL     1       4.162  -1.871  -1.783  0.00  0.00    -0.204 F 
ENDBRANCH   1   8
BRANCH   1  11
ATOM     11  C   UNL     1       1.124  -2.808  -1.289  0.00  0.00    +0.197 C 
BRANCH  11  12
ATOM     12  C   UNL     1      -0.306  -2.922  -0.828  0.00  0.00    -0.018 A 
ATOM     13  C   UNL     1      -0.881  -1.897  -0.100  0.00  0.00    +0.009 A 
ATOM     14  C   UNL     1      -2.193  -2.002   0.323  0.00  0.00    +0.038 A 
ATOM     15  C   UNL     1      -2.931  -3.133   0.018  0.00  0.00    +0.123 A 
ATOM     16  C   UNL     1      -2.353  -4.158  -0.711  0.00  0.00    +0.038 A 
ATOM     17  C   UNL     1      -1.043  -4.050  -1.138  0.00  0.00    +0.009 A 
ATOM     18  F   UNL     1      -4.213  -3.236   0.432  0.00  0.00    -0.205 F 
ENDBRANCH  11  12
BRANCH  11  19
ATOM     19  C   UNL     1       1.211  -1.806  -2.412  0.00  0.00    +0.239 C 
ATOM     20  O   UNL     1       1.280  -0.621  -2.164  0.00  0.00    -0.273 OA
ATOM     21  N   UNL     1       1.211  -2.228  -3.692  0.00  0.00    -0.311 N 
ATOM     22  H   UNL     1       1.155  -3.176  -3.891  0.00  0.00    +0.149 HD
BRANCH  21  23
ATOM     23  C   UNL     1       1.295  -1.255  -4.784  0.00  0.00    +0.073 C 
ATOM     24  C   UNL     1       0.369  -1.458  -5.985  0.00  0.00    +0.024 C 
ATOM     25  C   UNL     1       1.867  -1.738  -6.119  0.00  0.00    +0.024 C 
ENDBRANCH  21  23
ENDBRANCH  11  19
ENDBRANCH   1  11
BRANCH   2  26
ATOM     26  C   UNL     1       3.022  -2.716   2.034  0.00  0.00    +0.264 C 
BRANCH  26  27
ATOM     27  N   UNL     1       3.076  -3.768   3.053  0.00  0.00    -0.154 N 
ATOM     28  N   UNL     1       2.256  -3.893   4.039  0.00  0.00    -0.130 NA
ATOM     29  C   UNL     1       2.623  -4.950   4.736  0.00  0.00    +0.205 A 
ATOM     30  N   UNL     1       3.703  -5.457   4.125  0.00  0.00    -0.108 NA
ATOM     31  N   UNL     1       3.947  -4.714   3.100  0.00  0.00    -0.045 NA
BRANCH  29  32
ATOM     32  C   UNL     1       1.968  -5.476   5.960  0.00  0.00    +0.023 A 
ATOM     33  C   UNL     1       0.842  -4.840   6.479  0.00  0.00    +0.012 A 
ATOM     34  C   UNL     1       0.237  -5.333   7.617  0.00  0.00    +0.013 A 
ATOM     35  C   UNL     1       0.746  -6.457   8.242  0.00  0.00    +0.055 A 
ATOM     36  C   UNL     1       1.864  -7.092   7.732  0.00  0.00    +0.013 A 
ATOM     37  C   UNL     1       2.474  -6.610   6.591  0.00  0.00    +0.012 A 
BRANCH  35  38
ATOM     38  C   UNL     1       0.082  -6.990   9.485  0.00  0.00    +0.417 C 
ATOM     39  F   UNL     1      -0.899  -7.921   9.127  0.00  0.00    -0.166 F 
ATOM     40  F   UNL     1       1.038  -7.610  10.297  0.00  0.00    -0.166 F 
ATOM     41  F   UNL     1      -0.511  -5.935  10.187  0.00  0.00    -0.166 F 
ENDBRANCH  35  38
ENDBRANCH  29  32
ENDBRANCH  26  27
ENDBRANCH   2  26
TORSDOF 9
