REMARK  Name = ZINC08183510
REMARK  6 active torsions:
REMARK  status: ('A' for Active; 'I' for Inactive)
REMARK    1  A    between atoms: C_9  and  O_25
REMARK    2  A    between atoms: C_10  and  C_11
REMARK    3  A    between atoms: N_12  and  N_13
REMARK    4  A    between atoms: C_14  and  C_16
REMARK    5  A    between atoms: C_16  and  O_17
REMARK    6  A    between atoms: O_17  and  C_18
REMARK                            x       y       z     vdW  Elec       q    Type
REMARK                         _______ _______ _______ _____ _____    ______ ____
ROOT
ATOM      1  C   UNL     1       2.905   6.540   0.009  0.00  0.00    +0.142 C 
ATOM      2  N   UNL     1       1.885   5.734   0.015  0.00  0.00    -0.187 NA
ENDROOT
BRANCH   1  12
ATOM      3  C   UNL     1       5.938  10.710   0.002  0.00  0.00    +0.001 A 
ATOM      4  C   UNL     1       6.179   9.339  -0.008  0.00  0.00    +0.001 A 
ATOM      5  C   UNL     1       5.148   8.447  -0.002  0.00  0.00    +0.009 A 
ATOM      6  C   UNL     1       3.828   8.915   0.013  0.00  0.00    -0.006 A 
ATOM      7  C   UNL     1       3.580  10.309   0.023  0.00  0.00    -0.017 A 
ATOM      8  C   UNL     1       4.667  11.199   0.018  0.00  0.00    +0.008 A 
ATOM      9  C   UNL     1       2.254  10.777   0.038  0.00  0.00    +0.012 A 
ATOM     10  C   UNL     1       1.209   9.906   0.042  0.00  0.00    +0.046 A 
ATOM     11  C   UNL     1       1.403   8.526   0.029  0.00  0.00    +0.126 A 
ATOM     12  C   UNL     1       2.693   7.994   0.019  0.00  0.00    +0.044 A 
BRANCH  11  13
ATOM     13  O   UNL     1       0.331   7.694   0.028  0.00  0.00    -0.506 OA
ATOM     14  H   UNL     1       0.024   7.447   0.911  0.00  0.00    +0.292 HD
ENDBRANCH  11  13
ENDBRANCH   1  12
BRANCH   2  15
ATOM     15  N   UNL     1       2.088   4.348   0.005  0.00  0.00    -0.204 N 
ATOM     16  C   UNL     1       1.030   3.513   0.011  0.00  0.00    +0.270 C 
ATOM     17  O   UNL     1      -0.097   3.961   0.024  0.00  0.00    -0.270 OA
ATOM     18  H   UNL     1       2.989   3.990  -0.005  0.00  0.00    +0.177 HD
BRANCH  16  19
ATOM     19  C   UNL     1       1.248   2.021   0.001  0.00  0.00    +0.326 C 
BRANCH  19  20
ATOM     20  O   UNL     1      -0.016   1.355   0.009  0.00  0.00    -0.480 OA
BRANCH  20  21
ATOM     21  C   UNL     1       0.002  -0.004   0.002  0.00  0.00    +0.156 A 
ATOM     22  C   UNL     1       1.211  -0.682  -0.019  0.00  0.00    +0.048 A 
ATOM     23  C   UNL     1       1.228  -2.064  -0.022  0.00  0.00    +0.004 A 
ATOM     24  C   UNL     1       0.040  -2.772  -0.015  0.00  0.00    +0.003 A 
ATOM     25  C   UNL     1      -1.168  -2.099   0.002  0.00  0.00    +0.042 A 
ATOM     26  C   UNL     1      -1.190  -0.716   0.010  0.00  0.00    +0.165 A 
ATOM     27  F   UNL     1      -2.371  -0.059   0.024  0.00  0.00    -0.202 F 
ENDBRANCH  20  21
ENDBRANCH  19  20
ENDBRANCH  16  19
ENDBRANCH   2  15
TORSDOF 6
