REMARK  Name = ZINC13981152
REMARK  13 active torsions:
REMARK  status: ('A' for Active; 'I' for Inactive)
REMARK    1  A    between atoms: C_1  and  C_2
REMARK    2  A    between atoms: C_4  and  C_30
REMARK    3  A    between atoms: C_6  and  O_8
REMARK    4  A    between atoms: O_8  and  C_9
REMARK    5  A    between atoms: C_9  and  C_10
REMARK    6  A    between atoms: N_12  and  N_13
REMARK    7  A    between atoms: N_13  and  C_14
REMARK    8  A    between atoms: C_14  and  N_16
REMARK    9  A    between atoms: C_17  and  C_19
REMARK   10  A    between atoms: C_22  and  C_26
REMARK   11  A    between atoms: C_26  and  C_27
REMARK   12  A    between atoms: C_26  and  C_28
REMARK   13  A    between atoms: C_26  and  C_29
REMARK                            x       y       z     vdW  Elec       q    Type
REMARK                         _______ _______ _______ _____ _____    ______ ____
ROOT
ATOM      1  C   UNL     1       6.194   7.110   0.038  0.00  0.00    +0.153 C 
ATOM      2  S   UNL     1       7.789   7.707   0.210  0.00  0.00    -0.017 S 
ENDROOT
BRANCH   1   3
ATOM      3  N   UNL     1       5.152   7.966   0.020  0.00  0.00    -0.263 N 
ATOM      4  C   UNL     1       5.367   9.291   0.137  0.00  0.00    +0.250 C 
ATOM      5  O   UNL     1       6.500   9.715   0.259  0.00  0.00    -0.270 OA
ATOM      6  H   UNL     1       4.248   7.628  -0.077  0.00  0.00    +0.157 HD
BRANCH   4   7
ATOM      7  C   UNL     1       4.226  10.229   0.117  0.00  0.00    +0.038 A 
ATOM      8  C   UNL     1       2.924   9.746  -0.029  0.00  0.00    +0.013 A 
ATOM      9  C   UNL     1       1.862  10.627  -0.040  0.00  0.00    +0.006 A 
ATOM     10  C   UNL     1       2.085  11.987   0.080  0.00  0.00    -0.028 A 
ATOM     11  C   UNL     1       3.373  12.473   0.219  0.00  0.00    +0.022 A 
ATOM     12  C   UNL     1       4.445  11.603   0.238  0.00  0.00    +0.028 A 
ATOM     13 BR   UNL     1       3.667  14.334   0.383  0.00  0.00    -0.050 Br
BRANCH  10  14
ATOM     14  C   UNL     1       0.920  12.943   0.059  0.00  0.00    -0.012 C 
ATOM     15  C   UNL     1      -0.384  12.156  -0.087  0.00  0.00    +0.015 C 
ATOM     16  C   UNL     1       0.891  13.739   1.365  0.00  0.00    +0.015 C 
ATOM     17  C   UNL     1       1.071  13.905  -1.121  0.00  0.00    +0.015 C 
ENDBRANCH  10  14
ENDBRANCH   4   7
ENDBRANCH   1   3
BRANCH   1  18
ATOM     18  N   UNL     1       5.979   5.785  -0.079  0.00  0.00    -0.245 N 
ATOM     19  H   UNL     1       6.728   5.169  -0.066  0.00  0.00    +0.172 HD
BRANCH  18  22
ATOM     20  C   UNL     1       4.458   3.971  -0.337  0.00  0.00    +0.267 C 
ATOM     21  O   UNL     1       5.395   3.201  -0.320  0.00  0.00    -0.271 OA
ATOM     22  N   UNL     1       4.673   5.297  -0.220  0.00  0.00    -0.232 N 
ATOM     23  H   UNL     1       3.924   5.912  -0.233  0.00  0.00    +0.173 HD
BRANCH  20  24
ATOM     24  C   UNL     1       3.054   3.446  -0.488  0.00  0.00    +0.326 C 
BRANCH  24  25
ATOM     25  O   UNL     1       3.087   2.021  -0.593  0.00  0.00    -0.483 OA
BRANCH  25  31
ATOM     26  C   UNL     1      -1.773   2.264  -0.968  0.00  0.00    +0.044 C 
ATOM     27  C   UNL     1      -0.494   1.469  -0.920  0.00  0.00    -0.047 A 
ATOM     28  C   UNL     1      -0.533   0.091  -1.027  0.00  0.00    +0.007 A 
ATOM     29  C   UNL     1       0.639  -0.641  -0.989  0.00  0.00    -0.047 A 
ATOM     30  C   UNL     1       1.853   0.003  -0.843  0.00  0.00    +0.049 A 
ATOM     31  C   UNL     1       1.895   1.385  -0.736  0.00  0.00    +0.122 A 
ATOM     32  C   UNL     1       0.717   2.117  -0.774  0.00  0.00    +0.049 A 
ATOM     33  C   UNL     1       0.594  -2.143  -1.105  0.00  0.00    +0.044 C 
ENDBRANCH  25  31
ENDBRANCH  24  25
ENDBRANCH  20  24
ENDBRANCH  18  22
ENDBRANCH   1  18
TORSDOF 8
