REMARK  Name = ZINC39304364
REMARK  11 active torsions:
REMARK  status: ('A' for Active; 'I' for Inactive)
REMARK    1  A    between atoms: C_1  and  C_2
REMARK    2  A    between atoms: C_2  and  O_3
REMARK    3  A    between atoms: O_3  and  C_4
REMARK    4  A    between atoms: C_4  and  C_6
REMARK    5  A    between atoms: C_6  and  C_24
REMARK    6  A    between atoms: N_10  and  C_12
REMARK    7  A    between atoms: C_12  and  C_13
REMARK    8  A    between atoms: N_15  and  C_16
REMARK    9  A    between atoms: C_18  and  C_23
REMARK   10  A    between atoms: C_24  and  C_25
REMARK   11  A    between atoms: C_28  and  C_31
REMARK                            x       y       z     vdW  Elec       q    Type
REMARK                         _______ _______ _______ _____ _____    ______ ____
ROOT
ATOM      1  C   UNL     1       1.515  -2.376   2.456  0.00  0.00    +0.057 C 
ATOM      2  C   UNL     1       0.818  -1.920   3.741  0.00  0.00    +0.015 C 
ATOM      3  C   UNL     1      -0.605  -2.485   3.766  0.00  0.00    -0.018 C 
ATOM      4  C   UNL     1      -0.545  -4.010   3.647  0.00  0.00    -0.078 C 
ATOM      5  N   UNL     1       0.108  -4.381   2.386  0.00  0.00    +0.386 N 
ATOM      6  C   UNL     1       1.496  -3.904   2.386  0.00  0.00    -0.060 C 
ATOM      7  H   UNL     1      -0.390  -3.963   1.615  0.00  0.00    -0.081 HD
ENDROOT
BRANCH   1   8
ATOM      8  C   UNL     1       0.790  -1.808   1.262  0.00  0.00    +0.312 C 
ATOM      9  O   UNL     1       0.308  -2.550   0.440  0.00  0.00    -0.250 OA
BRANCH   8  10
ATOM     10  O   UNL     1       0.681  -0.479   1.113  0.00  0.00    -0.465 OA
BRANCH  10  12
ATOM     11  C   UNL     1      -0.042   1.519  -0.039  0.00  0.00    +0.048 C 
ATOM     12  C   UNL     1      -0.019  -0.011  -0.041  0.00  0.00    +0.229 C 
ENDBRANCH  10  12
ENDBRANCH   8  10
ENDBRANCH   1   8
BRANCH   5  13
ATOM     13  C   UNL     1       0.094  -5.842   2.241  0.00  0.00    +0.019 C 
BRANCH  13  14
ATOM     14  C   UNL     1      -1.329  -6.320   2.109  0.00  0.00    +0.201 C 
ATOM     15  O   UNL     1      -2.242  -5.521   2.134  0.00  0.00    -0.278 OA
ATOM     16  N   UNL     1      -1.588  -7.635   1.963  0.00  0.00    -0.285 N 
ATOM     17  H   UNL     1      -0.857  -8.266   1.878  0.00  0.00    +0.155 HD
BRANCH  16  18
ATOM     18  C   UNL     1      -2.913  -8.088   1.934  0.00  0.00    +0.069 A 
ATOM     19  C   UNL     1      -3.903  -7.308   1.353  0.00  0.00    +0.029 A 
ATOM     20  C   UNL     1      -5.209  -7.758   1.325  0.00  0.00    -0.049 A 
ATOM     21  C   UNL     1      -5.531  -8.985   1.876  0.00  0.00    +0.006 A 
ATOM     22  C   UNL     1      -4.549  -9.766   2.457  0.00  0.00    +0.040 A 
ATOM     23  C   UNL     1      -3.238  -9.324   2.482  0.00  0.00    +0.144 A 
ATOM     24  F   UNL     1      -2.277 -10.089   3.044  0.00  0.00    -0.204 F 
ATOM     25  C   UNL     1      -6.284  -6.911   0.695  0.00  0.00    +0.044 C 
ENDBRANCH  16  18
ENDBRANCH  13  14
ENDBRANCH   5  13
BRANCH   1  26
ATOM     26  C   UNL     1       2.963  -1.882   2.456  0.00  0.00    +0.051 C 
BRANCH  26  27
ATOM     27  C   UNL     1       2.981  -0.377   2.527  0.00  0.00    -0.046 A 
ATOM     28  C   UNL     1       2.964   0.371   1.365  0.00  0.00    +0.004 A 
ATOM     29  C   UNL     1       2.980   1.751   1.430  0.00  0.00    +0.012 A 
ATOM     30  C   UNL     1       3.012   2.385   2.658  0.00  0.00    +0.055 A 
ATOM     31  C   UNL     1       3.028   1.638   3.821  0.00  0.00    +0.012 A 
ATOM     32  C   UNL     1       3.007   0.257   3.756  0.00  0.00    +0.004 A 
BRANCH  30  33
ATOM     33  C   UNL     1       3.030   3.890   2.729  0.00  0.00    +0.417 C 
ATOM     34  F   UNL     1       1.718   4.371   2.778  0.00  0.00    -0.166 F 
ATOM     35  F   UNL     1       3.718   4.294   3.879  0.00  0.00    -0.166 F 
ATOM     36  F   UNL     1       3.673   4.403   1.597  0.00  0.00    -0.166 F 
ENDBRANCH  30  33
ENDBRANCH  26  27
ENDBRANCH   1  26
TORSDOF 9
