REMARK  Name = ZINC19830832
REMARK  10 active torsions:
REMARK  status: ('A' for Active; 'I' for Inactive)
REMARK    1  A    between atoms: C_1  and  C_2
REMARK    2  A    between atoms: C_3  and  C_33
REMARK    3  A    between atoms: C_4  and  C_23
REMARK    4  A    between atoms: C_10  and  C_15
REMARK    5  A    between atoms: C_18  and  O_21
REMARK    6  A    between atoms: O_21  and  C_22
REMARK    7  A    between atoms: C_33  and  O_35
REMARK    8  A    between atoms: O_35  and  C_36
REMARK    9  A    between atoms: C_36  and  C_37
REMARK   10  A    between atoms: C_36  and  C_38
REMARK                            x       y       z     vdW  Elec       q    Type
REMARK                         _______ _______ _______ _____ _____    ______ ____
ROOT
ATOM      1  C   UNL     1      -0.020   1.054   0.016  0.00  0.00    +0.061 C 
ATOM      2  C   UNL     1      -0.722   1.557   1.252  0.00  0.00    +0.016 C 
ATOM      3  C   UNL     1      -0.034   1.701   2.398  0.00  0.00    +0.065 C 
ATOM      4  C   UNL     1      -0.701   2.192   3.649  0.00  0.00    +0.094 C 
ATOM      5  C   UNL     1      -2.010   2.870   3.334  0.00  0.00    +0.024 C 
ATOM      6  C   UNL     1      -2.620   2.674   2.146  0.00  0.00    +0.016 C 
ATOM      7  N   UNL     1      -2.052   1.868   1.198  0.00  0.00    -0.321 N 
ATOM      8  C   UNL     1      -3.936   3.339   1.828  0.00  0.00    +0.059 C 
ATOM      9  C   UNL     1      -4.020   4.684   2.554  0.00  0.00    +0.032 C 
ATOM     10  C   UNL     1      -3.871   4.434   4.059  0.00  0.00    +0.088 C 
ATOM     11  C   UNL     1      -2.574   3.712   4.308  0.00  0.00    +0.162 C 
ATOM     12  O   UNL     1      -2.004   3.860   5.371  0.00  0.00    -0.292 OA
ATOM     13  H   UNL     1      -2.677   1.469   0.386  0.00  0.00    +0.152 HD
ENDROOT
BRANCH   4  14
ATOM     14  C   UNL     1      -0.958   1.022   4.564  0.00  0.00    -0.013 A 
ATOM     15  C   UNL     1      -1.758  -0.023   4.140  0.00  0.00    +0.055 A 
ATOM     16  C   UNL     1      -1.996  -1.099   4.979  0.00  0.00    +0.167 A 
ATOM     17  C   UNL     1      -1.426  -1.126   6.250  0.00  0.00    +0.168 A 
ATOM     18  C   UNL     1      -0.626  -0.076   6.669  0.00  0.00    +0.069 A 
ATOM     19  C   UNL     1      -0.388   0.993   5.824  0.00  0.00    +0.049 A 
ATOM     20 CL   UNL     1       0.622   2.304   6.349  0.00  0.00    -0.083 Cl
ATOM     21  O   UNL     1      -1.807  -2.279   6.874  0.00  0.00    -0.453 OA
ATOM     22  C   UNL     1      -2.278  -3.146   5.825  0.00  0.00    +0.466 C 
ATOM     23  O   UNL     1      -2.732  -2.236   4.807  0.00  0.00    -0.453 OA
ENDBRANCH   4  14
BRANCH   9  24
ATOM     24  C   UNL     1      -5.356   5.326   2.278  0.00  0.00    -0.043 A 
ATOM     25  C   UNL     1      -6.522   4.666   2.619  0.00  0.00    +0.007 A 
ATOM     26  C   UNL     1      -7.747   5.255   2.372  0.00  0.00    +0.046 A 
ATOM     27  C   UNL     1      -7.807   6.504   1.771  0.00  0.00    +0.120 A 
ATOM     28  C   UNL     1      -6.635   7.161   1.425  0.00  0.00    +0.046 A 
ATOM     29  C   UNL     1      -5.412   6.571   1.680  0.00  0.00    +0.007 A 
BRANCH  27  30
ATOM     30  O   UNL     1      -9.011   7.082   1.521  0.00  0.00    -0.495 OA
ATOM     31  C   UNL     1     -10.175   6.348   1.904  0.00  0.00    +0.277 C 
ENDBRANCH  27  30
ENDBRANCH   9  24
BRANCH   3  32
ATOM     32  C   UNL     1       1.344   1.385   2.424  0.00  0.00    +0.338 C 
ATOM     33  O   UNL     1       1.920   1.087   1.395  0.00  0.00    -0.245 OA
BRANCH  32  34
ATOM     34  O   UNL     1       2.021   1.413   3.592  0.00  0.00    -0.459 OA
BRANCH  34  35
ATOM     35  C   UNL     1       3.410   1.083   3.545  0.00  0.00    +0.171 C 
ATOM     36  C   UNL     1       4.229   2.353   3.308  0.00  0.00    +0.052 C 
ATOM     37  C   UNL     1       3.828   0.447   4.872  0.00  0.00    +0.052 C 
ENDBRANCH  34  35
ENDBRANCH  32  34
ENDBRANCH   3  32
TORSDOF 6
