REMARK  Name = ZINC09464691
REMARK  11 active torsions:
REMARK  status: ('A' for Active; 'I' for Inactive)
REMARK    1  A    between atoms: C_1  and  N_2
REMARK    2  A    between atoms: N_2  and  C_3
REMARK    3  A    between atoms: N_2  and  C_4
REMARK    4  A    between atoms: C_4  and  C_6
REMARK    5  A    between atoms: C_4  and  C_13
REMARK    6  A    between atoms: C_6  and  C_7
REMARK    7  A    between atoms: C_13  and  N_14
REMARK    8  A    between atoms: C_15  and  C_17
REMARK    9  A    between atoms: N_20  and  S_23
REMARK   10  A    between atoms: S_23  and  C_26
REMARK   11  A    between atoms: C_31  and  C_32
REMARK                            x       y       z     vdW  Elec       q    Type
REMARK                         _______ _______ _______ _____ _____    ______ ____
ROOT
ATOM      1  C   UNL     1       2.416  -3.333  -2.562  0.00  0.00    +0.077 C 
ATOM      2  C   UNL     1       2.091  -2.630  -3.881  0.00  0.00    +0.030 C 
ATOM      3  C   UNL     1       2.977  -3.203  -4.992  0.00  0.00    +0.110 C 
ATOM      4  N   UNL     1       2.807  -4.662  -5.028  0.00  0.00    -0.177 NA
ATOM      5  C   UNL     1       3.006  -5.427  -3.790  0.00  0.00    +0.110 C 
ATOM      6  C   UNL     1       2.120  -4.829  -2.692  0.00  0.00    +0.030 C 
ENDROOT
BRANCH   1   8
ATOM      7  N   UNL     1       1.663  -1.438  -1.163  0.00  0.00    -0.317 N 
ATOM      8  C   UNL     1       1.570  -2.749  -1.460  0.00  0.00    +0.216 C 
ATOM      9  O   UNL     1       0.806  -3.459  -0.840  0.00  0.00    -0.276 OA
ATOM     10  H   UNL     1       2.273  -0.870  -1.658  0.00  0.00    +0.149 HD
BRANCH   7  11
ATOM     11  C   UNL     1       0.841  -0.870  -0.091  0.00  0.00    +0.089 C 
BRANCH  11  12
ATOM     12  C   UNL     1       1.007   0.651  -0.073  0.00  0.00    -0.048 C 
BRANCH  12  14
ATOM     13  C   UNL     1       1.054   0.741  -2.469  0.00  0.00    -0.096 C 
ATOM     14  N   UNL     1       0.370   1.228  -1.264  0.00  0.00    +0.379 N 
ATOM     15  C   UNL     1      -1.043   0.828  -1.306  0.00  0.00    -0.096 C 
ATOM     16  H   UNL     1       0.433   2.235  -1.225  0.00  0.00    -0.082 HD
ENDBRANCH  12  14
BRANCH  12  17
ATOM     17  C   UNL     1       0.348   1.221   1.185  0.00  0.00    +0.021 C 
BRANCH  17  18
ATOM     18  C   UNL     1       0.556   2.713   1.229  0.00  0.00    -0.049 A 
ATOM     19  C   UNL     1       1.732   3.232   1.737  0.00  0.00    +0.003 A 
ATOM     20  C   UNL     1       1.922   4.601   1.777  0.00  0.00    +0.000 A 
ATOM     21  C   UNL     1       0.937   5.450   1.309  0.00  0.00    +0.000 A 
ATOM     22  C   UNL     1      -0.239   4.931   0.801  0.00  0.00    +0.000 A 
ATOM     23  C   UNL     1      -0.427   3.562   0.756  0.00  0.00    +0.003 A 
ENDBRANCH  17  18
ENDBRANCH  12  17
ENDBRANCH  11  12
ENDBRANCH   7  11
ENDBRANCH   1   8
BRANCH   4  24
ATOM     24  S   UNL     1       2.397  -5.429  -6.437  0.00  0.00    +0.061 S 
ATOM     25  O   UNL     1       1.671  -6.594  -6.069  0.00  0.00    -0.153 OA
ATOM     26  O   UNL     1       1.857  -4.436  -7.298  0.00  0.00    -0.153 OA
BRANCH  24  27
ATOM     27  C   UNL     1       3.894  -5.983  -7.183  0.00  0.00    +0.117 A 
ATOM     28  C   UNL     1       5.109  -5.502  -6.734  0.00  0.00    +0.029 A 
ATOM     29  C   UNL     1       6.284  -5.937  -7.319  0.00  0.00    +0.002 A 
ATOM     30  C   UNL     1       6.243  -6.853  -8.353  0.00  0.00    +0.001 A 
ATOM     31  C   UNL     1       5.027  -7.335  -8.801  0.00  0.00    +0.014 A 
ATOM     32  C   UNL     1       3.853  -6.904  -8.213  0.00  0.00    +0.081 A 
BRANCH  32  33
ATOM     33  C   UNL     1       2.528  -7.433  -8.699  0.00  0.00    +0.419 C 
ATOM     34  F   UNL     1       2.728  -8.209  -9.846  0.00  0.00    -0.166 F 
ATOM     35  F   UNL     1       1.946  -8.220  -7.699  0.00  0.00    -0.166 F 
ATOM     36  F   UNL     1       1.681  -6.362  -9.002  0.00  0.00    -0.166 F 
ENDBRANCH  32  33
ENDBRANCH  24  27
ENDBRANCH   4  24
TORSDOF 9
