REMARK  Name = ZINC01569087
REMARK  13 active torsions:
REMARK  status: ('A' for Active; 'I' for Inactive)
REMARK    1  A    between atoms: C_1  and  C_2
REMARK    2  A    between atoms: C_2  and  C_3
REMARK    3  A    between atoms: C_3  and  C_5
REMARK    4  A    between atoms: C_3  and  C_6
REMARK    5  A    between atoms: C_8  and  C_32
REMARK    6  A    between atoms: C_10  and  N_23
REMARK    7  A    between atoms: C_11  and  O_12
REMARK    8  A    between atoms: O_12  and  S_13
REMARK    9  A    between atoms: S_13  and  C_16
REMARK   10  A    between atoms: C_20  and  N_22
REMARK   11  A    between atoms: C_32  and  C_33
REMARK   12  A    between atoms: C_32  and  C_34
REMARK   13  A    between atoms: C_32  and  C_35
REMARK                            x       y       z     vdW  Elec       q    Type
REMARK                         _______ _______ _______ _____ _____    ______ ____
ROOT
ATOM      1  C   UNL     1      -2.222   6.936  -1.995  0.00  0.00    +0.002 A 
ATOM      2  C   UNL     1      -3.446   6.779  -2.618  0.00  0.00    +0.012 A 
ATOM      3  C   UNL     1      -3.743   5.602  -3.280  0.00  0.00    -0.039 A 
ATOM      4  C   UNL     1      -2.819   4.576  -3.323  0.00  0.00    +0.037 A 
ATOM      5  C   UNL     1      -1.586   4.727  -2.705  0.00  0.00    +0.131 A 
ATOM      6  C   UNL     1      -1.289   5.912  -2.033  0.00  0.00    +0.187 A 
ENDROOT
BRANCH   5   7
ATOM      7  N   UNL     1      -0.645   3.691  -2.753  0.00  0.00    -0.145 N 
ATOM      8  N   UNL     1       0.518   3.759  -2.204  0.00  0.00    -0.147 NA
ATOM      9  C   UNL     1       1.162   2.623  -2.424  0.00  0.00    +0.113 A 
ATOM     10  C   UNL     1       2.420   2.086  -2.102  0.00  0.00    +0.032 A 
ATOM     11  C   UNL     1       2.742   0.836  -2.525  0.00  0.00    +0.002 A 
ATOM     12  C   UNL     1       1.855   0.064  -3.276  0.00  0.00    +0.002 A 
ATOM     13  C   UNL     1       0.623   0.524  -3.621  0.00  0.00    +0.032 A 
ATOM     14  C   UNL     1       0.226   1.810  -3.216  0.00  0.00    +0.113 A 
ATOM     15  N   UNL     1      -0.848   2.571  -3.353  0.00  0.00    -0.147 NA
ENDBRANCH   5   7
BRANCH   3  16
ATOM     16  C   UNL     1      -5.080   5.439  -3.957  0.00  0.00    -0.013 C 
ATOM     17  C   UNL     1      -5.245   6.519  -5.028  0.00  0.00    +0.015 C 
ATOM     18  C   UNL     1      -5.155   4.057  -4.611  0.00  0.00    +0.015 C 
ATOM     19  C   UNL     1      -6.197   5.573  -2.920  0.00  0.00    +0.015 C 
ENDBRANCH   3  16
BRANCH   1  20
ATOM     20  C   UNL     1      -1.902   8.220  -1.275  0.00  0.00    +0.019 C 
ATOM     21  C   UNL     1      -2.918   8.443  -0.153  0.00  0.00    +0.012 C 
BRANCH  20  23
ATOM     22  C   UNL     1      -1.521  10.673  -1.561  0.00  0.00    +0.004 C 
ATOM     23  C   UNL     1      -1.967   9.388  -2.261  0.00  0.00    +0.004 C 
ENDBRANCH  20  23
ENDBRANCH   1  20
BRANCH   6  24
ATOM     24  O   UNL     1      -0.085   6.064  -1.421  0.00  0.00    -0.340 OA
BRANCH  24  25
ATOM     25  S   UNL     1      -0.066   5.607   0.031  0.00  0.00    +0.151 S 
ATOM     26  O   UNL     1      -1.310   5.998   0.596  0.00  0.00    -0.131 OA
ATOM     27  O   UNL     1       1.181   6.022   0.571  0.00  0.00    -0.131 OA
BRANCH  25  28
ATOM     28  C   UNL     1      -0.049   3.845   0.022  0.00  0.00    +0.130 A 
ATOM     29  C   UNL     1       1.156   3.166   0.007  0.00  0.00    +0.030 A 
ATOM     30  C   UNL     1       1.174   1.783   0.000  0.00  0.00    +0.004 A 
ATOM     31  C   UNL     1      -0.013   1.076   0.008  0.00  0.00    +0.023 A 
ATOM     32  C   UNL     1      -1.224   1.755   0.017  0.00  0.00    +0.026 A 
ATOM     33  C   UNL     1      -1.238   3.144   0.030  0.00  0.00    +0.053 A 
BRANCH  32  34
ATOM     34  N   UNL     1      -2.426   1.042   0.020  0.00  0.00    -0.358 N 
ATOM     35  H   UNL     1      -2.414   0.072   0.015  0.00  0.00    +0.142 HD
ATOM     36  H   UNL     1      -3.271   1.517   0.026  0.00  0.00    +0.142 HD
ENDBRANCH  32  34
ENDBRANCH  25  28
ENDBRANCH  24  25
ENDBRANCH   6  24
TORSDOF 8
