REMARK  Name = ZINC12784109
REMARK  9 active torsions:
REMARK  status: ('A' for Active; 'I' for Inactive)
REMARK    1  A    between atoms: C_1  and  C_2
REMARK    2  A    between atoms: C_2  and  C_4
REMARK    3  A    between atoms: C_2  and  N_14
REMARK    4  A    between atoms: N_10  and  C_11
REMARK    5  A    between atoms: N_10  and  C_12
REMARK    6  A    between atoms: N_14  and  C_15
REMARK    7  A    between atoms: N_14  and  C_16
REMARK    8  A    between atoms: C_16  and  C_17
REMARK    9  A    between atoms: C_20  and  C_22
REMARK                            x       y       z     vdW  Elec       q    Type
REMARK                         _______ _______ _______ _____ _____    ______ ____
ROOT
ATOM      1  N   UNL     1       0.713  -0.491   1.192  0.00  0.00    -0.289 NA
ATOM      2  C   UNL     1       0.834  -1.954   1.171  0.00  0.00    +0.106 C 
ENDROOT
BRANCH   1   4
ATOM      3  C   UNL     1      -0.019   1.526   0.010  0.00  0.00    +0.032 C 
ATOM      4  C   UNL     1       0.002  -0.004   0.002  0.00  0.00    +0.122 C 
BRANCH   4   5
ATOM      5  C   UNL     1       0.707  -0.490  -1.238  0.00  0.00    +0.153 A 
ATOM      6  N   UNL     1       2.025  -0.417  -1.318  0.00  0.00    -0.198 NA
ATOM      7  C   UNL     1       2.651  -0.846  -2.411  0.00  0.00    +0.217 A 
ATOM      8  N   UNL     1       1.951  -1.347  -3.423  0.00  0.00    -0.181 NA
ATOM      9  C   UNL     1       0.627  -1.419  -3.338  0.00  0.00    +0.222 A 
ATOM     10  N   UNL     1       0.008  -0.993  -2.240  0.00  0.00    -0.198 NA
ATOM     11  N   UNL     1      -0.105  -1.939  -4.386  0.00  0.00    -0.306 N 
ATOM     12  C   UNL     1       0.578  -2.413  -5.593  0.00  0.00    +0.132 C 
ATOM     13  C   UNL     1      -1.565  -2.018  -4.292  0.00  0.00    +0.132 C 
ATOM     14  N   UNL     1       4.027  -0.768  -2.495  0.00  0.00    -0.327 N 
ATOM     15  H   UNL     1       4.537  -0.402  -1.756  0.00  0.00    +0.145 HD
ATOM     16  H   UNL     1       4.482  -1.081  -3.292  0.00  0.00    +0.145 HD
ENDBRANCH   4   5
ENDBRANCH   1   4
BRANCH   1  17
ATOM     17  C   UNL     1       0.052  -0.035   2.423  0.00  0.00    +0.159 C 
BRANCH  17  18
ATOM     18  C   UNL     1       0.932  -0.339   3.607  0.00  0.00    +0.120 A 
ATOM     19  C   UNL     1       1.866   0.483   4.123  0.00  0.00    +0.046 A 
ATOM     20  C   UNL     1       2.451  -0.190   5.215  0.00  0.00    +0.050 A 
ATOM     21  C   UNL     1       1.835  -1.398   5.306  0.00  0.00    +0.135 A 
ATOM     22  O   UNL     1       0.911  -1.473   4.328  0.00  0.00    -0.458 OA
BRANCH  21  23
ATOM     23  C   UNL     1       2.123  -2.446   6.308  0.00  0.00    +0.017 A 
ATOM     24  C   UNL     1       3.102  -2.235   7.280  0.00  0.00    +0.012 A 
ATOM     25  C   UNL     1       3.367  -3.216   8.213  0.00  0.00    +0.016 A 
ATOM     26  C   UNL     1       2.663  -4.409   8.185  0.00  0.00    +0.018 A 
ATOM     27  C   UNL     1       1.691  -4.623   7.224  0.00  0.00    +0.016 A 
ATOM     28  C   UNL     1       1.413  -3.647   6.290  0.00  0.00    +0.012 A 
ATOM     29 BR   UNL     1       3.033  -5.749   9.467  0.00  0.00    -0.050 Br
ENDBRANCH  21  23
ENDBRANCH  17  18
ENDBRANCH   1  17
TORSDOF 5
