REMARK  Name = ZINC63375840
REMARK  8 active torsions:
REMARK  status: ('A' for Active; 'I' for Inactive)
REMARK    1  A    between atoms: C_1  and  C_2
REMARK    2  A    between atoms: C_2  and  C_3
REMARK    3  A    between atoms: C_2  and  C_4
REMARK    4  A    between atoms: C_4  and  C_5
REMARK    5  A    between atoms: C_5  and  N_6
REMARK    6  A    between atoms: C_7  and  C_9
REMARK    7  A    between atoms: C_14  and  N_15
REMARK    8  A    between atoms: C_31  and  C_36
REMARK                            x       y       z     vdW  Elec       q    Type
REMARK                         _______ _______ _______ _____ _____    ______ ____
ROOT
ATOM      1  N   UNL     1      -1.417  -0.193   7.286  0.00  0.00    -0.192 N 
ATOM      2  C   UNL     1      -2.715  -0.552   7.218  0.00  0.00    +0.248 C 
ATOM      3  O   UNL     1      -3.158  -1.652   6.966  0.00  0.00    -0.273 OA
ATOM      4  C   UNL     1      -3.503   0.703   7.522  0.00  0.00    +0.169 C 
ATOM      5  C   UNL     1      -4.433   1.039   6.342  0.00  0.00    +0.065 C 
ATOM      6  C   UNL     1      -4.710   2.521   6.428  0.00  0.00    -0.034 C 
ATOM      7  C   UNL     1      -5.861   3.185   6.467  0.00  0.00    -0.001 A 
ATOM      8  C   UNL     1      -7.256   2.733   6.341  0.00  0.00    +0.010 A 
ATOM      9  C   UNL     1      -8.210   3.696   6.449  0.00  0.00    +0.001 A 
ATOM     10  C   UNL     1      -7.918   5.047   6.667  0.00  0.00    +0.002 A 
ATOM     11  C   UNL     1      -6.664   5.551   6.785  0.00  0.00    +0.026 A 
ATOM     12  C   UNL     1      -5.577   4.636   6.682  0.00  0.00    +0.043 A 
ATOM     13  N   UNL     1      -4.295   4.844   6.738  0.00  0.00    -0.375 N 
ATOM     14  C   UNL     1      -3.610   3.571   6.511  0.00  0.00    +0.131 C 
ATOM     15  C   UNL     1      -2.718   3.190   7.702  0.00  0.00    +0.135 C 
ATOM     16  N   UNL     1      -2.459   1.742   7.621  0.00  0.00    -0.264 N 
ATOM     17  C   UNL     1      -1.279   1.114   7.551  0.00  0.00    +0.317 C 
ATOM     18  O   UNL     1      -0.207   1.665   7.707  0.00  0.00    -0.252 OA
ATOM     19  H   UNL     1      -3.865   5.699   6.902  0.00  0.00    +0.160 HD
ENDROOT
BRANCH  15  20
ATOM     20  C   UNL     1      -3.427   3.497   8.996  0.00  0.00    -0.025 A 
ATOM     21  C   UNL     1      -4.556   2.783   9.351  0.00  0.00    +0.008 A 
ATOM     22  C   UNL     1      -5.208   3.063  10.537  0.00  0.00    +0.038 A 
ATOM     23  C   UNL     1      -4.729   4.061  11.370  0.00  0.00    +0.123 A 
ATOM     24  C   UNL     1      -3.598   4.776  11.013  0.00  0.00    +0.038 A 
ATOM     25  C   UNL     1      -2.946   4.490   9.829  0.00  0.00    +0.008 A 
ATOM     26  F   UNL     1      -5.365   4.336  12.529  0.00  0.00    -0.205 F 
ENDBRANCH  15  20
BRANCH   1  32
ATOM     27  C   UNL     1       0.191  -1.278   5.830  0.00  0.00    +0.059 A 
ATOM     28  C   UNL     1       1.264  -2.158   5.666  0.00  0.00    +0.015 A 
ATOM     29  C   UNL     1       1.780  -2.823   6.757  0.00  0.00    +0.001 A 
ATOM     30  C   UNL     1       1.241  -2.623   8.017  0.00  0.00    +0.002 A 
ATOM     31  C   UNL     1       0.181  -1.756   8.194  0.00  0.00    +0.025 A 
ATOM     32  C   UNL     1      -0.348  -1.074   7.108  0.00  0.00    +0.058 A 
BRANCH  27  34
ATOM     33  N   UNL     1       0.156  -0.761   3.440  0.00  0.00    -0.311 N 
ATOM     34  C   UNL     1      -0.366  -0.562   4.666  0.00  0.00    +0.246 C 
ATOM     35  O   UNL     1      -1.296   0.207   4.814  0.00  0.00    -0.270 OA
ATOM     36  H   UNL     1       0.897  -1.374   3.322  0.00  0.00    +0.149 HD
BRANCH  33  37
ATOM     37  C   UNL     1      -0.398  -0.050   2.284  0.00  0.00    +0.105 C 
BRANCH  37  38
ATOM     38  C   UNL     1       0.369  -0.452   1.023  0.00  0.00    +0.022 C 
BRANCH  38  40
ATOM     39  C   UNL     1       0.035   1.792  -0.024  0.00  0.00    +0.007 C 
ATOM     40  C   UNL     1      -0.209   0.290  -0.184  0.00  0.00    -0.016 C 
ATOM     41  C   UNL     1       0.473  -0.204  -1.461  0.00  0.00    +0.007 C 
ENDBRANCH  38  40
ENDBRANCH  37  38
ENDBRANCH  33  37
ENDBRANCH  27  34
ENDBRANCH   1  32
TORSDOF 6
