REMARK  Name = ZINC34680510
REMARK  8 active torsions:
REMARK  status: ('A' for Active; 'I' for Inactive)
REMARK    1  A    between atoms: C_1  and  C_2
REMARK    2  A    between atoms: C_6  and  N_8
REMARK    3  A    between atoms: N_8  and  C_9
REMARK    4  A    between atoms: N_8  and  S_23
REMARK    5  A    between atoms: N_12  and  C_15
REMARK    6  A    between atoms: C_15  and  C_16
REMARK    7  A    between atoms: C_21  and  O_22
REMARK    8  A    between atoms: S_23  and  C_26
REMARK                            x       y       z     vdW  Elec       q    Type
REMARK                         _______ _______ _______ _____ _____    ______ ____
ROOT
ATOM      1  N   UNL     1       0.051  -2.796   2.390  0.00  0.00    -0.200 N 
ENDROOT
BRANCH   1   7
ATOM      2  C   UNL     1       2.404   0.855   0.092  0.00  0.00    +0.044 C 
ATOM      3  C   UNL     1       1.373  -0.243   0.101  0.00  0.00    -0.049 A 
ATOM      4  C   UNL     1       0.610  -0.484  -1.027  0.00  0.00    +0.003 A 
ATOM      5  C   UNL     1      -0.338  -1.491  -1.023  0.00  0.00    +0.002 A 
ATOM      6  C   UNL     1      -0.526  -2.260   0.109  0.00  0.00    +0.025 A 
ATOM      7  C   UNL     1       0.239  -2.021   1.244  0.00  0.00    +0.052 A 
ATOM      8  C   UNL     1       1.194  -1.012   1.234  0.00  0.00    +0.028 A 
ENDBRANCH   1   7
BRANCH   1   9
ATOM      9  C   UNL     1       0.498  -4.192   2.412  0.00  0.00    +0.095 C 
ATOM     10  C   UNL     1       1.980  -4.261   2.033  0.00  0.00    +0.006 C 
ATOM     11  C   UNL     1       2.419  -5.726   1.980  0.00  0.00    -0.077 C 
ATOM     12  N   UNL     1       1.623  -6.443   0.977  0.00  0.00    +0.383 N 
ATOM     13  C   UNL     1       0.209  -6.442   1.371  0.00  0.00    -0.077 C 
ATOM     14  C   UNL     1      -0.316  -5.005   1.401  0.00  0.00    +0.006 C 
ATOM     15  H   UNL     1       1.722  -5.988   0.082  0.00  0.00    -0.081 HD
BRANCH  12  16
ATOM     16  C   UNL     1       2.100  -7.829   0.875  0.00  0.00    -0.039 C 
BRANCH  16  17
ATOM     17  C   UNL     1       1.367  -8.531  -0.239  0.00  0.00    -0.022 A 
ATOM     18  C   UNL     1       0.304  -9.365   0.051  0.00  0.00    +0.005 A 
ATOM     19  C   UNL     1      -0.368 -10.011  -0.970  0.00  0.00    +0.000 A 
ATOM     20  C   UNL     1       0.020  -9.823  -2.284  0.00  0.00    +0.004 A 
ATOM     21  C   UNL     1       1.081  -8.990  -2.579  0.00  0.00    +0.045 A 
ATOM     22  C   UNL     1       1.755  -8.337  -1.556  0.00  0.00    +0.118 A 
BRANCH  22  23
ATOM     23  O   UNL     1       2.796  -7.512  -1.845  0.00  0.00    -0.507 OA
ATOM     24  H   UNL     1       3.655  -7.955  -1.865  0.00  0.00    +0.292 HD
ENDBRANCH  22  23
ENDBRANCH  16  17
ENDBRANCH  12  16
ENDBRANCH   1   9
BRANCH   1  25
ATOM     25  S   UNL     1      -0.675  -2.139   3.725  0.00  0.00    +0.075 S 
ATOM     26  O   UNL     1      -0.143  -2.819   4.854  0.00  0.00    -0.150 OA
ATOM     27  O   UNL     1      -0.595  -0.728   3.578  0.00  0.00    -0.150 OA
BRANCH  25  28
ATOM     28  C   UNL     1      -2.385  -2.557   3.646  0.00  0.00    +0.109 A 
ATOM     29  C   UNL     1      -3.272  -1.718   2.997  0.00  0.00    +0.029 A 
ATOM     30  C   UNL     1      -4.614  -2.046   2.935  0.00  0.00    +0.002 A 
ATOM     31  C   UNL     1      -5.069  -3.212   3.522  0.00  0.00    +0.000 A 
ATOM     32  C   UNL     1      -4.181  -4.051   4.170  0.00  0.00    +0.002 A 
ATOM     33  C   UNL     1      -2.839  -3.725   4.228  0.00  0.00    +0.029 A 
ENDBRANCH  25  28
ENDBRANCH   1  25
TORSDOF 7
