REMARK  Name = ZINC33937069
REMARK  12 active torsions:
REMARK  status: ('A' for Active; 'I' for Inactive)
REMARK    1  A    between atoms: C_1  and  C_2
REMARK    2  A    between atoms: C_2  and  C_3
REMARK    3  A    between atoms: C_3  and  C_5
REMARK    4  A    between atoms: C_3  and  N_17
REMARK    5  A    between atoms: N_9  and  C_10
REMARK    6  A    between atoms: C_10  and  C_11
REMARK    7  A    between atoms: N_17  and  C_18
REMARK    8  A    between atoms: N_17  and  C_28
REMARK    9  A    between atoms: C_18  and  C_19
REMARK   10  A    between atoms: C_28  and  C_29
REMARK   11  A    between atoms: C_32  and  C_42
REMARK   12  A    between atoms: C_35  and  C_41
REMARK                            x       y       z     vdW  Elec       q    Type
REMARK                         _______ _______ _______ _____ _____    ______ ____
ROOT
ATOM      1  N   UNL     1      -2.001   0.263   1.806  0.00  0.00    +0.392 N 
ATOM      2  H   UNL     1      -1.834  -0.062   2.746  0.00  0.00    -0.080 HD
ENDROOT
BRANCH   1   3
ATOM      3  C   UNL     1      -1.152  -0.487   0.870  0.00  0.00    +0.003 C 
BRANCH   3   4
ATOM      4  C   UNL     1      -1.625  -0.247  -0.540  0.00  0.00    +0.138 A 
ATOM      5  N   UNL     1      -2.800  -0.551  -1.034  0.00  0.00    -0.115 NA
ATOM      6  N   UNL     1      -2.818  -0.188  -2.271  0.00  0.00    -0.023 NA
ATOM      7  N   UNL     1      -1.685   0.340  -2.578  0.00  0.00    -0.044 NA
ATOM      8  N   UNL     1      -0.924   0.327  -1.536  0.00  0.00    -0.228 N 
BRANCH   8   9
ATOM      9  C   UNL     1       0.447   0.838  -1.453  0.00  0.00    +0.178 C 
BRANCH   9  10
ATOM     10  C   UNL     1       1.429  -0.278  -1.815  0.00  0.00    +0.140 C 
ATOM     11  C   UNL     1       2.881   0.265  -1.822  0.00  0.00    +0.035 C 
ATOM     12  C   UNL     1       3.684  -1.037  -1.554  0.00  0.00    +0.031 C 
ATOM     13  C   UNL     1       2.738  -1.819  -0.617  0.00  0.00    +0.160 C 
ATOM     14  O   UNL     1       1.414  -1.301  -0.806  0.00  0.00    -0.375 OA
ENDBRANCH   9  10
ENDBRANCH   8   9
ENDBRANCH   3   4
BRANCH   3  16
ATOM     15  C   UNL     1      -0.592  -2.249   2.551  0.00  0.00    +0.002 C 
ATOM     16  C   UNL     1      -1.238  -1.981   1.190  0.00  0.00    -0.011 C 
ENDBRANCH   3  16
ENDBRANCH   1   3
BRANCH   1  17
ATOM     17  C   UNL     1      -3.413   0.056   1.459  0.00  0.00    -0.041 C 
BRANCH  17  18
ATOM     18  C   UNL     1      -3.798  -1.372   1.751  0.00  0.00    -0.060 A 
ATOM     19  C   UNL     1      -4.008  -2.256   0.709  0.00  0.00    +0.005 A 
ATOM     20  C   UNL     1      -4.360  -3.567   0.972  0.00  0.00    +0.050 A 
ATOM     21  C   UNL     1      -4.504  -3.998   2.281  0.00  0.00    +0.166 A 
ATOM     22  C   UNL     1      -4.292  -3.107   3.330  0.00  0.00    +0.166 A 
ATOM     23  C   UNL     1      -3.934  -1.796   3.059  0.00  0.00    +0.051 A 
ATOM     24  O   UNL     1      -4.493  -3.765   4.509  0.00  0.00    -0.453 OA
ATOM     25  C   UNL     1      -5.226  -4.955   4.164  0.00  0.00    +0.466 C 
ATOM     26  O   UNL     1      -4.837  -5.214   2.802  0.00  0.00    -0.453 OA
ENDBRANCH  17  18
ENDBRANCH   1  17
BRANCH   1  27
ATOM     27  C   UNL     1      -1.680   1.694   1.718  0.00  0.00    -0.036 C 
BRANCH  27  28
ATOM     28  C   UNL     1      -2.471   2.450   2.755  0.00  0.00    +0.001 A 
ATOM     29  C   UNL     1      -1.910   2.734   3.957  0.00  0.00    +0.017 A 
ATOM     30  C   UNL     1      -2.704   3.470   4.942  0.00  0.00    +0.002 A 
ATOM     31  C   UNL     1      -2.181   3.793   6.198  0.00  0.00    -0.041 A 
ATOM     32  C   UNL     1      -2.947   4.481   7.095  0.00  0.00    +0.004 A 
ATOM     33  C   UNL     1      -4.242   4.864   6.771  0.00  0.00    +0.005 A 
ATOM     34  C   UNL     1      -4.779   4.557   5.539  0.00  0.00    -0.026 A 
ATOM     35  C   UNL     1      -4.016   3.857   4.609  0.00  0.00    +0.052 A 
ATOM     36  N   UNL     1      -4.528   3.537   3.369  0.00  0.00    -0.322 N 
ATOM     37  H   UNL     1      -5.432   3.804   3.142  0.00  0.00    +0.169 HD
ATOM     38  C   UNL     1      -3.789   2.865   2.469  0.00  0.00    +0.251 A 
ATOM     39  O   UNL     1      -4.271   2.604   1.381  0.00  0.00    -0.268 OA
ATOM     40  C   UNL     1      -6.186   4.977   5.201  0.00  0.00    +0.046 C 
ATOM     41  C   UNL     1      -0.777   3.382   6.561  0.00  0.00    +0.044 C 
ENDBRANCH  27  28
ENDBRANCH   1  27
TORSDOF 9
