REMARK  Name = ZINC11881221
REMARK  7 active torsions:
REMARK  status: ('A' for Active; 'I' for Inactive)
REMARK    1  A    between atoms: C_1  and  C_2
REMARK    2  A    between atoms: C_9  and  C_22
REMARK    3  A    between atoms: N_13  and  C_14
REMARK    4  A    between atoms: C_14  and  C_15
REMARK    5  A    between atoms: C_19  and  C_21
REMARK    6  A    between atoms: C_27  and  O_28
REMARK    7  A    between atoms: O_28  and  C_29
REMARK                            x       y       z     vdW  Elec       q    Type
REMARK                         _______ _______ _______ _____ _____    ______ ____
ROOT
ATOM      1  C   UNL     1      -2.171   4.234   1.206  0.00  0.00    +0.044 C 
ATOM      2  C   UNL     1      -0.938   3.417   0.918  0.00  0.00    -0.049 A 
ATOM      3  C   UNL     1      -1.037   2.047   0.757  0.00  0.00    +0.005 A 
ATOM      4  C   UNL     1       0.086   1.284   0.495  0.00  0.00    +0.024 A 
ATOM      5  C   UNL     1       1.327   1.902   0.382  0.00  0.00    +0.044 A 
ATOM      6  C   UNL     1       1.416   3.271   0.546  0.00  0.00    +0.030 A 
ATOM      7  C   UNL     1       0.296   4.038   0.810  0.00  0.00    +0.020 A 
ATOM      8  S   UNL     1       3.015   4.033   0.418  0.00  0.00    -0.115 S 
ATOM      9  C   UNL     1       3.425   3.747  -1.335  0.00  0.00    +0.086 C 
ATOM     10  C   UNL     1       3.889   2.314  -1.518  0.00  0.00    +0.038 C 
ATOM     11  C   UNL     1       2.833   1.248  -1.319  0.00  0.00    +0.107 C 
ATOM     12  N   UNL     1       2.456   1.112   0.095  0.00  0.00    -0.322 N 
ENDROOT
BRANCH   9  13
ATOM     13  C   UNL     1       4.526   4.688  -1.754  0.00  0.00    +0.008 A 
ATOM     14  C   UNL     1       4.545   5.201  -3.037  0.00  0.00    +0.008 A 
ATOM     15  C   UNL     1       5.552   6.068  -3.421  0.00  0.00    +0.001 A 
ATOM     16  C   UNL     1       6.546   6.416  -2.525  0.00  0.00    +0.004 A 
ATOM     17  C   UNL     1       6.534   5.901  -1.243  0.00  0.00    +0.046 A 
ATOM     18  C   UNL     1       5.522   5.035  -0.854  0.00  0.00    +0.124 A 
BRANCH  18  19
ATOM     19  O   UNL     1       5.508   4.527   0.406  0.00  0.00    -0.495 OA
ATOM     20  C   UNL     1       6.566   4.929   1.279  0.00  0.00    +0.277 C 
ENDBRANCH  18  19
ENDBRANCH   9  13
BRANCH  12  21
ATOM     21  C   UNL     1       2.216  -0.295   0.442  0.00  0.00    +0.179 C 
BRANCH  21  22
ATOM     22  C   UNL     1       3.418  -1.120   0.059  0.00  0.00    +0.125 A 
ATOM     23  N   UNL     1       4.442  -1.446   0.876  0.00  0.00    -0.347 N 
ATOM     24  H   UNL     1       4.540  -1.186   1.837  0.00  0.00    +0.167 HD
ATOM     25  C   UNL     1       5.321  -2.198   0.145  0.00  0.00    +0.107 A 
ATOM     26  C   UNL     1       4.804  -2.306  -1.094  0.00  0.00    +0.056 A 
ATOM     27  N   UNL     1       3.638  -1.642  -1.117  0.00  0.00    -0.236 NA
ATOM     28  C   UNL     1       5.423  -3.046  -2.251  0.00  0.00    +0.067 C 
ENDBRANCH  21  22
ENDBRANCH  12  21
TORSDOF 4
