REMARK  Name = ZINC44878094
REMARK  11 active torsions:
REMARK  status: ('A' for Active; 'I' for Inactive)
REMARK    1  A    between atoms: C_1  and  C_2
REMARK    2  A    between atoms: N_7  and  C_9
REMARK    3  A    between atoms: C_9  and  C_10
REMARK    4  A    between atoms: C_13  and  C_16
REMARK    5  A    between atoms: C_16  and  N_17
REMARK    6  A    between atoms: C_18  and  C_20
REMARK    7  A    between atoms: C_25  and  N_26
REMARK    8  A    between atoms: N_26  and  C_27
REMARK    9  A    between atoms: N_26  and  S_34
REMARK   10  A    between atoms: C_27  and  C_28
REMARK   11  A    between atoms: S_34  and  C_37
REMARK                            x       y       z     vdW  Elec       q    Type
REMARK                         _______ _______ _______ _____ _____    ______ ____
ROOT
ATOM      1  N   UNL     1       1.359  -8.702   0.903  0.00  0.00    -0.307 N 
ATOM      2  C   UNL     1       1.347 -10.021   0.628  0.00  0.00    +0.246 C 
ATOM      3  O   UNL     1       1.902 -10.803   1.375  0.00  0.00    -0.270 OA
ATOM      4  H   UNL     1       0.917  -8.078   0.306  0.00  0.00    +0.149 HD
ENDROOT
BRANCH   2   5
ATOM      5  C   UNL     1       0.660 -10.516  -0.579  0.00  0.00    +0.059 A 
ATOM      6  C   UNL     1       0.026  -9.621  -1.444  0.00  0.00    +0.015 A 
ATOM      7  C   UNL     1      -0.614 -10.090  -2.571  0.00  0.00    +0.001 A 
ATOM      8  C   UNL     1      -0.633 -11.447  -2.852  0.00  0.00    +0.002 A 
ATOM      9  C   UNL     1      -0.012 -12.344  -2.007  0.00  0.00    +0.025 A 
ATOM     10  C   UNL     1       0.645 -11.889  -0.870  0.00  0.00    +0.063 A 
BRANCH  10  11
ATOM     11  N   UNL     1       1.276 -12.790  -0.021  0.00  0.00    -0.203 N 
BRANCH  11  12
ATOM     12  S   UNL     1       0.478 -13.376   1.306  0.00  0.00    +0.043 S 
ATOM     13  O   UNL     1       1.499 -13.630   2.260  0.00  0.00    -0.155 OA
ATOM     14  O   UNL     1      -0.539 -12.420   1.569  0.00  0.00    -0.155 OA
ATOM     15  C   UNL     1      -0.261 -14.938   0.752  0.00  0.00    +0.218 C 
ENDBRANCH  11  12
BRANCH  11  16
ATOM     16  C   UNL     1       2.648 -13.220  -0.301  0.00  0.00    +0.166 C 
BRANCH  16  17
ATOM     17  C   UNL     1       3.616 -12.220   0.277  0.00  0.00    -0.028 A 
ATOM     18  C   UNL     1       4.038 -11.147  -0.486  0.00  0.00    +0.005 A 
ATOM     19  C   UNL     1       4.926 -10.229   0.043  0.00  0.00    +0.000 A 
ATOM     20  C   UNL     1       5.391 -10.384   1.336  0.00  0.00    +0.000 A 
ATOM     21  C   UNL     1       4.969 -11.456   2.099  0.00  0.00    +0.000 A 
ATOM     22  C   UNL     1       4.077 -12.372   1.571  0.00  0.00    +0.005 A 
ENDBRANCH  16  17
ENDBRANCH  11  16
ENDBRANCH  10  11
ENDBRANCH   2   5
BRANCH   1  23
ATOM     23  C   UNL     1       2.042  -8.210   2.102  0.00  0.00    +0.139 C 
BRANCH  23  27
ATOM     24  C   UNL     1       1.666  -3.960   2.315  0.00  0.00    -0.064 A 
ATOM     25  C   UNL     1       0.713  -4.769   2.905  0.00  0.00    +0.002 A 
ATOM     26  C   UNL     1       0.834  -6.144   2.837  0.00  0.00    +0.005 A 
ATOM     27  C   UNL     1       1.909  -6.711   2.177  0.00  0.00    -0.030 A 
ATOM     28  C   UNL     1       2.861  -5.902   1.585  0.00  0.00    +0.005 A 
ATOM     29  C   UNL     1       2.737  -4.527   1.651  0.00  0.00    +0.002 A 
BRANCH  24  30
ATOM     30  C   UNL     1       1.534  -2.461   2.390  0.00  0.00    -0.043 C 
BRANCH  30  36
ATOM     31  C   UNL     1      -0.019   1.526   0.010  0.00  0.00    +0.005 C 
ATOM     32  C   UNL     1       0.002  -0.004   0.002  0.00  0.00    -0.031 C 
ATOM     33  C   UNL     1      -1.434  -0.535   0.015  0.00  0.00    -0.001 C 
ATOM     34  C   UNL     1      -1.402  -2.064   0.086  0.00  0.00    -0.018 C 
ATOM     35  C   UNL     1      -0.613  -2.496   1.324  0.00  0.00    -0.078 C 
ATOM     36  N   UNL     1       0.758  -1.980   1.239  0.00  0.00    +0.383 N 
ATOM     37  C   UNL     1       0.740  -0.512   1.242  0.00  0.00    -0.075 C 
ATOM     38  H   UNL     1       1.188  -2.307   0.386  0.00  0.00    -0.081 HD
ENDBRANCH  30  36
ENDBRANCH  24  30
ENDBRANCH  23  27
ENDBRANCH   1  23
TORSDOF 9
