REMARK  Name = ZINC13816940
REMARK  6 active torsions:
REMARK  status: ('A' for Active; 'I' for Inactive)
REMARK    1  A    between atoms: C_1  and  C_2
REMARK    2  A    between atoms: C_4  and  C_39
REMARK    3  A    between atoms: C_6  and  N_8
REMARK    4  A    between atoms: C_13  and  C_31
REMARK    5  A    between atoms: C_31  and  C_32
REMARK    6  A    between atoms: C_35  and  O_38
REMARK                            x       y       z     vdW  Elec       q    Type
REMARK                         _______ _______ _______ _____ _____    ______ ____
ROOT
ATOM      1  N   UNL     1       0.050  -2.798   2.395  0.00  0.00    -0.210 N 
ATOM      2  C   UNL     1      -0.025  -4.133   2.452  0.00  0.00    +0.232 C 
ATOM      3  O   UNL     1      -0.113  -4.871   1.494  0.00  0.00    -0.274 OA
ATOM      4  C   UNL     1       0.016  -4.578   3.896  0.00  0.00    +0.108 C 
ATOM      5  C   UNL     1      -1.359  -5.162   4.286  0.00  0.00    +0.072 C 
ATOM      6  N   UNL     1      -1.675  -4.548   5.603  0.00  0.00    -0.295 NA
ATOM      7  C   UNL     1      -1.191  -3.160   5.478  0.00  0.00    +0.136 C 
ATOM      8  C   UNL     1       0.133  -3.240   4.679  0.00  0.00    +0.123 C 
ATOM      9  C   UNL     1       0.146  -2.196   3.587  0.00  0.00    +0.233 C 
ATOM     10  O   UNL     1       0.228  -1.000   3.762  0.00  0.00    -0.274 OA
ATOM     11  C   UNL     1      -2.205  -2.285   4.798  0.00  0.00    +0.006 A 
ATOM     12  C   UNL     1      -2.811  -2.320   3.562  0.00  0.00    +0.046 A 
ATOM     13  C   UNL     1      -3.733  -1.347   3.213  0.00  0.00    +0.124 A 
ATOM     14  C   UNL     1      -4.043  -0.339   4.111  0.00  0.00    +0.040 A 
ATOM     15  C   UNL     1      -3.436  -0.301   5.349  0.00  0.00    +0.026 A 
ATOM     16  C   UNL     1      -2.508  -1.276   5.707  0.00  0.00    +0.039 A 
ATOM     17  N   UNL     1      -1.772  -1.448   6.883  0.00  0.00    -0.283 N 
ATOM     18  C   UNL     1      -0.974  -2.532   6.828  0.00  0.00    +0.243 C 
ATOM     19  O   UNL     1      -0.227  -2.925   7.698  0.00  0.00    -0.273 OA
ATOM     20  F   UNL     1      -4.329  -1.381   2.001  0.00  0.00    -0.205 F 
ATOM     21  H   UNL     1      -2.667  -4.570   5.784  0.00  0.00    +0.124 HD
ATOM     22  H   UNL     1      -1.829  -0.856   7.649  0.00  0.00    +0.155 HD
ENDROOT
BRANCH   1  28
ATOM     23  C   UNL     1       2.375   0.053  -0.869  0.00  0.00    +0.044 C 
ATOM     24  C   UNL     1       1.148  -0.698  -0.419  0.00  0.00    -0.048 A 
ATOM     25  C   UNL     1       0.007  -0.687  -1.199  0.00  0.00    +0.006 A 
ATOM     26  C   UNL     1      -1.121  -1.375  -0.789  0.00  0.00    -0.048 A 
ATOM     27  C   UNL     1      -1.109  -2.075   0.401  0.00  0.00    +0.027 A 
ATOM     28  C   UNL     1       0.035  -2.088   1.186  0.00  0.00    +0.044 A 
ATOM     29  C   UNL     1       1.168  -1.402   0.769  0.00  0.00    +0.027 A 
ATOM     30  C   UNL     1      -2.363  -1.360  -1.642  0.00  0.00    +0.044 C 
ENDBRANCH   1  28
BRANCH   5  31
ATOM     31  C   UNL     1      -1.274  -6.684   4.412  0.00  0.00    +0.054 C 
BRANCH  31  32
ATOM     32  C   UNL     1      -2.649  -7.245   4.671  0.00  0.00    -0.046 A 
ATOM     33  C   UNL     1      -3.103  -7.388   5.970  0.00  0.00    +0.007 A 
ATOM     34  C   UNL     1      -4.362  -7.901   6.210  0.00  0.00    +0.045 A 
ATOM     35  C   UNL     1      -5.173  -8.273   5.147  0.00  0.00    +0.117 A 
ATOM     36  C   UNL     1      -4.716  -8.128   3.845  0.00  0.00    +0.045 A 
ATOM     37  C   UNL     1      -3.457  -7.609   3.610  0.00  0.00    +0.007 A 
BRANCH  35  38
ATOM     38  O   UNL     1      -6.412  -8.779   5.380  0.00  0.00    -0.507 OA
ATOM     39  H   UNL     1      -7.109  -8.109   5.421  0.00  0.00    +0.292 HD
ENDBRANCH  35  38
ENDBRANCH  31  32
ENDBRANCH   5  31
TORSDOF 4
