REMARK  Name = ZINC06877651
REMARK  9 active torsions:
REMARK  status: ('A' for Active; 'I' for Inactive)
REMARK    1  A    between atoms: C_1  and  C_2
REMARK    2  A    between atoms: C_6  and  N_9
REMARK    3  A    between atoms: C_7  and  C_8
REMARK    4  A    between atoms: N_12  and  C_13
REMARK    5  A    between atoms: N_12  and  C_20
REMARK    6  A    between atoms: C_13  and  C_14
REMARK    7  A    between atoms: C_17  and  C_19
REMARK    8  A    between atoms: C_25  and  C_26
REMARK    9  A    between atoms: C_25  and  N_65
REMARK                            x       y       z     vdW  Elec       q    Type
REMARK                         _______ _______ _______ _____ _____    ______ ____
ROOT
ATOM      1  N   UNL     1      -3.767   3.450   1.437  0.00  0.00    -0.269 N 
ATOM      2  C   UNL     1      -2.936   4.301   2.070  0.00  0.00    +0.307 C 
ATOM      3  O   UNL     1      -3.163   4.633   3.217  0.00  0.00    -0.252 OA
ATOM      4  N   UNL     1      -1.852   4.785   1.431  0.00  0.00    -0.275 N 
ATOM      5  H   UNL     1      -3.633   3.249   0.497  0.00  0.00    +0.156 HD
ENDROOT
BRANCH   1  11
ATOM      6  C   UNL     1      -8.217   1.360   1.401  0.00  0.00    +0.044 C 
ATOM      7  C   UNL     1      -6.994   1.835   2.142  0.00  0.00    -0.046 A 
ATOM      8  C   UNL     1      -6.917   1.684   3.515  0.00  0.00    +0.004 A 
ATOM      9  C   UNL     1      -5.796   2.118   4.199  0.00  0.00    +0.002 A 
ATOM     10  C   UNL     1      -4.750   2.704   3.513  0.00  0.00    +0.023 A 
ATOM     11  C   UNL     1      -4.825   2.857   2.135  0.00  0.00    +0.038 A 
ATOM     12  C   UNL     1      -5.954   2.424   1.451  0.00  0.00    -0.026 A 
ATOM     13  C   UNL     1      -6.042   2.594  -0.044  0.00  0.00    +0.046 C 
ENDBRANCH   1  11
BRANCH   4  14
ATOM     14  C   UNL     1      -0.948   5.710   2.119  0.00  0.00    +0.075 C 
ATOM     15  C   UNL     1      -0.376   5.033   3.367  0.00  0.00    +0.004 C 
ATOM     16  C   UNL     1       0.519   6.024   4.114  0.00  0.00    -0.077 C 
ATOM     17  C   UNL     1      -0.786   7.899   3.308  0.00  0.00    -0.077 C 
ATOM     18  C   UNL     1      -1.720   6.964   2.536  0.00  0.00    +0.004 C 
ATOM     19  N   UNL     1      -0.289   7.197   4.510  0.00  0.00    +0.382 N 
ATOM     20  H   UNL     1      -1.092   6.876   5.064  0.00  0.00    -0.081 HD
BRANCH  19  21
ATOM     21  C   UNL     1       0.525   8.116   5.331  0.00  0.00    -0.043 C 
BRANCH  21  22
ATOM     22  C   UNL     1       0.833   7.448   6.646  0.00  0.00    -0.064 A 
ATOM     23  C   UNL     1      -0.031   7.594   7.715  0.00  0.00    +0.002 A 
ATOM     24  C   UNL     1       0.249   6.977   8.920  0.00  0.00    +0.000 A 
ATOM     25  C   UNL     1       1.399   6.222   9.059  0.00  0.00    +0.000 A 
ATOM     26  C   UNL     1       2.266   6.081   7.992  0.00  0.00    +0.000 A 
ATOM     27  C   UNL     1       1.983   6.694   6.785  0.00  0.00    +0.002 A 
ENDBRANCH  21  22
ENDBRANCH  19  21
ENDBRANCH   4  14
BRANCH   4  28
ATOM     28  C   UNL     1      -1.578   4.385   0.048  0.00  0.00    +0.183 C 
BRANCH  28  29
ATOM     29  C   UNL     1      -0.716   3.149   0.044  0.00  0.00    +0.122 A 
ATOM     30  C   UNL     1      -1.162   1.879   0.038  0.00  0.00    +0.046 A 
ATOM     31  C   UNL     1      -0.021   1.045   0.038  0.00  0.00    +0.045 A 
ATOM     32  C   UNL     1       1.054   1.854   0.035  0.00  0.00    +0.102 A 
ATOM     33  O   UNL     1       0.626   3.127   0.038  0.00  0.00    -0.463 OA
ATOM     34  C   UNL     1       2.493   1.407   0.028  0.00  0.00    +0.086 C 
ENDBRANCH  28  29
ENDBRANCH   4  28
TORSDOF 6
