REMARK  Name = ZINC20133712
REMARK  10 active torsions:
REMARK  status: ('A' for Active; 'I' for Inactive)
REMARK    1  A    between atoms: C_1  and  C_2
REMARK    2  A    between atoms: C_2  and  O_3
REMARK    3  A    between atoms: O_3  and  C_4
REMARK    4  A    between atoms: C_4  and  C_6
REMARK    5  A    between atoms: C_7  and  C_37
REMARK    6  A    between atoms: C_11  and  S_25
REMARK    7  A    between atoms: C_14  and  C_16
REMARK    8  A    between atoms: C_19  and  N_22
REMARK    9  A    between atoms: S_25  and  C_26
REMARK   10  A    between atoms: C_26  and  C_27
REMARK                            x       y       z     vdW  Elec       q    Type
REMARK                         _______ _______ _______ _____ _____    ______ ____
ROOT
ATOM      1  C   UNL     1      -2.799  -2.429   0.223  0.00  0.00    +0.082 C 
ATOM      2  C   UNL     1      -2.920  -3.729  -0.087  0.00  0.00    +0.020 C 
ATOM      3  N   UNL     1      -4.139  -4.317  -0.309  0.00  0.00    -0.287 N 
ATOM      4  C   UNL     1      -5.235  -3.479  -0.463  0.00  0.00    +0.219 A 
ATOM      5  N   UNL     1      -6.440  -3.741  -0.892  0.00  0.00    -0.187 NA
ATOM      6  C   UNL     1      -7.174  -2.619  -0.878  0.00  0.00    +0.211 A 
ATOM      7  N   UNL     1      -6.433  -1.627  -0.434  0.00  0.00    -0.141 NA
ATOM      8  N   UNL     1      -5.175  -2.160  -0.155  0.00  0.00    -0.220 N 
ATOM      9  C   UNL     1      -3.979  -1.507   0.373  0.00  0.00    +0.179 C 
ATOM     10  C   UNL     1      -1.674  -4.571  -0.197  0.00  0.00    +0.061 C 
ATOM     11  H   UNL     1      -4.232  -5.282  -0.357  0.00  0.00    +0.155 HD
ENDROOT
BRANCH   9  12
ATOM     12  C   UNL     1      -4.181  -1.183   1.831  0.00  0.00    -0.018 A 
ATOM     13  C   UNL     1      -4.426  -2.198   2.737  0.00  0.00    +0.008 A 
ATOM     14  C   UNL     1      -4.612  -1.901   4.074  0.00  0.00    +0.033 A 
ATOM     15  C   UNL     1      -4.551  -0.589   4.506  0.00  0.00    +0.126 A 
ATOM     16  C   UNL     1      -4.305   0.426   3.600  0.00  0.00    +0.033 A 
ATOM     17  C   UNL     1      -4.115   0.129   2.263  0.00  0.00    +0.008 A 
BRANCH  15  18
ATOM     18  N   UNL     1      -4.750  -0.270   5.938  0.00  0.00    +0.056 N 
ATOM     19  O   UNL     1      -4.966  -1.158   6.730  0.00  0.00    -0.126 OA
ATOM     20  O   UNL     1      -4.697   0.877   6.315  0.00  0.00    -0.126 OA
ENDBRANCH  15  18
ENDBRANCH   9  12
BRANCH   1  21
ATOM     21  C   UNL     1      -1.503  -1.902   0.423  0.00  0.00    +0.339 C 
ATOM     22  O   UNL     1      -0.999  -1.188  -0.423  0.00  0.00    -0.245 OA
BRANCH  21  23
ATOM     23  O   UNL     1      -0.825  -2.191   1.554  0.00  0.00    -0.462 OA
BRANCH  23  25
ATOM     24  C   UNL     1       1.088  -2.061   3.024  0.00  0.00    +0.048 C 
ATOM     25  C   UNL     1       0.480  -1.625   1.690  0.00  0.00    +0.229 C 
ENDBRANCH  23  25
ENDBRANCH  21  23
ENDBRANCH   1  21
BRANCH   6  26
ATOM     26  S   UNL     1      -8.860  -2.494  -1.377  0.00  0.00    -0.080 S 
BRANCH  26  27
ATOM     27  C   UNL     1      -9.296  -4.182  -1.876  0.00  0.00    +0.112 C 
BRANCH  27  28
ATOM     28  C   UNL     1     -10.733  -4.216  -2.331  0.00  0.00    -0.037 A 
ATOM     29  C   UNL     1     -11.741  -4.470  -1.403  0.00  0.00    +0.005 A 
ATOM     30  C   UNL     1     -13.048  -4.507  -1.780  0.00  0.00    +0.009 A 
ATOM     31  C   UNL     1     -13.390  -4.287  -3.126  0.00  0.00    -0.018 A 
ATOM     32  C   UNL     1     -14.728  -4.317  -3.553  0.00  0.00    +0.008 A 
ATOM     33  C   UNL     1     -15.021  -4.098  -4.864  0.00  0.00    +0.001 A 
ATOM     34  C   UNL     1     -14.013  -3.844  -5.792  0.00  0.00    +0.001 A 
ATOM     35  C   UNL     1     -12.706  -3.807  -5.415  0.00  0.00    +0.008 A 
ATOM     36  C   UNL     1     -12.365  -4.028  -4.069  0.00  0.00    -0.018 A 
ATOM     37  C   UNL     1     -11.027  -3.992  -3.641  0.00  0.00    +0.013 A 
ENDBRANCH  27  28
ENDBRANCH  26  27
ENDBRANCH   6  26
TORSDOF 8
