REMARK  Name = ZINC12897030
REMARK  10 active torsions:
REMARK  status: ('A' for Active; 'I' for Inactive)
REMARK    1  A    between atoms: C_1  and  C_2
REMARK    2  A    between atoms: C_2  and  C_4
REMARK    3  A    between atoms: C_2  and  N_14
REMARK    4  A    between atoms: C_7  and  S_10
REMARK    5  A    between atoms: S_10  and  N_13
REMARK    6  A    between atoms: N_17  and  C_18
REMARK    7  A    between atoms: N_17  and  C_19
REMARK    8  A    between atoms: C_19  and  C_20
REMARK    9  A    between atoms: C_25  and  O_30
REMARK   10  A    between atoms: O_30  and  C_31
REMARK                            x       y       z     vdW  Elec       q    Type
REMARK                         _______ _______ _______ _____ _____    ______ ____
ROOT
ATOM      1  N   UNL     1      -5.279   1.611   3.347  0.00  0.00    -0.293 N 
ATOM      2  C   UNL     1      -4.897   1.402   2.072  0.00  0.00    +0.303 C 
ATOM      3  O   UNL     1      -5.231   0.384   1.497  0.00  0.00    -0.253 OA
ATOM      4  N   UNL     1      -4.145   2.321   1.434  0.00  0.00    -0.284 N 
ATOM      5  C   UNL     1      -3.743   3.547   2.127  0.00  0.00    +0.134 C 
ATOM      6  H   UNL     1      -5.013   2.424   3.806  0.00  0.00    +0.151 HD
ENDROOT
BRANCH   1   8
ATOM      7  C   UNL     1      -7.573   0.847   3.714  0.00  0.00    +0.033 C 
ATOM      8  C   UNL     1      -6.097   0.613   4.040  0.00  0.00    +0.102 C 
BRANCH   8   9
ATOM      9  C   UNL     1      -5.886   0.735   5.528  0.00  0.00    -0.027 A 
ATOM     10  C   UNL     1      -5.775   1.984   6.110  0.00  0.00    +0.007 A 
ATOM     11  C   UNL     1      -5.586   2.097   7.474  0.00  0.00    +0.029 A 
ATOM     12  C   UNL     1      -5.497   0.960   8.256  0.00  0.00    +0.105 A 
ATOM     13  C   UNL     1      -5.602  -0.289   7.673  0.00  0.00    +0.029 A 
ATOM     14  C   UNL     1      -5.796  -0.402   6.309  0.00  0.00    +0.007 A 
BRANCH  12  15
ATOM     15  S   UNL     1      -5.249   1.103   9.994  0.00  0.00    +0.056 S 
ATOM     16  O   UNL     1      -5.729   2.387  10.369  0.00  0.00    -0.153 OA
ATOM     17  O   UNL     1      -5.745  -0.095  10.575  0.00  0.00    -0.153 OA
BRANCH  15  18
ATOM     18  N   UNL     1      -3.614   1.114  10.256  0.00  0.00    -0.204 NA
ATOM     19  H   UNL     1      -3.247   1.596  11.014  0.00  0.00    +0.144 HD
ATOM     20  H   UNL     1      -3.023   0.638   9.652  0.00  0.00    +0.144 HD
ENDBRANCH  15  18
ENDBRANCH  12  15
ENDBRANCH   8   9
ENDBRANCH   1   8
BRANCH   4  21
ATOM     21  C   UNL     1      -3.730   2.093   0.048  0.00  0.00    +0.144 C 
BRANCH  21  22
ATOM     22  C   UNL     1      -2.408   1.369   0.032  0.00  0.00    -0.029 A 
ATOM     23  C   UNL     1      -2.390  -0.025   0.025  0.00  0.00    +0.006 A 
ATOM     24  C   UNL     1      -1.214  -0.710   0.010  0.00  0.00    +0.009 A 
ATOM     25  C   UNL     1       0.002  -0.004   0.002  0.00  0.00    -0.014 A 
ATOM     26  C   UNL     1       1.235  -0.677  -0.013  0.00  0.00    +0.054 A 
ATOM     27  C   UNL     1       2.396   0.042  -0.020  0.00  0.00    +0.121 A 
ATOM     28  C   UNL     1       2.375   1.440  -0.012  0.00  0.00    +0.046 A 
ATOM     29  C   UNL     1       1.198   2.121   0.002  0.00  0.00    +0.012 A 
ATOM     30  C   UNL     1      -0.017   1.413   0.010  0.00  0.00    -0.017 A 
ATOM     31  C   UNL     1      -1.251   2.085   0.031  0.00  0.00    +0.013 A 
BRANCH  27  32
ATOM     32  O   UNL     1       3.588  -0.611  -0.034  0.00  0.00    -0.495 OA
ATOM     33  C   UNL     1       4.768   0.195  -0.040  0.00  0.00    +0.277 C 
ENDBRANCH  27  32
ENDBRANCH  21  22
ENDBRANCH   4  21
TORSDOF 7
