REMARK  Name = ZINC64502547
REMARK  9 active torsions:
REMARK  status: ('A' for Active; 'I' for Inactive)
REMARK    1  A    between atoms: C_1  and  C_2
REMARK    2  A    between atoms: C_2  and  O_3
REMARK    3  A    between atoms: O_3  and  C_4
REMARK    4  A    between atoms: C_4  and  C_6
REMARK    5  A    between atoms: C_7  and  C_36
REMARK    6  A    between atoms: C_9  and  C_13
REMARK    7  A    between atoms: C_10  and  C_12
REMARK    8  A    between atoms: C_18  and  C_21
REMARK    9  A    between atoms: C_21  and  C_22
REMARK                            x       y       z     vdW  Elec       q    Type
REMARK                         _______ _______ _______ _____ _____    ______ ____
ROOT
ATOM      1  C   UNL     1       3.564  -2.416   5.907  0.00  0.00    +0.261 C 
ATOM      2  O   UNL     1       2.804  -2.491   4.961  0.00  0.00    -0.269 OA
ATOM      3  N   UNL     1       4.032  -3.539   6.486  0.00  0.00    -0.297 N 
ATOM      4  C   UNL     1       3.761  -4.856   5.894  0.00  0.00    +0.108 C 
ATOM      5  C   UNL     1       3.133  -5.757   6.962  0.00  0.00    +0.023 C 
ATOM      6  C   UNL     1       4.045  -5.796   8.190  0.00  0.00    +0.001 C 
ATOM      7  C   UNL     1       4.184  -4.386   8.769  0.00  0.00    +0.023 C 
ATOM      8  C   UNL     1       4.829  -3.469   7.718  0.00  0.00    +0.108 C 
ENDROOT
BRANCH   1  12
ATOM      9  C   UNL     1       4.226   1.226   6.851  0.00  0.00    +0.066 C 
ATOM     10  C   UNL     1       5.034   0.443   7.603  0.00  0.00    +0.049 C 
ATOM     11  N   UNL     1       4.867  -0.855   7.337  0.00  0.00    -0.250 NA
ATOM     12  C   UNL     1       3.974  -1.092   6.421  0.00  0.00    +0.111 C 
ATOM     13  C   UNL     1       3.434   0.258   5.990  0.00  0.00    +0.078 C 
ATOM     14  C   UNL     1       3.711   0.501   4.505  0.00  0.00    +0.019 C 
ATOM     15  C   UNL     1       6.008   0.974   8.623  0.00  0.00    +0.066 C 
BRANCH   9  16
ATOM     16  C   UNL     1       4.131   2.689   6.867  0.00  0.00    +0.338 C 
ATOM     17  O   UNL     1       4.837   3.335   7.617  0.00  0.00    -0.245 OA
BRANCH  16  18
ATOM     18  O   UNL     1       3.261   3.318   6.050  0.00  0.00    -0.462 OA
BRANCH  18  20
ATOM     19  C   UNL     1       2.185   5.275   5.128  0.00  0.00    +0.048 C 
ATOM     20  C   UNL     1       3.223   4.745   6.119  0.00  0.00    +0.229 C 
ENDBRANCH  18  20
ENDBRANCH  16  18
ENDBRANCH   9  16
ENDBRANCH   1  12
BRANCH   6  21
ATOM     21  C   UNL     1       3.438  -6.723   9.246  0.00  0.00    +0.099 C 
BRANCH  21  22
ATOM     22  C   UNL     1       4.393  -6.858  10.404  0.00  0.00    +0.216 C 
ATOM     23  O   UNL     1       5.454  -6.272  10.386  0.00  0.00    -0.276 OA
ATOM     24  N   UNL     1       4.067  -7.632  11.459  0.00  0.00    -0.298 N 
ATOM     25  C   UNL     1       2.788  -8.353  11.491  0.00  0.00    +0.126 C 
ATOM     26  C   UNL     1       3.071  -9.844  11.715  0.00  0.00    +0.125 C 
ATOM     27  N   UNL     1       3.990  -9.981  12.854  0.00  0.00    -0.314 N 
ATOM     28  C   UNL     1       5.269  -9.259  12.822  0.00  0.00    +0.125 C 
ATOM     29  C   UNL     1       4.989  -7.773  12.595  0.00  0.00    +0.126 C 
ATOM     30  C   UNL     1       3.654 -10.778  13.941  0.00  0.00    +0.099 A 
ATOM     31  C   UNL     1       2.536 -11.604  13.872  0.00  0.00    +0.042 A 
ATOM     32  C   UNL     1       2.214 -12.392  14.962  0.00  0.00    +0.005 A 
ATOM     33  C   UNL     1       3.023 -12.328  16.089  0.00  0.00    +0.018 A 
ATOM     34  C   UNL     1       4.117 -11.486  16.089  0.00  0.00    +0.084 A 
ATOM     35  N   UNL     1       4.404 -10.749  15.032  0.00  0.00    -0.350 N 
ATOM     36  H   UNL     1       5.181 -10.169  15.057  0.00  0.00    +0.166 HD
ENDBRANCH  21  22
ENDBRANCH   6  21
TORSDOF 6
