REMARK  Name = ZINC36609474
REMARK  14 active torsions:
REMARK  status: ('A' for Active; 'I' for Inactive)
REMARK    1  A    between atoms: C_1  and  C_2
REMARK    2  A    between atoms: C_2  and  C_3
REMARK    3  A    between atoms: C_2  and  C_4
REMARK    4  A    between atoms: C_2  and  N_5
REMARK    5  A    between atoms: C_6  and  C_8
REMARK    6  A    between atoms: C_8  and  C_10
REMARK    7  A    between atoms: C_8  and  N_19
REMARK    8  A    between atoms: C_13  and  N_16
REMARK    9  A    between atoms: N_16  and  C_17
REMARK   10  A    between atoms: N_16  and  C_18
REMARK   11  A    between atoms: N_19  and  C_20
REMARK   12  A    between atoms: C_26  and  C_28
REMARK   13  A    between atoms: C_30  and  N_35
REMARK   14  A    between atoms: C_33  and  O_34
REMARK                            x       y       z     vdW  Elec       q    Type
REMARK                         _______ _______ _______ _____ _____    ______ ____
ROOT
ATOM      1  N   UNL     1       4.283   0.080  -1.925  0.00  0.00    -0.251 N 
ATOM      2  C   UNL     1       4.371  -1.260  -1.815  0.00  0.00    +0.255 C 
ATOM      3  O   UNL     1       5.076  -1.888  -2.582  0.00  0.00    -0.269 OA
ENDROOT
BRANCH   1   4
ATOM      4  C   UNL     1       4.907   0.737  -2.991  0.00  0.00    +0.038 A 
ATOM      5  C   UNL     1       6.260   1.043  -2.924  0.00  0.00    +0.023 A 
ATOM      6  C   UNL     1       6.873   1.691  -3.978  0.00  0.00    +0.002 A 
ATOM      7  C   UNL     1       6.140   2.035  -5.100  0.00  0.00    +0.000 A 
ATOM      8  C   UNL     1       4.793   1.732  -5.169  0.00  0.00    +0.002 A 
ATOM      9  C   UNL     1       4.175   1.079  -4.121  0.00  0.00    +0.023 A 
ENDBRANCH   1   4
BRANCH   2  10
ATOM     10  C   UNL     1       3.612  -1.966  -0.765  0.00  0.00    +0.081 A 
ATOM     11  C   UNL     1       2.232  -1.781  -0.652  0.00  0.00    +0.049 A 
ATOM     12  C   UNL     1       1.529  -2.442   0.331  0.00  0.00    +0.127 A 
ATOM     13  C   UNL     1       2.184  -3.291   1.208  0.00  0.00    +0.036 A 
ATOM     14  C   UNL     1       3.548  -3.483   1.108  0.00  0.00    +0.048 A 
ATOM     15  C   UNL     1       4.270  -2.830   0.120  0.00  0.00    +0.129 A 
BRANCH  12  16
ATOM     16  N   UNL     1       0.067  -2.245   0.451  0.00  0.00    +0.056 N 
ATOM     17  O   UNL     1      -0.523  -1.580  -0.369  0.00  0.00    -0.126 OA
ATOM     18  O   UNL     1      -0.538  -2.749   1.368  0.00  0.00    -0.126 OA
ENDBRANCH  12  16
BRANCH  15  19
ATOM     19  O   UNL     1       5.609  -3.021   0.016  0.00  0.00    -0.506 OA
ATOM     20  H   UNL     1       6.137  -2.403   0.540  0.00  0.00    +0.292 HD
ENDBRANCH  15  19
ENDBRANCH   2  10
BRANCH   1  21
ATOM     21  C   UNL     1       3.535   0.849  -0.927  0.00  0.00    +0.197 C 
BRANCH  21  22
ATOM     22  C   UNL     1       3.261   2.232  -1.461  0.00  0.00    -0.018 A 
ATOM     23  C   UNL     1       4.314   3.083  -1.744  0.00  0.00    +0.008 A 
ATOM     24  C   UNL     1       4.066   4.351  -2.234  0.00  0.00    +0.023 A 
ATOM     25  C   UNL     1       2.758   4.770  -2.441  0.00  0.00    +0.029 A 
ATOM     26  C   UNL     1       1.703   3.912  -2.156  0.00  0.00    +0.023 A 
ATOM     27  C   UNL     1       1.958   2.644  -1.672  0.00  0.00    +0.008 A 
BRANCH  25  28
ATOM     28  N   UNL     1       2.504   6.051  -2.936  0.00  0.00    -0.336 N 
ATOM     29  C   UNL     1       3.617   6.913  -3.343  0.00  0.00    +0.129 C 
ATOM     30  C   UNL     1       1.125   6.534  -3.046  0.00  0.00    +0.129 C 
ENDBRANCH  25  28
ENDBRANCH  21  22
BRANCH  21  32
ATOM     31  N   UNL     1       3.853   1.619   1.402  0.00  0.00    -0.309 N 
ATOM     32  C   UNL     1       4.345   0.951   0.339  0.00  0.00    +0.239 C 
ATOM     33  O   UNL     1       5.439   0.433   0.403  0.00  0.00    -0.273 OA
ATOM     34  H   UNL     1       2.978   2.034   1.351  0.00  0.00    +0.149 HD
BRANCH  31  36
ATOM     35  C   UNL     1       5.966   2.422   2.336  0.00  0.00    +0.031 C 
ATOM     36  C   UNL     1       4.640   1.718   2.633  0.00  0.00    +0.026 C 
ATOM     37  C   UNL     1       4.918   0.315   3.175  0.00  0.00    +0.031 C 
ATOM     38  C   UNL     1       3.858   2.521   3.675  0.00  0.00    +0.031 C 
ENDBRANCH  31  36
ENDBRANCH  21  32
ENDBRANCH   1  21
TORSDOF 9
