REMARK  Name = ZINC29340295
REMARK  9 active torsions:
REMARK  status: ('A' for Active; 'I' for Inactive)
REMARK    1  A    between atoms: C_1  and  C_2
REMARK    2  A    between atoms: C_2  and  C_3
REMARK    3  A    between atoms: C_3  and  C_4
REMARK    4  A    between atoms: C_4  and  C_5
REMARK    5  A    between atoms: C_7  and  C_10
REMARK    6  A    between atoms: C_10  and  S_11
REMARK    7  A    between atoms: S_11  and  C_12
REMARK    8  A    between atoms: C_15  and  C_18
REMARK    9  A    between atoms: N_16  and  N_17
REMARK                            x       y       z     vdW  Elec       q    Type
REMARK                         _______ _______ _______ _____ _____    ______ ____
ROOT
ATOM      1  C   UNL     1      -8.027  -2.879   3.276  0.00  0.00    +0.209 A 
ATOM      2  N   UNL     1      -8.226  -4.145   3.569  0.00  0.00    -0.121 NA
ATOM      3  N   UNL     1      -9.260  -4.266   4.324  0.00  0.00    -0.127 NA
ATOM      4  C   UNL     1      -9.784  -3.085   4.559  0.00  0.00    +0.183 A 
ATOM      5  N   UNL     1      -9.007  -2.160   3.900  0.00  0.00    -0.224 N 
ENDROOT
BRANCH   4   6
ATOM      6  C   UNL     1     -10.979  -2.803   5.381  0.00  0.00    +0.035 A 
ATOM      7  C   UNL     1     -11.980  -1.959   4.896  0.00  0.00    +0.013 A 
ATOM      8  C   UNL     1     -13.093  -1.700   5.668  0.00  0.00    +0.001 A 
ATOM      9  C   UNL     1     -13.220  -2.273   6.921  0.00  0.00    +0.001 A 
ATOM     10  C   UNL     1     -12.232  -3.110   7.409  0.00  0.00    +0.016 A 
ATOM     11  C   UNL     1     -11.115  -3.382   6.644  0.00  0.00    +0.029 A 
ATOM     12 BR   UNL     1      -9.769  -4.533   7.309  0.00  0.00    -0.050 Br
ENDBRANCH   4   6
BRANCH   5  13
ATOM     13  N   UNL     1      -9.181  -0.806   3.873  0.00  0.00    -0.295 N 
ATOM     14  H   UNL     1      -9.841  -0.540   3.158  0.00  0.00    +0.163 HD
ATOM     15  H   UNL     1      -9.468  -0.460   4.777  0.00  0.00    +0.163 HD
ENDBRANCH   5  13
BRANCH   1  16
ATOM     16  S   UNL     1      -6.733  -2.230   2.273  0.00  0.00    -0.075 S 
BRANCH  16  17
ATOM     17  C   UNL     1      -5.795  -3.696   1.763  0.00  0.00    +0.176 C 
BRANCH  17  20
ATOM     18  C   UNL     1      -2.671  -2.642   0.255  0.00  0.00    +0.172 A 
ATOM     19  N   UNL     1      -3.444  -2.968   1.297  0.00  0.00    -0.195 NA
ATOM     20  C   UNL     1      -4.643  -3.277   0.887  0.00  0.00    +0.238 A 
ATOM     21  O   UNL     1      -4.674  -3.157  -0.446  0.00  0.00    -0.337 OA
ATOM     22  N   UNL     1      -3.375  -2.736  -0.837  0.00  0.00    -0.061 NA
BRANCH  18  23
ATOM     23  C   UNL     1      -1.224  -2.229   0.332  0.00  0.00    +0.080 C 
BRANCH  23  24
ATOM     24  C   UNL     1      -1.136  -0.711   0.498  0.00  0.00    +0.008 C 
BRANCH  24  26
ATOM     25  C   UNL     1       0.422   1.228   0.742  0.00  0.00    +0.004 C 
ATOM     26  C   UNL     1       0.333  -0.291   0.576  0.00  0.00    -0.003 C 
ENDBRANCH  24  26
ENDBRANCH  23  24
ENDBRANCH  18  23
ENDBRANCH  17  20
ENDBRANCH  16  17
ENDBRANCH   1  16
TORSDOF 8
