REMARK  Name = ZINC36588524
REMARK  14 active torsions:
REMARK  status: ('A' for Active; 'I' for Inactive)
REMARK    1  A    between atoms: C_1  and  C_2
REMARK    2  A    between atoms: C_2  and  C_3
REMARK    3  A    between atoms: C_3  and  C_4
REMARK    4  A    between atoms: C_4  and  N_5
REMARK    5  A    between atoms: C_6  and  C_8
REMARK    6  A    between atoms: C_8  and  C_10
REMARK    7  A    between atoms: C_8  and  N_19
REMARK    8  A    between atoms: C_13  and  N_16
REMARK    9  A    between atoms: N_19  and  C_32
REMARK   10  A    between atoms: C_20  and  C_22
REMARK   11  A    between atoms: C_22  and  C_23
REMARK   12  A    between atoms: C_32  and  C_33
REMARK   13  A    between atoms: C_32  and  C_34
REMARK   14  A    between atoms: C_32  and  C_35
REMARK                            x       y       z     vdW  Elec       q    Type
REMARK                         _______ _______ _______ _____ _____    ______ ____
ROOT
ATOM      1  C   UNL     1       3.542  -3.975   2.700  0.00  0.00    +0.193 C 
ENDROOT
BRANCH   1   2
ATOM      2  C   UNL     1       2.467  -3.605   1.712  0.00  0.00    -0.018 A 
ATOM      3  C   UNL     1       1.139  -3.844   2.013  0.00  0.00    +0.008 A 
ATOM      4  C   UNL     1       0.153  -3.504   1.106  0.00  0.00    +0.033 A 
ATOM      5  C   UNL     1       0.494  -2.926  -0.102  0.00  0.00    +0.126 A 
ATOM      6  C   UNL     1       1.822  -2.687  -0.403  0.00  0.00    +0.033 A 
ATOM      7  C   UNL     1       2.808  -3.022   0.505  0.00  0.00    +0.008 A 
BRANCH   5   8
ATOM      8  N   UNL     1      -0.562  -2.563  -1.074  0.00  0.00    +0.056 N 
ATOM      9  O   UNL     1      -1.723  -2.773  -0.811  0.00  0.00    -0.126 OA
ATOM     10  O   UNL     1      -0.264  -2.057  -2.131  0.00  0.00    -0.126 OA
ENDBRANCH   5   8
ENDBRANCH   1   2
BRANCH   1  12
ATOM     11  N   UNL     1       4.133  -1.592   2.996  0.00  0.00    -0.313 N 
ATOM     12  C   UNL     1       3.862  -2.783   3.565  0.00  0.00    +0.238 C 
ATOM     13  O   UNL     1       3.875  -2.896   4.772  0.00  0.00    -0.273 OA
ATOM     14  H   UNL     1       4.122  -1.502   2.030  0.00  0.00    +0.149 HD
BRANCH  11  15
ATOM     15  C   UNL     1       4.444  -0.432   3.836  0.00  0.00    +0.104 C 
BRANCH  15  16
ATOM     16  C   UNL     1       4.710   0.784   2.948  0.00  0.00    +0.018 C 
BRANCH  16  18
ATOM     17  C   UNL     1       5.301   3.212   2.937  0.00  0.00    +0.004 C 
ATOM     18  C   UNL     1       5.035   1.995   3.825  0.00  0.00    -0.002 C 
ENDBRANCH  16  18
ENDBRANCH  15  16
ENDBRANCH  11  15
ENDBRANCH   1  12
BRANCH   1  19
ATOM     19  N   UNL     1       3.072  -5.078   3.543  0.00  0.00    -0.281 N 
ATOM     20  C   UNL     1       2.114  -4.859   4.465  0.00  0.00    +0.221 C 
ATOM     21  O   UNL     1       1.721  -3.731   4.677  0.00  0.00    -0.275 OA
BRANCH  19  22
ATOM     22  C   UNL     1       3.644  -6.417   3.384  0.00  0.00    +0.030 C 
ATOM     23  C   UNL     1       4.699  -6.393   2.276  0.00  0.00    +0.031 C 
ATOM     24  C   UNL     1       4.294  -6.854   4.698  0.00  0.00    +0.031 C 
ATOM     25  C   UNL     1       2.535  -7.403   3.010  0.00  0.00    +0.031 C 
ENDBRANCH  19  22
BRANCH  20  26
ATOM     26  C   UNL     1       1.530  -6.017   5.234  0.00  0.00    +0.131 C 
BRANCH  26  27
ATOM     27  C   UNL     1       0.624  -5.494   6.318  0.00  0.00    -0.035 A 
ATOM     28  C   UNL     1       1.137  -5.213   7.571  0.00  0.00    +0.008 A 
ATOM     29  C   UNL     1       0.310  -4.732   8.569  0.00  0.00    +0.050 A 
ATOM     30  C   UNL     1      -1.037  -4.531   8.315  0.00  0.00    +0.166 A 
ATOM     31  C   UNL     1      -1.555  -4.814   7.053  0.00  0.00    +0.166 A 
ATOM     32  C   UNL     1      -0.718  -5.290   6.057  0.00  0.00    +0.053 A 
ATOM     33  O   UNL     1      -2.891  -4.535   7.058  0.00  0.00    -0.453 OA
ATOM     34  C   UNL     1      -3.265  -4.468   8.446  0.00  0.00    +0.466 C 
ATOM     35  O   UNL     1      -2.050  -4.075   9.110  0.00  0.00    -0.453 OA
ENDBRANCH  26  27
ENDBRANCH  20  26
ENDBRANCH   1  19
TORSDOF 10
