REMARK  Name = ZINC08789213
REMARK  12 active torsions:
REMARK  status: ('A' for Active; 'I' for Inactive)
REMARK    1  A    between atoms: C_1  and  C_2
REMARK    2  A    between atoms: C_2  and  C_4
REMARK    3  A    between atoms: C_4  and  O_38
REMARK    4  A    between atoms: C_9  and  C_37
REMARK    5  A    between atoms: N_21  and  O_22
REMARK    6  A    between atoms: O_22  and  C_23
REMARK    7  A    between atoms: C_23  and  C_24
REMARK    8  A    between atoms: N_26  and  CA_27
REMARK    9  A    between atoms: CA_27  and  CB_29
REMARK   10  A    between atoms: CA_27  and  C_31
REMARK   11  A    between atoms: CB_29  and  OG_30
REMARK   12  A    between atoms: C_35  and  C_36
REMARK                            x       y       z     vdW  Elec       q    Type
REMARK                         _______ _______ _______ _____ _____    ______ ____
ROOT
ATOM      1  C   UNK A   0      -8.052  -5.487 -10.407  0.00  0.00    +0.129 C 
ATOM      2  C   UNK A   0      -8.367  -4.491 -11.552  0.00  0.00    +0.043 C 
ATOM      3  C   UNK A   0      -8.406  -3.068 -10.911  0.00  0.00    +0.008 C 
ATOM      4  C   UNK A   0      -7.565  -3.250  -9.643  0.00  0.00    +0.002 C 
ATOM      5  C   UNK A   0      -8.023  -4.644  -9.136  0.00  0.00    +0.007 C 
ATOM      6  C   UNK A   0      -7.043  -5.071  -8.060  0.00  0.00    +0.010 C 
ATOM      7  C   UNK A   0      -7.194  -4.082  -6.892  0.00  0.00    +0.005 C 
ATOM      8  C   UNK A   0      -6.954  -2.639  -7.327  0.00  0.00    +0.002 C 
ATOM      9  C   UNK A   0      -7.833  -2.257  -8.527  0.00  0.00    -0.003 C 
ATOM     10  C   UNK A   0      -7.459  -0.846  -8.989  0.00  0.00    +0.008 C 
ATOM     11  C   UNK A   0      -7.815   0.154  -7.886  0.00  0.00    +0.031 C 
ATOM     12  C   UNK A   0      -7.130  -0.271  -6.601  0.00  0.00    -0.062 C 
ATOM     13  C   UNK A   0      -6.460   0.656  -5.925  0.00  0.00    +0.026 C 
ATOM     14  C   UNK A   0      -5.788   0.304  -4.661  0.00  0.00    +0.080 C 
ATOM     15  N   UNK A   0      -4.817   1.016  -4.183  0.00  0.00    -0.089 NA
ATOM     16  C   UNK A   0      -6.291  -0.938  -3.953  0.00  0.00    +0.059 C 
ATOM     17  C   UNK A   0      -6.360  -2.059  -4.983  0.00  0.00    +0.017 C 
ATOM     18  C   UNK A   0      -7.253  -1.695  -6.155  0.00  0.00    -0.007 C 
ATOM     19  C   UNK A   0      -8.700  -1.931  -5.718  0.00  0.00    +0.016 C 
ATOM     20  C   UNK A   0      -9.431  -4.545  -8.546  0.00  0.00    +0.015 C 
ENDROOT
BRANCH   1  22
ATOM     21  C   UNK A   0      -8.830  -7.875  -9.698  0.00  0.00    +0.089 C 
ATOM     22  C   UNK A   0      -9.132  -6.534 -10.314  0.00  0.00    +0.162 C 
ATOM     23  O   UNK A   0     -10.240  -6.297 -10.733  0.00  0.00    -0.295 OA
ENDBRANCH   1  22
BRANCH   1  24
ATOM     24  O   UNK A   0      -6.782  -6.105 -10.621  0.00  0.00    -0.381 OA
ATOM     25  H   UNK A   0      -6.740  -6.654 -11.416  0.00  0.00    +0.211 HD
ENDBRANCH   1  24
BRANCH  15  26
ATOM     26  O   UNK A   0      -4.199   0.644  -2.965  0.00  0.00    -0.384 OA
BRANCH  26  27
ATOM     27  C   UNK A   0      -3.144   1.518  -2.558  0.00  0.00    +0.358 C 
BRANCH  27  28
ATOM     28  C   UNK A   0      -2.561   1.029  -1.257  0.00  0.00    +0.254 C 
ATOM     29  O   UNK A   0      -3.005   0.031  -0.730  0.00  0.00    -0.272 OA
ATOM     30  N   SER A   1      -1.546   1.701  -0.678  0.00  0.00    -0.298 N 
ATOM     31  H   SER A   1      -1.191   2.500  -1.099  0.00  0.00    +0.150 HD
BRANCH  30  32
ATOM     32  CA  SER A   1      -0.980   1.226   0.586  0.00  0.00    +0.212 C 
BRANCH  32  33
ATOM     33  C   SER A   1       0.442   1.710   0.713  0.00  0.00    +0.378 C 
ATOM     34  O   SER A   1       0.931   2.383  -0.163  0.00  0.00    -0.244 OA
ATOM     35  OXT SER A   1       1.164   1.394   1.800  0.00  0.00    -0.244 OA
ENDBRANCH  32  33
BRANCH  32  36
ATOM     36  CB  SER A   1      -1.809   1.768   1.752  0.00  0.00    +0.189 C 
BRANCH  36  37
ATOM     37  OG  SER A   1      -1.694   3.192   1.798  0.00  0.00    -0.393 OA
ATOM     38  H   SER A   1      -2.195   3.604   2.514  0.00  0.00    +0.209 HD
ENDBRANCH  36  37
ENDBRANCH  32  36
ENDBRANCH  30  32
ENDBRANCH  27  28
ENDBRANCH  26  27
ENDBRANCH  15  26
TORSDOF 9
