REMARK  Name = ZINC35763618
REMARK  6 active torsions:
REMARK  status: ('A' for Active; 'I' for Inactive)
REMARK    1  A    between atoms: C_1  and  C_2
REMARK    2  A    between atoms: C_7  and  C_12
REMARK    3  A    between atoms: C_8  and  C_11
REMARK    4  A    between atoms: C_12  and  C_14
REMARK    5  A    between atoms: C_12  and  N_15
REMARK    6  A    between atoms: N_15  and  C_16
REMARK                            x       y       z     vdW  Elec       q    Type
REMARK                         _______ _______ _______ _____ _____    ______ ____
ROOT
ATOM      1  C   UNL     1      -0.620   1.448   0.289  0.00  0.00    +0.067 C 
ATOM      2  C   UNL     1      -0.411  -0.041   0.193  0.00  0.00    +0.062 A 
ATOM      3  C   UNL     1      -0.384  -0.777  -0.982  0.00  0.00    +0.073 A 
ATOM      4  C   UNL     1      -0.168  -2.106  -0.642  0.00  0.00    +0.156 A 
ATOM      5  N   UNL     1      -0.055  -3.222  -1.375  0.00  0.00    -0.236 NA
ATOM      6  C   UNL     1       0.152  -4.384  -0.802  0.00  0.00    +0.120 A 
ATOM      7  C   UNL     1       0.259  -4.475   0.594  0.00  0.00    +0.012 A 
ATOM      8  C   UNL     1       0.147  -3.353   1.345  0.00  0.00    +0.048 A 
ATOM      9  N   UNL     1      -0.068  -2.156   0.725  0.00  0.00    -0.218 N 
ATOM     10  N   UNL     1      -0.219  -0.852   1.209  0.00  0.00    -0.170 NA
ATOM     11  C   UNL     1       0.258  -3.425   2.847  0.00  0.00    +0.066 C 
ENDROOT
BRANCH   7  12
ATOM     12  C   UNL     1       0.496  -5.810   1.252  0.00  0.00    +0.101 C 
ATOM     13  C   UNL     1       1.864  -6.350   0.832  0.00  0.00    +0.033 C 
BRANCH  12  14
ATOM     14  N   UNL     1      -0.548  -6.750   0.839  0.00  0.00    -0.335 N 
ATOM     15  H   UNL     1      -1.013  -6.620  -0.003  0.00  0.00    +0.147 HD
BRANCH  14  16
ATOM     16  C   UNL     1      -0.877  -7.844   1.662  0.00  0.00    +0.065 A 
ATOM     17  C   UNL     1      -1.815  -8.789   1.399  0.00  0.00    +0.127 A 
ATOM     18  N   UNL     1      -1.820  -9.663   2.441  0.00  0.00    -0.283 N 
ATOM     19  H   UNL     1      -2.389 -10.443   2.529  0.00  0.00    +0.188 HD
ATOM     20  N   UNL     1      -0.857  -9.236   3.364  0.00  0.00    -0.180 NA
ATOM     21  C   UNL     1      -0.290  -8.153   2.897  0.00  0.00    +0.157 A 
ENDBRANCH  14  16
ENDBRANCH  12  14
ENDBRANCH   7  12
TORSDOF 3
