REMARK  Name = ZINC39957747
REMARK  3 active torsions:
REMARK  status: ('A' for Active; 'I' for Inactive)
REMARK    1  A    between atoms: C_1  and  C_2
REMARK    2  A    between atoms: C_5  and  C_15
REMARK    3  A    between atoms: C_6  and  C_14
REMARK                            x       y       z     vdW  Elec       q    Type
REMARK                         _______ _______ _______ _____ _____    ______ ____
ROOT
ATOM      1  C   UNL     1      -0.002   1.534   0.026  0.00  0.00    +0.029 C 
ATOM      2  C   UNL     1       0.008   0.004   0.001  0.00  0.00    +0.083 C 
ATOM      3  C   UNL     1       0.800  -0.511  -1.215  0.00  0.00    +0.061 C 
ATOM      4  C   UNL     1       1.936  -1.302  -0.604  0.00  0.00    -0.003 C 
ATOM      5  C   UNL     1       1.827  -1.257   0.719  0.00  0.00    +0.016 C 
ATOM      6  N   UNL     1       0.740  -0.525   1.161  0.00  0.00    -0.270 N 
ATOM      7  C   UNL     1       0.394  -0.321   2.486  0.00  0.00    +0.218 A 
ATOM      8  N   UNL     1       1.057  -0.794   3.562  0.00  0.00    -0.247 N 
ATOM      9  H   UNL     1       1.861  -1.338   3.558  0.00  0.00    +0.192 HD
ATOM     10  N   UNL     1       0.353  -0.342   4.690  0.00  0.00    -0.160 NA
ATOM     11  C   UNL     1      -0.661   0.355   4.253  0.00  0.00    +0.246 A 
ATOM     12  N   UNL     1      -0.636   0.374   2.920  0.00  0.00    -0.201 NA
ATOM     13  C   UNL     1       2.794  -1.941   1.650  0.00  0.00    +0.061 C 
ENDROOT
BRANCH   4  14
ATOM     14  C   UNL     1       2.993  -2.008  -1.355  0.00  0.00    +0.078 A 
ATOM     15  C   UNL     1       2.940  -2.081  -2.720  0.00  0.00    +0.076 A 
ATOM     16  S   UNL     1       4.424  -3.018  -3.062  0.00  0.00    -0.060 S 
ATOM     17  C   UNL     1       4.961  -3.217  -1.369  0.00  0.00    +0.156 A 
ATOM     18  N   UNL     1       4.011  -2.577  -0.712  0.00  0.00    -0.225 NA
ATOM     19  N   UNL     1       6.081  -3.866  -0.877  0.00  0.00    -0.338 N 
ATOM     20  H   UNL     1       6.702  -4.294  -1.488  0.00  0.00    +0.144 HD
ATOM     21  H   UNL     1       6.245  -3.893   0.079  0.00  0.00    +0.144 HD
ENDBRANCH   4  14
TORSDOF 1
