REMARK  Name = ZINC39895281
REMARK  10 active torsions:
REMARK  status: ('A' for Active; 'I' for Inactive)
REMARK    1  A    between atoms: C_1  and  C_2
REMARK    2  A    between atoms: C_2  and  C_3
REMARK    3  A    between atoms: C_6  and  N_9
REMARK    4  A    between atoms: N_9  and  C_10
REMARK    5  A    between atoms: C_11  and  C_29
REMARK    6  A    between atoms: C_15  and  C_22
REMARK    7  A    between atoms: C_16  and  C_20
REMARK    8  A    between atoms: C_17  and  N_19
REMARK    9  A    between atoms: N_31  and  C_32
REMARK   10  A    between atoms: C_32  and  C_33
REMARK                            x       y       z     vdW  Elec       q    Type
REMARK                         _______ _______ _______ _____ _____    ______ ____
ROOT
ATOM      1  C   UNL     1      -6.010  -2.106  -1.139  0.00  0.00    +0.085 A 
ATOM      2  C   UNL     1      -7.338  -2.470  -1.323  0.00  0.00    +0.091 A 
ATOM      3  C   UNL     1      -7.845  -2.549  -2.693  0.00  0.00    +0.095 A 
ATOM      4  C   UNL     1      -6.904  -2.240  -3.692  0.00  0.00    +0.049 A 
ATOM      5  S   UNL     1      -5.419  -1.856  -2.801  0.00  0.00    -0.071 S 
ATOM      6  C   UNL     1      -7.229  -2.269  -5.040  0.00  0.00    +0.019 A 
ATOM      7  C   UNL     1      -8.552  -2.623  -5.393  0.00  0.00    +0.100 A 
ATOM      8  C   UNL     1      -9.453  -2.924  -4.354  0.00  0.00    +0.135 A 
ATOM      9  N   UNL     1      -9.092  -2.880  -3.092  0.00  0.00    -0.230 NA
ENDROOT
BRANCH   6  10
ATOM     10  C   UNL     1      -6.224  -1.939  -6.075  0.00  0.00    -0.015 A 
ATOM     11  C   UNL     1      -5.692  -0.651  -6.150  0.00  0.00    +0.010 A 
ATOM     12  C   UNL     1      -4.756  -0.349  -7.117  0.00  0.00    +0.020 A 
ATOM     13  C   UNL     1      -4.344  -1.321  -8.013  0.00  0.00    +0.041 A 
ATOM     14  C   UNL     1      -4.870  -2.601  -7.945  0.00  0.00    +0.020 A 
ATOM     15  C   UNL     1      -5.802  -2.916  -6.978  0.00  0.00    +0.010 A 
ATOM     16 CL   UNL     1      -3.166  -0.934  -9.228  0.00  0.00    -0.084 Cl
ENDBRANCH   6  10
BRANCH   2  17
ATOM     17  C   UNL     1      -8.203  -2.766  -0.182  0.00  0.00    +0.249 C 
ATOM     18  O   UNL     1      -8.848  -1.875   0.340  0.00  0.00    -0.270 OA
ATOM     19  N   UNL     1      -8.286  -4.025   0.292  0.00  0.00    -0.308 N 
ATOM     20  H   UNL     1      -7.772  -4.735  -0.124  0.00  0.00    +0.149 HD
BRANCH  19  21
ATOM     21  C   UNL     1      -9.153  -4.321   1.435  0.00  0.00    +0.131 C 
BRANCH  21  22
ATOM     22  C   UNL     1      -9.066  -5.789   1.764  0.00  0.00    -0.016 C 
ATOM     23  C   UNL     1      -8.744  -6.171   2.975  0.00  0.00    +0.005 C 
ENDBRANCH  21  22
ENDBRANCH  19  21
ENDBRANCH   2  17
BRANCH   8  24
ATOM     24  N   UNL     1     -10.755  -3.274  -4.672  0.00  0.00    -0.342 N 
ATOM     25  H   UNL     1     -11.036  -3.310  -5.600  0.00  0.00    +0.144 HD
ATOM     26  H   UNL     1     -11.387  -3.484  -3.966  0.00  0.00    +0.144 HD
ENDBRANCH   8  24
BRANCH   1  27
ATOM     27  N   UNL     1      -5.319  -1.967   0.042  0.00  0.00    -0.308 N 
ATOM     28  H   UNL     1      -5.737  -2.217   0.881  0.00  0.00    +0.153 HD
BRANCH  27  32
ATOM     29  C   UNL     1      -1.432  -0.473   0.019  0.00  0.00    -0.048 A 
ATOM     30  C   UNL     1      -2.355  -0.008  -0.900  0.00  0.00    +0.005 A 
ATOM     31  C   UNL     1      -3.645  -0.501  -0.895  0.00  0.00    +0.023 A 
ATOM     32  C   UNL     1      -4.014  -1.466   0.034  0.00  0.00    +0.032 A 
ATOM     33  C   UNL     1      -3.084  -1.931   0.955  0.00  0.00    +0.023 A 
ATOM     34  C   UNL     1      -1.794  -1.437   0.941  0.00  0.00    +0.005 A 
BRANCH  29  36
ATOM     35  C   UNL     1       0.843  -0.783  -0.919  0.00  0.00    +0.009 C 
ATOM     36  C   UNL     1      -0.025   0.068   0.010  0.00  0.00    +0.032 C 
ENDBRANCH  29  36
ENDBRANCH  27  32
ENDBRANCH   1  27
BRANCH   7  37
ATOM     37  C   UNL     1      -8.962  -2.675  -6.764  0.00  0.00    +0.103 C 
ATOM     38  N   UNL     1      -9.287  -2.715  -7.852  0.00  0.00    -0.191 NA
ENDBRANCH   7  37
TORSDOF 9
