REMARK  Name = ZINC39695697
REMARK  8 active torsions:
REMARK  status: ('A' for Active; 'I' for Inactive)
REMARK    1  A    between atoms: C_1  and  C_2
REMARK    2  A    between atoms: C_9  and  C_11
REMARK    3  A    between atoms: C_11  and  C_13
REMARK    4  A    between atoms: C_11  and  N_14
REMARK    5  A    between atoms: C_15  and  C_17
REMARK    6  A    between atoms: C_28  and  C_30
REMARK    7  A    between atoms: C_30  and  C_31
REMARK    8  A    between atoms: C_30  and  C_32
REMARK                            x       y       z     vdW  Elec       q    Type
REMARK                         _______ _______ _______ _____ _____    ______ ____
ROOT
ATOM      1  N   UNL     1       0.293  -7.715   2.146  0.00  0.00    -0.305 N 
ATOM      2  C   UNL     1      -1.032  -7.728   1.904  0.00  0.00    +0.219 C 
ATOM      3  O   UNL     1      -1.750  -6.893   2.412  0.00  0.00    -0.275 OA
ATOM      4  H   UNL     1       0.867  -8.383   1.740  0.00  0.00    +0.149 HD
ENDROOT
BRANCH   2   5
ATOM      5  C   UNL     1      -1.623  -8.782   1.003  0.00  0.00    +0.100 C 
ATOM      6  C   UNL     1      -2.893  -8.243   0.306  0.00  0.00    +0.121 C 
ATOM      7  N   UNL     1      -3.816  -9.402   0.262  0.00  0.00    -0.300 N 
ATOM      8  C   UNL     1      -3.623 -10.077   1.567  0.00  0.00    +0.115 C 
ATOM      9  C   UNL     1      -2.107  -9.985   1.830  0.00  0.00    -0.004 C 
ATOM     10  C   UNL     1      -1.843  -9.746   3.314  0.00  0.00    -0.010 C 
ATOM     11  C   UNL     1      -2.278 -10.979   4.110  0.00  0.00    -0.082 C 
ATOM     12  N   UNL     1      -1.533 -12.154   3.643  0.00  0.00    +0.379 N 
ATOM     13  C   UNL     1      -1.865 -12.432   2.240  0.00  0.00    -0.082 C 
ATOM     14  C   UNL     1      -1.412 -11.260   1.364  0.00  0.00    -0.010 C 
ATOM     15  C   UNL     1      -4.643  -9.761  -0.740  0.00  0.00    +0.218 C 
ATOM     16  O   UNL     1      -5.343 -10.745  -0.625  0.00  0.00    -0.275 OA
ATOM     17  H   UNL     1      -0.543 -11.977   3.724  0.00  0.00    -0.086 HD
ATOM     18  H   UNL     1      -1.777 -12.953   4.209  0.00  0.00    -0.086 HD
BRANCH  15  19
ATOM     19  C   UNL     1      -4.697  -8.941  -2.003  0.00  0.00    +0.069 C 
ATOM     20  C   UNL     1      -5.708  -9.560  -2.970  0.00  0.00    +0.017 C 
ATOM     21  C   UNL     1      -5.126  -7.511  -1.665  0.00  0.00    +0.017 C 
ENDBRANCH  15  19
ENDBRANCH   2   5
BRANCH   1  22
ATOM     22  C   UNL     1       0.868  -6.691   3.022  0.00  0.00    +0.136 C 
ATOM     23  C   UNL     1       0.755  -7.145   4.479  0.00  0.00    +0.036 C 
BRANCH  22  32
ATOM     24  C   UNL     1       7.863  -4.460   1.811  0.00  0.00    +0.044 C 
ATOM     25  C   UNL     1       6.613  -5.300   1.857  0.00  0.00    -0.048 A 
ATOM     26  C   UNL     1       6.632  -6.592   1.351  0.00  0.00    +0.005 A 
ATOM     27  C   UNL     1       5.509  -7.369   1.383  0.00  0.00    +0.030 A 
ATOM     28  C   UNL     1       4.327  -6.863   1.929  0.00  0.00    +0.089 A 
ATOM     29  C   UNL     1       4.307  -5.555   2.442  0.00  0.00    +0.067 A 
ATOM     30  C   UNL     1       5.460  -4.781   2.406  0.00  0.00    +0.031 A 
ATOM     31  N   UNL     1       3.023  -5.346   2.904  0.00  0.00    -0.340 N 
ATOM     32  C   UNL     1       2.319  -6.486   2.671  0.00  0.00    +0.128 A 
ATOM     33  N   UNL     1       3.080  -7.373   2.101  0.00  0.00    -0.231 NA
ATOM     34  H   UNL     1       2.686  -4.536   3.318  0.00  0.00    +0.167 HD
ENDBRANCH  22  32
ENDBRANCH   1  22
TORSDOF 4
