REMARK  Name = ZINC58872074
REMARK  13 active torsions:
REMARK  status: ('A' for Active; 'I' for Inactive)
REMARK    1  A    between atoms: C_1  and  C_2
REMARK    2  A    between atoms: C_2  and  C_3
REMARK    3  A    between atoms: C_3  and  C_4
REMARK    4  A    between atoms: C_5  and  C_33
REMARK    5  A    between atoms: C_6  and  C_24
REMARK    6  A    between atoms: C_12  and  C_13
REMARK    7  A    between atoms: C_18  and  O_19
REMARK    8  A    between atoms: C_27  and  C_30
REMARK    9  A    between atoms: C_30  and  C_31
REMARK   10  A    between atoms: C_30  and  C_32
REMARK   11  A    between atoms: C_33  and  O_35
REMARK   12  A    between atoms: O_35  and  C_36
REMARK   13  A    between atoms: C_36  and  C_37
REMARK                            x       y       z     vdW  Elec       q    Type
REMARK                         _______ _______ _______ _____ _____    ______ ____
ROOT
ATOM      1  C   UNL     1      -2.321  -1.926  -0.217  0.00  0.00    +0.056 C 
ATOM      2  C   UNL     1      -2.673  -2.619   0.908  0.00  0.00    +0.085 C 
ATOM      3  C   UNL     1      -2.586  -4.127   0.871  0.00  0.00    +0.162 C 
ATOM      4  N   UNL     1      -2.119  -4.750  -0.400  0.00  0.00    -0.275 N 
ATOM      5  C   UNL     1      -1.977  -6.062  -0.627  0.00  0.00    +0.268 A 
ATOM      6  O   UNL     1      -2.234  -6.879   0.238  0.00  0.00    -0.266 OA
ATOM      7  C   UNL     1      -1.502  -6.486  -1.951  0.00  0.00    +0.081 A 
ATOM      8  C   UNL     1      -1.278  -7.738  -2.427  0.00  0.00    +0.032 C 
ATOM      9  S   UNL     1      -1.300  -4.909  -2.764  0.00  0.00    -0.046 S 
ATOM     10  C   UNL     1      -1.815  -3.869  -1.411  0.00  0.00    +0.178 A 
ATOM     11  N   UNL     1      -1.920  -2.568  -1.307  0.00  0.00    -0.227 NA
ENDROOT
BRANCH   8  12
ATOM     12  C   UNL     1      -1.342  -8.891  -1.521  0.00  0.00    +0.019 A 
ATOM     13  C   UNL     1      -0.735  -8.832  -0.261  0.00  0.00    +0.031 A 
ATOM     14  C   UNL     1      -0.800  -9.919   0.584  0.00  0.00    +0.042 A 
ATOM     15  C   UNL     1      -1.464 -11.071   0.192  0.00  0.00    +0.023 A 
ATOM     16  C   UNL     1      -2.068 -11.143  -1.049  0.00  0.00    +0.047 A 
ATOM     17  C   UNL     1      -2.019 -10.059  -1.910  0.00  0.00    +0.124 A 
ATOM     18 CL   UNL     1      -0.047  -9.845   2.146  0.00  0.00    -0.084 Cl
BRANCH  17  19
ATOM     19  O   UNL     1      -2.617 -10.127  -3.127  0.00  0.00    -0.506 OA
ATOM     20  H   UNL     1      -2.044 -10.463  -3.829  0.00  0.00    +0.292 HD
ENDBRANCH  17  19
ENDBRANCH   8  12
BRANCH   3  21
ATOM     21  C   UNL     1      -3.954  -4.678   1.181  0.00  0.00    -0.020 A 
ATOM     22  C   UNL     1      -4.919  -4.729   0.192  0.00  0.00    +0.006 A 
ATOM     23  C   UNL     1      -6.173  -5.234   0.476  0.00  0.00    +0.004 A 
ATOM     24  C   UNL     1      -6.463  -5.689   1.749  0.00  0.00    -0.045 A 
ATOM     25  C   UNL     1      -5.498  -5.638   2.738  0.00  0.00    +0.004 A 
ATOM     26  C   UNL     1      -4.242  -5.137   2.452  0.00  0.00    +0.006 A 
BRANCH  24  27
ATOM     27  C   UNL     1      -7.832  -6.239   2.059  0.00  0.00    +0.013 C 
ATOM     28  C   UNL     1      -7.704  -7.691   2.526  0.00  0.00    +0.012 C 
ATOM     29  C   UNL     1      -8.479  -5.403   3.166  0.00  0.00    +0.012 C 
ENDBRANCH  24  27
ENDBRANCH   3  21
BRANCH   2  30
ATOM     30  C   UNL     1      -3.103  -1.948   2.065  0.00  0.00    +0.339 C 
ATOM     31  O   UNL     1      -3.232  -0.737   2.054  0.00  0.00    -0.245 OA
BRANCH  30  32
ATOM     32  O   UNL     1      -3.372  -2.646   3.189  0.00  0.00    -0.462 OA
BRANCH  32  33
ATOM     33  C   UNL     1      -3.805  -1.899   4.328  0.00  0.00    +0.229 C 
ATOM     34  C   UNL     1      -4.060  -2.854   5.497  0.00  0.00    +0.048 C 
ENDBRANCH  32  33
ENDBRANCH  30  32
ENDBRANCH   2  30
BRANCH   1  35
ATOM     35  C   UNL     1      -2.394  -0.421  -0.220  0.00  0.00    +0.056 C 
BRANCH  35  37
ATOM     36  C   UNL     1      -1.189   1.682   0.388  0.00  0.00    +0.004 C 
ATOM     37  C   UNL     1      -1.115   0.154   0.392  0.00  0.00    +0.003 C 
ENDBRANCH  35  37
ENDBRANCH   1  35
TORSDOF 9
