REMARK  Name = ZINC48622754
REMARK  4 active torsions:
REMARK  status: ('A' for Active; 'I' for Inactive)
REMARK    1  A    between atoms: C_1  and  C_2
REMARK    2  A    between atoms: C_8  and  C_16
REMARK    3  A    between atoms: C_12  and  C_13
REMARK    4  A    between atoms: N_19  and  C_21
REMARK                            x       y       z     vdW  Elec       q    Type
REMARK                         _______ _______ _______ _____ _____    ______ ____
ROOT
ATOM      1  C   UNL     1      -0.018   1.503   0.010  0.00  0.00    +0.046 C 
ATOM      2  C   UNL     1       0.002  -0.004   0.002  0.00  0.00    -0.017 A 
ATOM      3  C   UNL     1       0.005  -0.697  -1.210  0.00  0.00    +0.076 A 
ATOM      4  C   UNL     1      -0.009  -0.162  -2.590  0.00  0.00    +0.260 A 
ATOM      5  O   UNL     1      -0.025   1.039  -2.793  0.00  0.00    -0.267 OA
ATOM      6  N   UNL     1      -0.002  -1.034  -3.617  0.00  0.00    -0.306 N 
ATOM      7  H   UNL     1      -0.011  -0.699  -4.527  0.00  0.00    +0.170 HD
ATOM      8  C   UNL     1       0.018  -2.383  -3.400  0.00  0.00    +0.145 A 
ATOM      9  N   UNL     1       0.030  -2.886  -2.183  0.00  0.00    -0.222 NA
ATOM     10  C   UNL     1       0.025  -2.109  -1.112  0.00  0.00    +0.117 A 
ATOM     11  S   UNL     1       0.037  -2.395   0.640  0.00  0.00    -0.064 S 
ATOM     12  C   UNL     1       0.023  -0.694   1.179  0.00  0.00    +0.079 A 
ENDROOT
BRANCH   8  13
ATOM     13  C   UNL     1       0.025  -3.297  -4.557  0.00  0.00    +0.055 A 
ATOM     14  C   UNL     1       0.020  -2.926  -5.920  0.00  0.00    +0.145 A 
ATOM     15  N   UNL     1       0.030  -4.016  -6.636  0.00  0.00    -0.179 NA
ATOM     16  N   UNL     1       0.041  -5.122  -5.779  0.00  0.00    -0.274 N 
ATOM     17  C   UNL     1       0.045  -4.677  -4.510  0.00  0.00    +0.119 A 
ATOM     18  C   UNL     1       0.054  -6.527  -6.193  0.00  0.00    +0.172 C 
ENDBRANCH   8  13
BRANCH  12  19
ATOM     19  C   UNL     1       0.030  -0.168   2.547  0.00  0.00    +0.248 C 
ATOM     20  O   UNL     1       0.015   1.034   2.737  0.00  0.00    -0.270 OA
ATOM     21  N   UNL     1       0.051  -1.016   3.595  0.00  0.00    -0.325 N 
ATOM     22  H   UNL     1       0.063  -1.974   3.443  0.00  0.00    +0.145 HD
ATOM     23  H   UNL     1       0.056  -0.667   4.500  0.00  0.00    +0.145 HD
ENDBRANCH  12  19
TORSDOF 2
