REMARK  Name = ZINC54982262
REMARK  4 active torsions:
REMARK  status: ('A' for Active; 'I' for Inactive)
REMARK    1  A    between atoms: N_6  and  C_21
REMARK    2  A    between atoms: C_11  and  N_12
REMARK    3  A    between atoms: N_12  and  C_13
REMARK    4  A    between atoms: C_14  and  C_19
REMARK                            x       y       z     vdW  Elec       q    Type
REMARK                         _______ _______ _______ _____ _____    ______ ____
ROOT
ATOM      1  C   UNL     1      -0.018   1.513   0.010  0.00  0.00    +0.001 C 
ATOM      2  C   UNL     1       1.357   2.155   0.001  0.00  0.00    +0.003 C 
ATOM      3  C   UNL     1       2.331   1.495  -0.962  0.00  0.00    -0.007 C 
ATOM      4  C   UNL     1       1.929   1.728  -2.415  0.00  0.00    -0.073 C 
ATOM      5  N   UNL     1       0.653   1.095  -2.746  0.00  0.00    +0.382 N 
ATOM      6  C   UNL     1       0.630  -0.328  -2.414  0.00  0.00    -0.073 C 
ATOM      7  C   UNL     1       1.018  -0.594  -0.964  0.00  0.00    -0.007 C 
ATOM      8  C   UNL     1       0.002  -0.004   0.002  0.00  0.00    +0.003 C 
ATOM      9  C   UNL     1       2.406  -0.009  -0.693  0.00  0.00    +0.074 C 
ATOM     10  H   UNL     1      -0.104   1.575  -2.292  0.00  0.00    -0.081 HD
ENDROOT
BRANCH   5  11
ATOM     11  C   UNL     1       0.438   1.231  -4.193  0.00  0.00    -0.069 C 
ATOM     12  C   UNL     1      -0.691   2.155  -4.655  0.00  0.00    -0.017 C 
ATOM     13  C   UNL     1      -0.847   0.638  -4.774  0.00  0.00    -0.017 C 
ENDBRANCH   5  11
BRANCH   9  14
ATOM     14  N   UNL     1       2.805  -0.261   0.690  0.00  0.00    -0.333 N 
ATOM     15  H   UNL     1       2.634   0.406   1.373  0.00  0.00    +0.147 HD
BRANCH  14  16
ATOM     16  C   UNL     1       3.427  -1.449   1.025  0.00  0.00    +0.105 A 
ATOM     17  C   UNL     1       3.874  -1.875   2.277  0.00  0.00    +0.118 A 
ATOM     18  C   UNL     1       4.465  -3.140   2.276  0.00  0.00    +0.157 A 
ATOM     19  N   UNL     1       4.533  -3.770   1.137  0.00  0.00    -0.196 NA
ATOM     20  S   UNL     1       3.824  -2.739   0.028  0.00  0.00    +0.029 S 
ATOM     21 CL   UNL     1       5.084  -3.847   3.736  0.00  0.00    -0.060 Cl
BRANCH  17  22
ATOM     22  C   UNL     1       3.738  -1.082   3.462  0.00  0.00    +0.105 C 
ATOM     23  N   UNL     1       3.631  -0.453   4.401  0.00  0.00    -0.191 NA
ENDBRANCH  17  22
ENDBRANCH  14  16
ENDBRANCH   9  14
TORSDOF 4
