REMARK  Name = ZINC12541398
REMARK  10 active torsions:
REMARK  status: ('A' for Active; 'I' for Inactive)
REMARK    1  A    between atoms: C_1  and  C_2
REMARK    2  A    between atoms: C_5  and  C_9
REMARK    3  A    between atoms: C_7  and  C_8
REMARK    4  A    between atoms: C_18  and  C_21
REMARK    5  A    between atoms: C_21  and  O_23
REMARK    6  A    between atoms: O_23  and  C_24
REMARK    7  A    between atoms: C_24  and  C_25
REMARK    8  A    between atoms: N_27  and  C_28
REMARK    9  A    between atoms: C_29  and  C_39
REMARK   10  A    between atoms: C_34  and  C_38
REMARK                            x       y       z     vdW  Elec       q    Type
REMARK                         _______ _______ _______ _____ _____    ______ ____
ROOT
ATOM      1  C   UNL     1       0.076  -6.802  -2.899  0.00  0.00    +0.314 C 
ATOM      2  O   UNL     1       0.061  -6.012  -3.813  0.00  0.00    -0.250 OA
ENDROOT
BRANCH   1  10
ATOM      3  C   UNL     1       0.059  -4.275  -0.021  0.00  0.00    -0.003 C 
ATOM      4  C   UNL     1       1.319  -4.773   0.690  0.00  0.00    +0.015 C 
ATOM      5  C   UNL     1       1.339  -6.303   0.682  0.00  0.00    -0.009 C 
ATOM      6  C   UNL     1       0.100  -6.833   1.407  0.00  0.00    +0.007 C 
ATOM      7  C   UNL     1      -1.159  -6.335   0.695  0.00  0.00    -0.009 C 
ATOM      8  C   UNL     1      -1.179  -4.805   0.704  0.00  0.00    +0.015 C 
ATOM      9  C   UNL     1      -1.161  -6.837  -0.750  0.00  0.00    +0.021 C 
ATOM     10  C   UNL     1       0.078  -6.307  -1.475  0.00  0.00    +0.069 C 
ATOM     11  C   UNL     1       1.337  -6.805  -0.764  0.00  0.00    +0.021 C 
ATOM     12  C   UNL     1       0.058  -4.777  -1.467  0.00  0.00    +0.029 C 
BRANCH   3  17
ATOM     13  C   UNL     1      -0.018   1.503   0.010  0.00  0.00    +0.044 C 
ATOM     14  C   UNL     1       0.002  -0.004   0.002  0.00  0.00    -0.048 A 
ATOM     15  C   UNL     1       0.006  -0.689  -1.199  0.00  0.00    +0.004 A 
ATOM     16  C   UNL     1       0.025  -2.071  -1.207  0.00  0.00    +0.004 A 
ATOM     17  C   UNL     1       0.040  -2.768  -0.013  0.00  0.00    -0.041 A 
ATOM     18  C   UNL     1       0.037  -2.084   1.188  0.00  0.00    +0.007 A 
ATOM     19  C   UNL     1       0.023  -0.702   1.195  0.00  0.00    -0.047 A 
ATOM     20  C   UNL     1       0.025   0.045   2.504  0.00  0.00    +0.044 C 
ENDBRANCH   3  17
ENDBRANCH   1  10
BRANCH   1  21
ATOM     21  O   UNL     1       0.092  -8.120  -3.151  0.00  0.00    -0.455 OA
BRANCH  21  22
ATOM     22  C   UNL     1       0.090  -8.518  -4.524  0.00  0.00    +0.328 C 
BRANCH  22  23
ATOM     23  C   UNL     1       0.109 -10.022  -4.611  0.00  0.00    +0.255 C 
ATOM     24  O   UNL     1       0.123 -10.688  -3.597  0.00  0.00    -0.272 OA
ATOM     25  N   UNL     1       0.110 -10.627  -5.815  0.00  0.00    -0.276 N 
ATOM     26  H   UNL     1       0.099 -10.095  -6.626  0.00  0.00    +0.155 HD
BRANCH  25  27
ATOM     27  C   UNL     1       0.127 -12.013  -5.895  0.00  0.00    +0.090 A 
ATOM     28  C   UNL     1       0.137 -12.800  -7.035  0.00  0.00    +0.084 A 
ATOM     29  C   UNL     1       0.156 -14.240  -6.849  0.00  0.00    -0.018 A 
ATOM     30  C   UNL     1       0.161 -14.629  -5.555  0.00  0.00    -0.004 A 
ATOM     31  S   UNL     1       0.149 -13.120  -4.633  0.00  0.00    -0.077 S 
ATOM     32  C   UNL     1       0.178 -16.035  -5.039  0.00  0.00    +0.046 C 
ATOM     33  C   UNL     1      -0.192 -16.977  -6.194  0.00  0.00    -0.009 C 
ATOM     34  C   UNL     1       0.639 -16.603  -7.425  0.00  0.00    +0.008 C 
ATOM     35  C   UNL     1       0.170 -15.256  -7.981  0.00  0.00    +0.037 C 
ATOM     36  C   UNL     1       0.105 -18.423  -5.792  0.00  0.00    +0.008 C 
BRANCH  28  37
ATOM     37  C   UNL     1       0.128 -12.217  -8.343  0.00  0.00    +0.102 C 
ATOM     38  N   UNL     1       0.121 -11.755  -9.381  0.00  0.00    -0.191 NA
ENDBRANCH  28  37
ENDBRANCH  25  27
ENDBRANCH  22  23
ENDBRANCH  21  22
ENDBRANCH   1  21
TORSDOF 7
