REMARK  Name = ZINC12882786
REMARK  6 active torsions:
REMARK  status: ('A' for Active; 'I' for Inactive)
REMARK    1  A    between atoms: C_1  and  C_2
REMARK    2  A    between atoms: C_16  and  C_18
REMARK    3  A    between atoms: C_18  and  C_19
REMARK    4  A    between atoms: N_27  and  C_30
REMARK    5  A    between atoms: C_30  and  C_31
REMARK    6  A    between atoms: C_31  and  C_32
REMARK                            x       y       z     vdW  Elec       q    Type
REMARK                         _______ _______ _______ _____ _____    ______ ____
ROOT
ATOM      1  C   UNL     1      -5.589  -0.794   3.324  0.00  0.00    +0.047 C 
ATOM      2  C   UNL     1      -4.441  -0.920   2.356  0.00  0.00    -0.011 A 
ATOM      3  C   UNL     1      -4.074  -2.164   1.882  0.00  0.00    +0.046 A 
ATOM      4  C   UNL     1      -3.020  -2.289   0.994  0.00  0.00    +0.020 A 
ATOM      5  C   UNL     1      -2.332  -1.163   0.579  0.00  0.00    +0.006 A 
ATOM      6  C   UNL     1      -2.694   0.079   1.050  0.00  0.00    -0.027 A 
ATOM      7  C   UNL     1      -3.753   0.218   1.943  0.00  0.00    +0.040 A 
ATOM      8  N   UNL     1      -3.932   1.562   2.276  0.00  0.00    -0.286 N 
ATOM      9  C   UNL     1      -3.044   2.362   1.653  0.00  0.00    +0.211 C 
ATOM     10  O   UNL     1      -2.962   3.568   1.752  0.00  0.00    -0.277 OA
ATOM     11  C   UNL     1      -2.174   1.468   0.812  0.00  0.00    +0.050 C 
ATOM     12  C   UNL     1      -2.244   1.853  -0.670  0.00  0.00    +0.088 C 
ATOM     13  C   UNL     1      -0.804   1.619  -1.206  0.00  0.00    +0.073 C 
ATOM     14  C   UNL     1      -0.013   1.086   0.008  0.00  0.00    -0.053 C 
ATOM     15  C   UNL     1      -0.968   0.508  -2.218  0.00  0.00    +0.224 C 
ATOM     16  O   UNL     1      -0.075   0.026  -2.881  0.00  0.00    -0.275 OA
ATOM     17  N   UNL     1      -2.272   0.145  -2.252  0.00  0.00    -0.241 N 
ATOM     18  C   UNL     1      -3.067   0.836  -1.427  0.00  0.00    +0.225 C 
ATOM     19  O   UNL     1      -4.262   0.671  -1.305  0.00  0.00    -0.275 OA
ATOM     20 CL   UNL     1      -4.937  -3.577   2.404  0.00  0.00    -0.083 Cl
ATOM     21  H   UNL     1      -4.616   1.883   2.884  0.00  0.00    +0.155 HD
ATOM     22  N   UNL     1      -0.766   1.574   1.165  0.00  0.00    +0.394 N 
ATOM     23  H   UNL     1      -0.562   0.998   1.990  0.00  0.00    -0.083 HD
ATOM     24  H   UNL     1      -0.521   2.552   1.361  0.00  0.00    -0.083 HD
ENDROOT
BRANCH  14  25
ATOM     25  C   UNL     1       1.415   1.637  -0.003  0.00  0.00    +0.020 C 
BRANCH  25  26
ATOM     26  C   UNL     1       2.193   1.038   1.141  0.00  0.00    -0.049 A 
ATOM     27  C   UNL     1       2.211   1.669   2.370  0.00  0.00    +0.003 A 
ATOM     28  C   UNL     1       2.921   1.118   3.420  0.00  0.00    +0.000 A 
ATOM     29  C   UNL     1       3.621  -0.060   3.238  0.00  0.00    +0.000 A 
ATOM     30  C   UNL     1       3.607  -0.689   2.007  0.00  0.00    +0.000 A 
ATOM     31  C   UNL     1       2.893  -0.140   0.958  0.00  0.00    +0.003 A 
ENDBRANCH  25  26
ENDBRANCH  14  25
BRANCH  17  32
ATOM     32  C   UNL     1      -2.771  -0.915  -3.130  0.00  0.00    +0.121 C 
BRANCH  32  33
ATOM     33  C   UNL     1      -3.180  -0.313  -4.476  0.00  0.00    +0.054 C 
BRANCH  33  34
ATOM     34  C   UNL     1      -3.694  -1.404  -5.379  0.00  0.00    -0.046 A 
ATOM     35  C   UNL     1      -2.822  -2.078  -6.214  0.00  0.00    +0.004 A 
ATOM     36  C   UNL     1      -3.293  -3.081  -7.040  0.00  0.00    +0.000 A 
ATOM     37  C   UNL     1      -4.637  -3.405  -7.037  0.00  0.00    +0.000 A 
ATOM     38  C   UNL     1      -5.510  -2.728  -6.206  0.00  0.00    +0.000 A 
ATOM     39  C   UNL     1      -5.038  -1.727  -5.377  0.00  0.00    +0.004 A 
ENDBRANCH  33  34
ENDBRANCH  32  33
ENDBRANCH  17  32
TORSDOF 5
