REMARK  Name = ZINC39534010
REMARK  10 active torsions:
REMARK  status: ('A' for Active; 'I' for Inactive)
REMARK    1  A    between atoms: C_1  and  S_2
REMARK    2  A    between atoms: S_2  and  C_3
REMARK    3  A    between atoms: N_6  and  C_10
REMARK    4  A    between atoms: C_10  and  C_12
REMARK    5  A    between atoms: C_10  and  C_21
REMARK    6  A    between atoms: C_12  and  N_13
REMARK    7  A    between atoms: N_13  and  C_14
REMARK    8  A    between atoms: C_19  and  O_20
REMARK    9  A    between atoms: C_24  and  C_27
REMARK   10  A    between atoms: C_32  and  O_33
REMARK                            x       y       z     vdW  Elec       q    Type
REMARK                         _______ _______ _______ _____ _____    ______ ____
ROOT
ATOM      1  C   UNL     1       3.588  -2.920  -2.229  0.00  0.00    -0.020 C 
ENDROOT
BRANCH   1   4
ATOM      2  C   UNL     1       1.239  -0.093  -1.468  0.00  0.00    +0.095 C 
ATOM      3  C   UNL     1       2.138  -1.305  -1.210  0.00  0.00    -0.048 C 
ATOM      4  N   UNL     1       2.712  -1.769  -2.480  0.00  0.00    +0.388 N 
ATOM      5  C   UNL     1       1.631  -2.166  -3.391  0.00  0.00    -0.062 C 
ATOM      6  C   UNL     1       0.728  -0.962  -3.668  0.00  0.00    +0.063 C 
ATOM      7  N   UNL     1       0.168  -0.471  -2.401  0.00  0.00    -0.308 NA
ATOM      8  H   UNL     1      -0.446  -1.157  -1.987  0.00  0.00    +0.123 HD
ATOM      9  H   UNL     1       3.248  -1.023  -2.899  0.00  0.00    -0.081 HD
BRANCH   2  11
ATOM     10  C   UNL     1       0.705   2.268   0.053  0.00  0.00    +0.086 C 
ATOM     11  S   UNL     1       0.511   0.465   0.097  0.00  0.00    -0.147 S 
ENDBRANCH   2  11
ENDBRANCH   1   4
BRANCH   1  12
ATOM     12  C   UNL     1       4.676  -2.523  -1.264  0.00  0.00    -0.059 A 
ATOM     13  C   UNL     1       5.269  -1.278  -1.369  0.00  0.00    +0.002 A 
ATOM     14  C   UNL     1       6.266  -0.909  -0.488  0.00  0.00    +0.009 A 
ATOM     15  C   UNL     1       6.674  -1.794   0.508  0.00  0.00    -0.014 A 
ATOM     16  C   UNL     1       6.072  -3.047   0.610  0.00  0.00    +0.009 A 
ATOM     17  C   UNL     1       5.073  -3.403  -0.273  0.00  0.00    +0.002 A 
BRANCH  15  18
ATOM     18  C   UNL     1       7.744  -1.403   1.457  0.00  0.00    +0.024 A 
ATOM     19  C   UNL     1       8.944  -0.878   0.982  0.00  0.00    +0.012 A 
ATOM     20  C   UNL     1       9.937  -0.516   1.869  0.00  0.00    +0.001 A 
ATOM     21  C   UNL     1       9.746  -0.673   3.230  0.00  0.00    +0.004 A 
ATOM     22  C   UNL     1       8.561  -1.193   3.713  0.00  0.00    +0.046 A 
ATOM     23  C   UNL     1       7.553  -1.555   2.834  0.00  0.00    +0.125 A 
BRANCH  23  24
ATOM     24  O   UNL     1       6.384  -2.061   3.307  0.00  0.00    -0.506 OA
ATOM     25  H   UNL     1       6.382  -3.023   3.401  0.00  0.00    +0.292 HD
ENDBRANCH  23  24
ENDBRANCH  15  18
ENDBRANCH   1  12
BRANCH   1  26
ATOM     26  C   UNL     1       4.218  -3.378  -3.546  0.00  0.00    +0.091 C 
BRANCH  26  27
ATOM     27  N   UNL     1       5.029  -4.575  -3.309  0.00  0.00    -0.342 N 
ATOM     28  H   UNL     1       5.037  -4.990  -2.433  0.00  0.00    +0.146 HD
BRANCH  27  29
ATOM     29  C   UNL     1       5.794  -5.119  -4.348  0.00  0.00    +0.069 A 
ATOM     30  C   UNL     1       5.790  -4.523  -5.601  0.00  0.00    +0.026 A 
ATOM     31  C   UNL     1       6.546  -5.061  -6.625  0.00  0.00    +0.002 A 
ATOM     32  C   UNL     1       7.308  -6.194  -6.404  0.00  0.00    +0.004 A 
ATOM     33  C   UNL     1       7.318  -6.793  -5.157  0.00  0.00    +0.047 A 
ATOM     34  C   UNL     1       6.567  -6.256  -4.125  0.00  0.00    +0.138 A 
BRANCH  34  35
ATOM     35  O   UNL     1       6.579  -6.842  -2.897  0.00  0.00    -0.505 OA
ATOM     36  H   UNL     1       5.901  -7.520  -2.778  0.00  0.00    +0.292 HD
ENDBRANCH  34  35
ENDBRANCH  27  29
ENDBRANCH  26  27
ENDBRANCH   1  26
TORSDOF 9
