REMARK  Name = ZINC16393529
REMARK  11 active torsions:
REMARK  status: ('A' for Active; 'I' for Inactive)
REMARK    1  A    between atoms: C_1  and  C_2
REMARK    2  A    between atoms: C_2  and  O_3
REMARK    3  A    between atoms: O_3  and  C_4
REMARK    4  A    between atoms: C_4  and  C_6
REMARK    5  A    between atoms: C_8  and  C_35
REMARK    6  A    between atoms: C_15  and  C_26
REMARK    7  A    between atoms: C_17  and  C_21
REMARK    8  A    between atoms: C_18  and  C_20
REMARK    9  A    between atoms: C_21  and  O_23
REMARK   10  A    between atoms: O_23  and  C_24
REMARK   11  A    between atoms: C_24  and  C_25
REMARK                            x       y       z     vdW  Elec       q    Type
REMARK                         _______ _______ _______ _____ _____    ______ ____
ROOT
ATOM      1  C   UNL     1       1.657   1.856  -0.094  0.00  0.00    +0.179 C 
ATOM      2  C   UNL     1       0.266   1.214  -0.127  0.00  0.00    +0.082 C 
ATOM      3  C   UNL     1      -0.478   1.601   1.153  0.00  0.00    +0.063 C 
ATOM      4  C   UNL     1      -0.569   3.104   1.251  0.00  0.00    +0.016 C 
ATOM      5  C   UNL     1       0.391   3.895   0.726  0.00  0.00    +0.025 C 
ATOM      6  C   UNL     1       1.504   3.344   0.066  0.00  0.00    +0.176 C 
ATOM      7  O   UNL     1       2.358   4.084  -0.383  0.00  0.00    -0.291 OA
ATOM      8  C   UNL     1       0.295   5.396   0.831  0.00  0.00    +0.092 C 
ATOM      9  C   UNL     1      -0.684   5.800   1.893  0.00  0.00    +0.065 C 
ATOM     10  C   UNL     1      -1.597   4.934   2.366  0.00  0.00    +0.016 C 
ATOM     11  N   UNL     1      -1.647   3.653   1.891  0.00  0.00    -0.321 N 
ATOM     12  C   UNL     1      -2.571   5.378   3.427  0.00  0.00    +0.061 C 
ATOM     13  H   UNL     1      -2.565   3.063   2.027  0.00  0.00    +0.152 HD
ENDROOT
BRANCH   8  14
ATOM     14  C   UNL     1      -0.152   5.957  -0.494  0.00  0.00    -0.032 A 
ATOM     15  C   UNL     1      -1.369   5.576  -1.029  0.00  0.00    +0.008 A 
ATOM     16  C   UNL     1      -1.784   6.088  -2.244  0.00  0.00    +0.050 A 
ATOM     17  C   UNL     1      -0.981   6.986  -2.929  0.00  0.00    +0.166 A 
ATOM     18  C   UNL     1       0.244   7.370  -2.390  0.00  0.00    +0.167 A 
ATOM     19  C   UNL     1       0.652   6.856  -1.169  0.00  0.00    +0.054 A 
ATOM     20  O   UNL     1       0.840   8.253  -3.244  0.00  0.00    -0.453 OA
ATOM     21  C   UNL     1      -0.212   8.718  -4.111  0.00  0.00    +0.466 C 
ATOM     22  O   UNL     1      -1.154   7.628  -4.121  0.00  0.00    -0.453 OA
ENDBRANCH   8  14
BRANCH   2  23
ATOM     23  C   UNL     1      -0.493   1.712  -1.330  0.00  0.00    +0.109 A 
ATOM     24  C   UNL     1      -0.976   0.948  -2.326  0.00  0.00    +0.045 A 
ATOM     25  C   UNL     1      -1.616   1.820  -3.237  0.00  0.00    +0.041 A 
ATOM     26  C   UNL     1      -1.478   3.065  -2.747  0.00  0.00    +0.195 A 
ATOM     27  O   UNL     1      -0.797   2.993  -1.591  0.00  0.00    -0.467 OA
ENDBRANCH   2  23
BRANCH   1  28
ATOM     28  C   UNL     1       2.381   1.557  -1.381  0.00  0.00    +0.318 C 
ATOM     29  O   UNL     1       1.843   0.898  -2.239  0.00  0.00    -0.250 OA
BRANCH  28  30
ATOM     30  O   UNL     1       3.625   2.023  -1.575  0.00  0.00    -0.464 OA
BRANCH  30  32
ATOM     31  C   UNL     1       5.663   2.309  -2.877  0.00  0.00    +0.048 C 
ATOM     32  C   UNL     1       4.262   1.696  -2.839  0.00  0.00    +0.229 C 
ENDBRANCH  30  32
ENDBRANCH  28  30
ENDBRANCH   1  28
BRANCH   9  33
ATOM     33  C   UNL     1      -0.646   7.117   2.407  0.00  0.00    +0.338 C 
ATOM     34  O   UNL     1      -1.500   7.490   3.190  0.00  0.00    -0.245 OA
BRANCH  33  35
ATOM     35  O   UNL     1       0.337   7.961   2.029  0.00  0.00    -0.462 OA
BRANCH  35  36
ATOM     36  C   UNL     1       0.314   9.276   2.588  0.00  0.00    +0.229 C 
ATOM     37  C   UNL     1       1.497  10.081   2.046  0.00  0.00    +0.048 C 
ENDBRANCH  35  36
ENDBRANCH  33  35
ENDBRANCH   9  33
TORSDOF 8
