REMARK  Name = ZINC02396848
REMARK  9 active torsions:
REMARK  status: ('A' for Active; 'I' for Inactive)
REMARK    1  A    between atoms: C_1  and  C_2
REMARK    2  A    between atoms: C_5  and  S_8
REMARK    3  A    between atoms: S_8  and  N_11
REMARK    4  A    between atoms: N_11  and  C_12
REMARK    5  A    between atoms: C_12  and  C_14
REMARK    6  A    between atoms: C_12  and  C_20
REMARK    7  A    between atoms: C_20  and  O_22
REMARK    8  A    between atoms: O_22  and  C_23
REMARK    9  A    between atoms: C_30  and  C_35
REMARK                            x       y       z     vdW  Elec       q    Type
REMARK                         _______ _______ _______ _____ _____    ______ ____
ROOT
ATOM      1  C   UNL     1      -4.860   1.687   0.258  0.00  0.00    +0.215 C 
ENDROOT
BRANCH   1   2
ATOM      2  C   UNL     1      -5.080   0.831  -0.962  0.00  0.00    -0.018 A 
ATOM      3  C   UNL     1      -5.545   1.401  -2.132  0.00  0.00    +0.006 A 
ATOM      4  C   UNL     1      -5.743   0.616  -3.253  0.00  0.00    +0.000 A 
ATOM      5  C   UNL     1      -5.485  -0.741  -3.200  0.00  0.00    +0.000 A 
ATOM      6  C   UNL     1      -5.025  -1.312  -2.029  0.00  0.00    +0.000 A 
ATOM      7  C   UNL     1      -4.823  -0.527  -0.909  0.00  0.00    +0.006 A 
ENDBRANCH   1   2
BRANCH   1   8
ATOM      8  N   UNL     1      -5.942   2.668   0.368  0.00  0.00    -0.172 NA
ATOM      9  H   UNL     1      -5.887   3.507  -0.116  0.00  0.00    +0.149 HD
BRANCH   8  10
ATOM     10  S   UNL     1      -7.259   2.346   1.319  0.00  0.00    +0.059 S 
ATOM     11  O   UNL     1      -8.105   3.484   1.240  0.00  0.00    -0.153 OA
ATOM     12  O   UNL     1      -7.702   1.041   0.970  0.00  0.00    -0.153 OA
BRANCH  10  17
ATOM     13  C   UNL     1      -5.311   2.039   7.021  0.00  0.00    +0.044 C 
ATOM     14  C   UNL     1      -5.798   2.116   5.597  0.00  0.00    -0.050 A 
ATOM     15  C   UNL     1      -6.214   3.325   5.073  0.00  0.00    +0.005 A 
ATOM     16  C   UNL     1      -6.661   3.395   3.767  0.00  0.00    +0.029 A 
ATOM     17  C   UNL     1      -6.690   2.256   2.984  0.00  0.00    +0.105 A 
ATOM     18  C   UNL     1      -6.278   1.046   3.509  0.00  0.00    +0.029 A 
ATOM     19  C   UNL     1      -5.827   0.977   4.814  0.00  0.00    +0.005 A 
ENDBRANCH  10  17
ENDBRANCH   8  10
ENDBRANCH   1   8
BRANCH   1  20
ATOM     20  C   UNL     1      -3.541   2.406   0.136  0.00  0.00    +0.336 C 
ATOM     21  O   UNL     1      -3.508   3.613   0.140  0.00  0.00    -0.248 OA
BRANCH  20  22
ATOM     22  O   UNL     1      -2.402   1.703   0.022  0.00  0.00    -0.423 OA
BRANCH  22  23
ATOM     23  C   UNL     1      -1.240   2.407   0.032  0.00  0.00    +0.153 A 
ATOM     24  C   UNL     1      -0.617   2.721  -1.164  0.00  0.00    +0.094 A 
ATOM     25  C   UNL     1       0.573   3.434  -1.156  0.00  0.00    +0.143 A 
ATOM     26  C   UNL     1       1.129   3.836   0.073  0.00  0.00    +0.022 A 
ATOM     27  C   UNL     1       0.484   3.515   1.272  0.00  0.00    +0.035 A 
ATOM     28  C   UNL     1      -0.687   2.812   1.246  0.00  0.00    +0.084 A 
ATOM     29 CL   UNL     1      -1.488   2.414   2.734  0.00  0.00    -0.080 Cl
ATOM     30  C   UNL     1       2.385   4.589   0.071  0.00  0.00    -0.033 A 
ATOM     31  C   UNL     1       2.963   4.869  -1.126  0.00  0.00    +0.096 A 
ATOM     32  C   UNL     1       2.350   4.436  -2.320  0.00  0.00    +0.337 A 
ATOM     33  O   UNL     1       2.879   4.694  -3.386  0.00  0.00    -0.245 OA
ATOM     34  O   UNL     1       1.198   3.746  -2.311  0.00  0.00    -0.422 OA
ATOM     35  C   UNL     1       3.019   5.040   1.361  0.00  0.00    +0.045 C 
ENDBRANCH  22  23
ENDBRANCH  20  22
ENDBRANCH   1  20
TORSDOF 7
