REMARK  Name = ZINC12572877
REMARK  9 active torsions:
REMARK  status: ('A' for Active; 'I' for Inactive)
REMARK    1  A    between atoms: C_5  and  N_7
REMARK    2  A    between atoms: C_8  and  C_10
REMARK    3  A    between atoms: C_10  and  C_11
REMARK    4  A    between atoms: C_11  and  C_12
REMARK    5  A    between atoms: N_14  and  N_15
REMARK    6  A    between atoms: N_15  and  C_16
REMARK    7  A    between atoms: C_16  and  N_18
REMARK    8  A    between atoms: C_19  and  C_21
REMARK    9  A    between atoms: C_22  and  C_23
REMARK                            x       y       z     vdW  Elec       q    Type
REMARK                         _______ _______ _______ _____ _____    ______ ____
ROOT
ATOM      1  C   UNL     1       3.751   1.771   0.011  0.00  0.00    +0.230 C 
ATOM      2  O   UNL     1       3.735   2.983   0.022  0.00  0.00    -0.274 OA
ATOM      3  N   UNL     1       4.927   1.112   0.003  0.00  0.00    -0.235 N 
ATOM      4  H   UNL     1       4.940   0.142  -0.005  0.00  0.00    +0.173 HD
ENDROOT
BRANCH   3   5
ATOM      5  N   UNL     1       6.131   1.829   0.006  0.00  0.00    -0.246 N 
ATOM      6  H   UNL     1       6.119   2.799   0.015  0.00  0.00    +0.172 HD
BRANCH   5   7
ATOM      7  C   UNL     1       7.307   1.170  -0.002  0.00  0.00    +0.153 C 
ATOM      8  S   UNL     1       8.778   2.046   0.002  0.00  0.00    -0.017 S 
BRANCH   7   9
ATOM      9  N   UNL     1       7.325  -0.177  -0.014  0.00  0.00    -0.263 N 
ATOM     10  C   UNL     1       8.501  -0.836  -0.022  0.00  0.00    +0.242 C 
ATOM     11  O   UNL     1       9.547  -0.213  -0.019  0.00  0.00    -0.270 OA
ATOM     12  H   UNL     1       6.492  -0.673  -0.016  0.00  0.00    +0.157 HD
BRANCH  10  13
ATOM     13  C   UNL     1       8.520  -2.250  -0.034  0.00  0.00    +0.071 C 
ATOM     14  C   UNL     1       9.704  -2.913  -0.042  0.00  0.00    +0.051 C 
BRANCH  14  15
ATOM     15  C   UNL     1       9.722  -4.328  -0.054  0.00  0.00    +0.128 A 
ATOM     16  C   UNL     1      10.848  -5.126  -0.070  0.00  0.00    +0.049 A 
ATOM     17  C   UNL     1      10.395  -6.454  -0.075  0.00  0.00    +0.042 A 
ATOM     18  C   UNL     1       9.044  -6.416  -0.072  0.00  0.00    +0.195 A 
ATOM     19  O   UNL     1       8.643  -5.137  -0.059  0.00  0.00    -0.464 OA
ENDBRANCH  14  15
ENDBRANCH  10  13
ENDBRANCH   7   9
ENDBRANCH   5   7
ENDBRANCH   3   5
BRANCH   1  20
ATOM     20  C   UNL     1       2.456   1.000   0.008  0.00  0.00    +0.106 C 
BRANCH  20  21
ATOM     21  C   UNL     1       1.280   1.979   0.019  0.00  0.00    +0.105 C 
BRANCH  21  23
ATOM     22  N   UNL     1      -1.191   1.867   0.018  0.00  0.00    -0.284 N 
ATOM     23  C   UNL     1      -0.015   1.208   0.015  0.00  0.00    +0.218 C 
ATOM     24  O   UNL     1       0.001  -0.005   0.005  0.00  0.00    -0.275 OA
ATOM     25  H   UNL     1      -1.205   2.834   0.092  0.00  0.00    +0.155 HD
BRANCH  22  30
ATOM     26  C   UNL     1      -3.698  -0.796   0.399  0.00  0.00    +0.002 A 
ATOM     27  C   UNL     1      -4.766  -0.253  -0.291  0.00  0.00    +0.002 A 
ATOM     28  C   UNL     1      -4.650   0.993  -0.880  0.00  0.00    +0.022 A 
ATOM     29  C   UNL     1      -3.466   1.699  -0.779  0.00  0.00    +0.062 A 
ATOM     30  C   UNL     1      -2.392   1.155  -0.086  0.00  0.00    +0.052 A 
ATOM     31  C   UNL     1      -2.510  -0.099   0.499  0.00  0.00    +0.025 A 
ATOM     32 CL   UNL     1      -3.320   3.263  -1.519  0.00  0.00    -0.082 Cl
ENDBRANCH  22  30
ENDBRANCH  21  23
ENDBRANCH  20  21
ENDBRANCH   1  20
TORSDOF 9
