REMARK  Name = ZINC12876853
REMARK  7 active torsions:
REMARK  status: ('A' for Active; 'I' for Inactive)
REMARK    1  A    between atoms: C_1  and  C_2
REMARK    2  A    between atoms: C_5  and  C_8
REMARK    3  A    between atoms: C_9  and  C_19
REMARK    4  A    between atoms: C_11  and  C_13
REMARK    5  A    between atoms: C_19  and  C_20
REMARK    6  A    between atoms: C_25  and  C_28
REMARK    7  A    between atoms: C_30  and  C_34
REMARK                            x       y       z     vdW  Elec       q    Type
REMARK                         _______ _______ _______ _____ _____    ______ ____
ROOT
ATOM      1  C   UNL     1       3.641   6.821   1.503  0.00  0.00    +0.224 C 
ATOM      2  O   UNL     1       3.050   6.265   2.404  0.00  0.00    -0.275 OA
ATOM      3  N   UNL     1       4.694   7.616   1.778  0.00  0.00    -0.264 N 
ATOM      4  C   UNL     1       5.103   7.798   3.093  0.00  0.00    +0.165 A 
ATOM      5  N   UNL     1       6.098   8.528   3.555  0.00  0.00    -0.225 NA
ATOM      6  C   UNL     1       6.355   8.594   4.853  0.00  0.00    +0.082 A 
ATOM      7  C   UNL     1       5.558   7.882   5.704  0.00  0.00    +0.077 A 
ATOM      8  S   UNL     1       4.426   7.128   4.545  0.00  0.00    -0.060 S 
ATOM      9  H   UNL     1       5.167   8.061   1.057  0.00  0.00    +0.157 HD
ENDROOT
BRANCH   6  10
ATOM     10  C   UNL     1       7.479   9.418   5.369  0.00  0.00    +0.019 A 
ATOM     11  C   UNL     1       8.308  10.264   4.608  0.00  0.00    +0.042 A 
ATOM     12  C   UNL     1       9.204  10.833   5.470  0.00  0.00    +0.102 A 
ATOM     13  N   UNL     1       8.947  10.347   6.732  0.00  0.00    -0.356 N 
ATOM     14  H   UNL     1       9.436  10.580   7.537  0.00  0.00    +0.165 HD
ATOM     15  C   UNL     1       7.900   9.489   6.666  0.00  0.00    +0.093 A 
BRANCH  12  16
ATOM     16  C   UNL     1      10.258  11.788   5.111  0.00  0.00    +0.258 C 
ATOM     17  O   UNL     1      10.388  12.146   3.955  0.00  0.00    -0.269 OA
ATOM     18  N   UNL     1      11.083  12.269   6.062  0.00  0.00    -0.324 N 
ATOM     19  H   UNL     1      10.980  11.984   6.984  0.00  0.00    +0.145 HD
ATOM     20  H   UNL     1      11.780  12.901   5.825  0.00  0.00    +0.145 HD
ENDBRANCH  12  16
ENDBRANCH   6  10
BRANCH   1  21
ATOM     21  C   UNL     1       3.198   6.624   0.076  0.00  0.00    +0.152 C 
BRANCH  21  23
ATOM     22  C   UNL     1       0.736   6.210   0.003  0.00  0.00    +0.043 A 
ATOM     23  C   UNL     1       2.010   5.698   0.043  0.00  0.00    +0.066 A 
ATOM     24  N   UNL     1       2.184   4.401   0.056  0.00  0.00    -0.243 NA
ATOM     25  C   UNL     1       1.156   3.564   0.023  0.00  0.00    +0.109 A 
ATOM     26  S   UNL     1      -0.224   4.700  -0.021  0.00  0.00    -0.067 S 
BRANCH  22  31
ATOM     27  C   UNL     1      -1.025  11.687  -0.066  0.00  0.00    +0.044 C 
ATOM     28  C   UNL     1      -0.564  10.253  -0.048  0.00  0.00    -0.050 A 
ATOM     29  C   UNL     1      -1.092   9.348  -0.952  0.00  0.00    +0.004 A 
ATOM     30  C   UNL     1      -0.674   8.034  -0.941  0.00  0.00    +0.009 A 
ATOM     31  C   UNL     1       0.283   7.617  -0.015  0.00  0.00    -0.009 A 
ATOM     32  C   UNL     1       0.808   8.533   0.898  0.00  0.00    +0.009 A 
ATOM     33  C   UNL     1       0.385   9.846   0.873  0.00  0.00    +0.004 A 
ENDBRANCH  22  31
BRANCH  25  34
ATOM     34  C   UNL     1       1.151   2.086   0.028  0.00  0.00    +0.007 A 
ATOM     35  C   UNL     1      -0.058   1.389  -0.006  0.00  0.00    +0.010 A 
ATOM     36  C   UNL     1      -0.055   0.009  -0.002  0.00  0.00    +0.001 A 
ATOM     37  C   UNL     1       1.143  -0.683   0.035  0.00  0.00    +0.000 A 
ATOM     38  C   UNL     1       2.344   0.002   0.069  0.00  0.00    +0.001 A 
ATOM     39  C   UNL     1       2.356   1.381   0.066  0.00  0.00    +0.010 A 
ENDBRANCH  25  34
ENDBRANCH  21  23
ENDBRANCH   1  21
TORSDOF 6
