REMARK  Name = ZINC04188823
REMARK  8 active torsions:
REMARK  status: ('A' for Active; 'I' for Inactive)
REMARK    1  A    between atoms: C_1  and  C_2
REMARK    2  A    between atoms: C_2  and  N_3
REMARK    3  A    between atoms: C_4  and  C_6
REMARK    4  A    between atoms: C_6  and  N_7
REMARK    5  A    between atoms: N_9  and  C_33
REMARK    6  A    between atoms: C_18  and  C_20
REMARK    7  A    between atoms: C_20  and  C_21
REMARK    8  A    between atoms: C_20  and  C_27
REMARK                            x       y       z     vdW  Elec       q    Type
REMARK                         _______ _______ _______ _____ _____    ______ ____
ROOT
ATOM      1  N   UNL     1       4.342   3.664  -0.984  0.00  0.00    -0.275 N 
ATOM      2  C   UNL     1       3.589   2.544  -1.562  0.00  0.00    +0.217 C 
ATOM      3  N   UNL     1       2.672   3.137  -2.563  0.00  0.00    -0.300 N 
ATOM      4  C   UNL     1       2.469   4.511  -2.059  0.00  0.00    +0.115 C 
ATOM      5  C   UNL     1       3.705   4.824  -1.251  0.00  0.00    +0.241 C 
ATOM      6  O   UNL     1       4.065   5.928  -0.902  0.00  0.00    -0.273 OA
ATOM      7  C   UNL     1       1.227   4.564  -1.173  0.00  0.00    +0.054 C 
ATOM      8  C   UNL     1       1.057   5.983  -0.620  0.00  0.00    +0.110 C 
ATOM      9  N   UNL     1       1.053   6.931  -1.743  0.00  0.00    -0.301 N 
ATOM     10  C   UNL     1       2.176   6.909  -2.691  0.00  0.00    +0.110 C 
ATOM     11  C   UNL     1       2.338   5.483  -3.228  0.00  0.00    +0.054 C 
ATOM     12  C   UNL     1       0.039   7.804  -1.901  0.00  0.00    +0.227 C 
ATOM     13  O   UNL     1      -0.828   7.886  -1.056  0.00  0.00    -0.275 OA
ENDROOT
BRANCH   3  14
ATOM     14  C   UNL     1       1.464   2.437  -2.612  0.00  0.00    +0.032 A 
ATOM     15  C   UNL     1       0.393   2.947  -3.335  0.00  0.00    +0.023 A 
ATOM     16  C   UNL     1      -0.800   2.253  -3.380  0.00  0.00    +0.002 A 
ATOM     17  C   UNL     1      -0.932   1.056  -2.702  0.00  0.00    +0.000 A 
ATOM     18  C   UNL     1       0.134   0.543  -1.985  0.00  0.00    +0.002 A 
ATOM     19  C   UNL     1       1.330   1.231  -1.936  0.00  0.00    +0.023 A 
ENDBRANCH   3  14
BRANCH   1  20
ATOM     20  C   UNL     1       5.593   3.542  -0.232  0.00  0.00    +0.205 C 
BRANCH  20  22
ATOM     21  N   UNL     1       6.289   3.242   2.123  0.00  0.00    -0.314 N 
ATOM     22  C   UNL     1       5.285   3.374   1.234  0.00  0.00    +0.230 C 
ATOM     23  O   UNL     1       4.133   3.358   1.613  0.00  0.00    -0.274 OA
ATOM     24  H   UNL     1       7.210   3.255   1.820  0.00  0.00    +0.149 HD
BRANCH  21  26
ATOM     25  C   UNL     1       7.295   2.951   4.333  0.00  0.00    +0.024 C 
ATOM     26  C   UNL     1       5.988   3.079   3.548  0.00  0.00    +0.101 C 
ENDBRANCH  21  26
ENDBRANCH  20  22
ENDBRANCH   1  20
BRANCH  12  27
ATOM     27  C   UNL     1      -0.018   8.679  -3.126  0.00  0.00    +0.135 C 
BRANCH  27  28
ATOM     28  C   UNL     1      -1.324   9.430  -3.147  0.00  0.00    -0.031 A 
ATOM     29  C   UNL     1      -1.615  10.339  -2.146  0.00  0.00    +0.005 A 
ATOM     30  C   UNL     1      -2.811  11.031  -2.167  0.00  0.00    +0.000 A 
ATOM     31  C   UNL     1      -3.721  10.808  -3.184  0.00  0.00    +0.000 A 
ATOM     32  C   UNL     1      -3.433   9.896  -4.181  0.00  0.00    +0.000 A 
ATOM     33  C   UNL     1      -2.235   9.207  -4.163  0.00  0.00    +0.005 A 
ENDBRANCH  27  28
BRANCH  27  34
ATOM     34  C   UNL     1       1.125   9.661  -3.096  0.00  0.00    -0.031 A 
ATOM     35  C   UNL     1       1.446  10.313  -1.920  0.00  0.00    +0.005 A 
ATOM     36  C   UNL     1       2.497  11.209  -1.892  0.00  0.00    +0.000 A 
ATOM     37  C   UNL     1       3.223  11.461  -3.042  0.00  0.00    +0.000 A 
ATOM     38  C   UNL     1       2.898  10.813  -4.219  0.00  0.00    +0.000 A 
ATOM     39  C   UNL     1       1.850   9.912  -4.246  0.00  0.00    +0.005 A 
ENDBRANCH  27  34
ENDBRANCH  12  27
TORSDOF 7
