REMARK  Name = ZINC61594683
REMARK  7 active torsions:
REMARK  status: ('A' for Active; 'I' for Inactive)
REMARK    1  A    between atoms: C_1  and  C_2
REMARK    2  A    between atoms: C_2  and  C_4
REMARK    3  A    between atoms: C_2  and  N_24
REMARK    4  A    between atoms: C_4  and  C_6
REMARK    5  A    between atoms: C_4  and  S_13
REMARK    6  A    between atoms: S_13  and  C_14
REMARK    7  A    between atoms: N_20  and  C_21
REMARK                            x       y       z     vdW  Elec       q    Type
REMARK                         _______ _______ _______ _____ _____    ______ ____
ROOT
ATOM      1  C   UNL     1       0.842  -0.527   1.171  0.00  0.00    +0.069 C 
ENDROOT
BRANCH   1   2
ATOM      2  C   UNL     1       1.001  -2.025   1.111  0.00  0.00    -0.035 A 
ATOM      3  C   UNL     1      -0.114  -2.840   1.170  0.00  0.00    +0.007 A 
ATOM      4  C   UNL     1       0.030  -4.214   1.115  0.00  0.00    +0.038 A 
ATOM      5  C   UNL     1       1.292  -4.773   1.000  0.00  0.00    +0.123 A 
ATOM      6  C   UNL     1       2.408  -3.955   0.941  0.00  0.00    +0.038 A 
ATOM      7  C   UNL     1       2.260  -2.582   0.991  0.00  0.00    +0.007 A 
ATOM      8  F   UNL     1       1.434  -6.115   0.947  0.00  0.00    -0.205 F 
ENDBRANCH   1   2
BRANCH   1  10
ATOM      9  C   UNL     1      -0.142   1.466   0.030  0.00  0.00    -0.013 C 
ATOM     10  C   UNL     1      -0.028  -0.059   0.002  0.00  0.00    -0.060 C 
BRANCH  10  11
ATOM     11  N   UNL     1       0.586  -0.481  -1.264  0.00  0.00    +0.381 N 
ATOM     12  H   UNL     1       1.505  -0.073  -1.345  0.00  0.00    -0.090 HD
ATOM     13  H   UNL     1       0.662  -1.487  -1.283  0.00  0.00    -0.090 HD
ATOM     14  H   UNL     1       0.013  -0.173  -2.035  0.00  0.00    -0.090 HD
ENDBRANCH  10  11
ENDBRANCH   1  10
BRANCH   1  15
ATOM     15  S   UNL     1       0.051  -0.065   2.736  0.00  0.00    -0.080 S 
BRANCH  15  16
ATOM     16  C   UNL     1       1.261  -0.454   3.957  0.00  0.00    +0.193 A 
ATOM     17  N   UNL     1       2.406  -1.031   3.733  0.00  0.00    -0.145 NA
ATOM     18  N   UNL     1       3.073  -1.161   4.960  0.00  0.00    -0.226 N 
ATOM     19  H   UNL     1       3.948  -1.555   5.098  0.00  0.00    +0.194 HD
ATOM     20  C   UNL     1       2.273  -0.637   5.911  0.00  0.00    +0.345 A 
ATOM     21  O   UNL     1       2.519  -0.573   7.103  0.00  0.00    -0.245 OA
ATOM     22  N   UNL     1       1.155  -0.192   5.304  0.00  0.00    -0.268 N 
BRANCH  22  23
ATOM     23  C   UNL     1       0.020   0.456   5.965  0.00  0.00    +0.094 C 
ATOM     24  C   UNL     1       0.183   0.836   7.438  0.00  0.00    +0.027 C 
ATOM     25  C   UNL     1      -0.715  -0.339   7.046  0.00  0.00    +0.027 C 
ENDBRANCH  22  23
ENDBRANCH  15  16
ENDBRANCH   1  15
TORSDOF 6
