REMARK  Name = ZINC39363066
REMARK  9 active torsions:
REMARK  status: ('A' for Active; 'I' for Inactive)
REMARK    1  A    between atoms: C_1  and  C_2
REMARK    2  A    between atoms: C_4  and  C_35
REMARK    3  A    between atoms: C_6  and  N_8
REMARK    4  A    between atoms: C_9  and  C_11
REMARK    5  A    between atoms: C_11  and  S_12
REMARK    6  A    between atoms: S_12  and  C_13
REMARK    7  A    between atoms: C_16  and  C_26
REMARK    8  A    between atoms: N_18  and  C_19
REMARK    9  A    between atoms: C_26  and  C_27
REMARK                            x       y       z     vdW  Elec       q    Type
REMARK                         _______ _______ _______ _____ _____    ______ ____
ROOT
ATOM      1  C   UNL     1       0.569  -2.770   7.655  0.00  0.00    +0.180 C 
ATOM      2  N   UNL     1       0.579  -4.059   7.610  0.00  0.00    -0.162 NA
ATOM      3  N   UNL     1       0.663  -4.616   8.892  0.00  0.00    -0.246 N 
ATOM      4  C   UNL     1       0.709  -3.482   9.830  0.00  0.00    +0.187 C 
ATOM      5  N   UNL     1       0.649  -2.297   8.957  0.00  0.00    -0.258 N 
ATOM      6  H   UNL     1       0.686  -5.560   9.117  0.00  0.00    +0.170 HD
ENDROOT
BRANCH   5   7
ATOM      7  C   UNL     1       0.667  -0.959   9.361  0.00  0.00    +0.038 A 
ATOM      8  C   UNL     1       1.810  -0.423   9.941  0.00  0.00    +0.025 A 
ATOM      9  C   UNL     1       1.825   0.899  10.339  0.00  0.00    +0.022 A 
ATOM     10  C   UNL     1       0.703   1.690  10.161  0.00  0.00    +0.041 A 
ATOM     11  C   UNL     1      -0.437   1.158   9.583  0.00  0.00    +0.022 A 
ATOM     12  C   UNL     1      -0.455  -0.162   9.178  0.00  0.00    +0.025 A 
ATOM     13 CL   UNL     1       0.725   3.351  10.663  0.00  0.00    -0.084 Cl
ENDBRANCH   5   7
BRANCH   1  14
ATOM     14  S   UNL     1       0.472  -1.734   6.233  0.00  0.00    -0.079 S 
BRANCH  14  15
ATOM     15  C   UNL     1       0.390  -2.899   4.845  0.00  0.00    +0.173 C 
BRANCH  15  17
ATOM     16  N   UNL     1       0.232  -2.796   2.379  0.00  0.00    -0.285 N 
ATOM     17  C   UNL     1       0.303  -2.133   3.550  0.00  0.00    +0.227 C 
ATOM     18  O   UNL     1       0.296  -0.920   3.562  0.00  0.00    -0.275 OA
ATOM     19  H   UNL     1       0.162  -3.763   2.372  0.00  0.00    +0.155 HD
BRANCH  16  25
ATOM     20  C   UNL     1      -1.198  -2.359  -2.305  0.00  0.00    +0.044 C 
ATOM     21  C   UNL     1      -0.424  -1.854  -1.115  0.00  0.00    -0.048 A 
ATOM     22  C   UNL     1       0.314  -0.689  -1.215  0.00  0.00    +0.006 A 
ATOM     23  C   UNL     1       1.025  -0.222  -0.124  0.00  0.00    -0.048 A 
ATOM     24  C   UNL     1       1.000  -0.918   1.068  0.00  0.00    +0.026 A 
ATOM     25  C   UNL     1       0.259  -2.088   1.172  0.00  0.00    +0.034 A 
ATOM     26  C   UNL     1      -0.458  -2.552   0.077  0.00  0.00    +0.026 A 
ATOM     27  C   UNL     1       1.829   1.048  -0.238  0.00  0.00    +0.044 C 
ENDBRANCH  16  25
ENDBRANCH  15  17
ENDBRANCH  14  15
ENDBRANCH   1  14
BRANCH   4  28
ATOM     28  C   UNL     1      -0.491  -3.520  10.778  0.00  0.00    +0.097 C 
BRANCH  28  29
ATOM     29  C   UNL     1      -0.385  -4.727  11.675  0.00  0.00    +0.029 A 
ATOM     30  N   UNL     1      -0.844  -5.943  11.248  0.00  0.00    -0.311 N 
ATOM     31  C   UNL     1      -0.753  -7.027  12.040  0.00  0.00    +0.327 A 
ATOM     32  O   UNL     1      -1.168  -8.098  11.640  0.00  0.00    -0.247 OA
ATOM     33  N   UNL     1      -0.209  -6.942  13.268  0.00  0.00    -0.275 N 
ATOM     34  C   UNL     1       0.255  -5.762  13.726  0.00  0.00    +0.254 A 
ATOM     35  O   UNL     1       0.747  -5.685  14.837  0.00  0.00    -0.268 OA
ATOM     36  C   UNL     1       0.170  -4.615  12.900  0.00  0.00    +0.091 A 
ATOM     37  H   UNL     1      -0.152  -7.733  13.826  0.00  0.00    +0.173 HD
ATOM     38  H   UNL     1      -1.240  -6.025  10.366  0.00  0.00    +0.170 HD
ENDBRANCH  28  29
ENDBRANCH   4  28
TORSDOF 7
