REMARK  Name = ZINC35172967
REMARK  11 active torsions:
REMARK  status: ('A' for Active; 'I' for Inactive)
REMARK    1  A    between atoms: C_4  and  C_7
REMARK    2  A    between atoms: C_7  and  N_8
REMARK    3  A    between atoms: C_11  and  N_14
REMARK    4  A    between atoms: C_15  and  C_17
REMARK    5  A    between atoms: C_17  and  C_18
REMARK    6  A    between atoms: C_18  and  C_19
REMARK    7  A    between atoms: C_19  and  C_20
REMARK    8  A    between atoms: C_20  and  S_21
REMARK    9  A    between atoms: S_21  and  C_22
REMARK   10  A    between atoms: C_25  and  C_33
REMARK   11  A    between atoms: N_26  and  C_27
REMARK                            x       y       z     vdW  Elec       q    Type
REMARK                         _______ _______ _______ _____ _____    ______ ____
ROOT
ATOM      1  C   UNL     1       7.856  -4.934   6.812  0.00  0.00    +0.010 C 
ENDROOT
BRANCH   1   2
ATOM      2  C   UNL     1       6.813  -3.821   6.694  0.00  0.00    +0.096 C 
BRANCH   2   4
ATOM      3  N   UNL     1       5.449  -2.776   4.914  0.00  0.00    -0.313 N 
ATOM      4  C   UNL     1       6.370  -3.698   5.258  0.00  0.00    +0.213 C 
ATOM      5  O   UNL     1       6.842  -4.429   4.414  0.00  0.00    -0.276 OA
ATOM      6  H   UNL     1       5.071  -2.192   5.589  0.00  0.00    +0.149 HD
BRANCH   3  10
ATOM      7  N   UNL     1       4.153  -0.953   1.342  0.00  0.00    +0.382 N 
ATOM      8  C   UNL     1       3.203  -1.854   2.005  0.00  0.00    -0.077 C 
ATOM      9  C   UNL     1       3.614  -2.050   3.466  0.00  0.00    +0.003 C 
ATOM     10  C   UNL     1       5.019  -2.657   3.518  0.00  0.00    +0.069 C 
ATOM     11  C   UNL     1       5.987  -1.746   2.760  0.00  0.00    +0.003 C 
ATOM     12  C   UNL     1       5.489  -1.562   1.325  0.00  0.00    -0.077 C 
ATOM     13  H   UNL     1       4.190  -0.078   1.843  0.00  0.00    -0.081 HD
BRANCH   7  14
ATOM     14  C   UNL     1       3.711  -0.707  -0.038  0.00  0.00    -0.043 C 
BRANCH  14  18
ATOM     15  C   UNL     1      -0.017   1.378   0.010  0.00  0.00    +0.000 A 
ATOM     16  C   UNL     1       1.171   2.086   0.002  0.00  0.00    +0.000 A 
ATOM     17  C   UNL     1       2.377   1.411  -0.013  0.00  0.00    +0.002 A 
ATOM     18  C   UNL     1       2.396   0.029  -0.020  0.00  0.00    -0.064 A 
ATOM     19  C   UNL     1       1.208  -0.679  -0.012  0.00  0.00    +0.002 A 
ATOM     20  C   UNL     1       0.002  -0.004   0.002  0.00  0.00    +0.000 A 
ENDBRANCH  14  18
ENDBRANCH   7  14
ENDBRANCH   3  10
ENDBRANCH   2   4
ENDBRANCH   1   2
BRANCH   1  21
ATOM     21  C   UNL     1       8.305  -5.058   8.270  0.00  0.00    +0.012 C 
BRANCH  21  22
ATOM     22  C   UNL     1       9.348  -6.171   8.388  0.00  0.00    +0.077 C 
BRANCH  22  23
ATOM     23  S   UNL     1       9.881  -6.319  10.116  0.00  0.00    -0.086 S 
BRANCH  23  24
ATOM     24  C   UNL     1      11.065  -7.623  10.087  0.00  0.00    +0.196 A 
ATOM     25  N   UNL     1      11.451  -8.303   9.030  0.00  0.00    -0.122 NA
ATOM     26  N   UNL     1      12.327  -9.182   9.365  0.00  0.00    -0.128 NA
ATOM     27  C   UNL     1      12.557  -9.118  10.656  0.00  0.00    +0.169 A 
ATOM     28  N   UNL     1      11.760  -8.113  11.159  0.00  0.00    -0.270 N 
BRANCH  28  29
ATOM     29  C   UNL     1      11.676  -7.685  12.491  0.00  0.00    +0.051 A 
ATOM     30  C   UNL     1      12.772  -7.089  13.101  0.00  0.00    +0.026 A 
ATOM     31  C   UNL     1      12.686  -6.668  14.413  0.00  0.00    +0.002 A 
ATOM     32  C   UNL     1      11.510  -6.839  15.120  0.00  0.00    +0.000 A 
ATOM     33  C   UNL     1      10.417  -7.432  14.516  0.00  0.00    +0.002 A 
ATOM     34  C   UNL     1      10.495  -7.850  13.202  0.00  0.00    +0.026 A 
ENDBRANCH  28  29
BRANCH  27  35
ATOM     35  C   UNL     1      13.497  -9.962  11.424  0.00  0.00    +0.020 A 
ATOM     36  C   UNL     1      13.416 -10.012  12.816  0.00  0.00    +0.011 A 
ATOM     37  C   UNL     1      14.296 -10.802  13.527  0.00  0.00    +0.001 A 
ATOM     38  C   UNL     1      15.258 -11.543  12.862  0.00  0.00    +0.000 A 
ATOM     39  C   UNL     1      15.343 -11.497  11.482  0.00  0.00    +0.001 A 
ATOM     40  C   UNL     1      14.465 -10.716  10.759  0.00  0.00    +0.011 A 
ENDBRANCH  27  35
ENDBRANCH  23  24
ENDBRANCH  22  23
ENDBRANCH  21  22
ENDBRANCH   1  21
TORSDOF 11
