REMARK  Name = ZINC35247910
REMARK  2 active torsions:
REMARK  status: ('A' for Active; 'I' for Inactive)
REMARK    1  A    between atoms: C_5  and  C_6
REMARK    2  A    between atoms: N_8  and  C_9
REMARK                            x       y       z     vdW  Elec       q    Type
REMARK                         _______ _______ _______ _____ _____    ______ ____
ROOT
ATOM      1  C   UNL     1      -1.123  -0.944   0.007  0.00  0.00    +0.255 C 
ATOM      2  O   UNL     1      -2.266  -0.525   0.020  0.00  0.00    -0.269 OA
ATOM      3  N   UNL     1      -0.892  -2.272  -0.002  0.00  0.00    -0.279 N 
ATOM      4  H   UNL     1       0.019  -2.605  -0.012  0.00  0.00    +0.155 HD
ENDROOT
BRANCH   1   9
ATOM      5  C   UNL     1      -0.017   1.376   0.010  0.00  0.00    +0.024 A 
ATOM      6  C   UNL     1       1.221   2.023   0.001  0.00  0.00    -0.036 A 
ATOM      7  C   UNL     1       2.323   1.230  -0.016  0.00  0.00    -0.006 A 
ATOM      8  S   UNL     1       1.751  -0.345  -0.016  0.00  0.00    -0.088 S 
ATOM      9  C   UNL     1       0.002  -0.004   0.002  0.00  0.00    +0.075 A 
ATOM     10  C   UNL     1       3.593   2.040  -0.030  0.00  0.00    +0.043 C 
ATOM     11  C   UNL     1       3.149   3.456  -0.457  0.00  0.00    +0.010 C 
ATOM     12  C   UNL     1       1.681   3.483   0.009  0.00  0.00    +0.036 C 
ENDBRANCH   1   9
BRANCH   3  13
ATOM     13  C   UNL     1      -1.972  -3.174   0.003  0.00  0.00    +0.071 A 
ATOM     14  C   UNL     1      -1.882  -4.528   0.000  0.00  0.00    +0.128 A 
ATOM     15  N   UNL     1      -3.147  -5.023   0.007  0.00  0.00    -0.283 N 
ATOM     16  H   UNL     1      -3.393  -5.961   0.007  0.00  0.00    +0.188 HD
ATOM     17  N   UNL     1      -4.033  -3.938   0.014  0.00  0.00    -0.180 NA
ATOM     18  C   UNL     1      -3.332  -2.833   0.018  0.00  0.00    +0.157 A 
ENDBRANCH   3  13
TORSDOF 2
