REMARK  Name = ZINC12877991
REMARK  5 active torsions:
REMARK  status: ('A' for Active; 'I' for Inactive)
REMARK    1  A    between atoms: C_1  and  O_2
REMARK    2  A    between atoms: O_2  and  C_3
REMARK    3  A    between atoms: C_6  and  N_9
REMARK    4  A    between atoms: C_14  and  C_30
REMARK    5  A    between atoms: C_30  and  C_31
REMARK                            x       y       z     vdW  Elec       q    Type
REMARK                         _______ _______ _______ _____ _____    ______ ____
ROOT
ATOM      1  N   UNL     1       0.059  -4.176  -0.022  0.00  0.00    -0.210 N 
ATOM      2  C   UNL     1      -1.052  -4.915   0.083  0.00  0.00    +0.228 C 
ATOM      3  O   UNL     1      -2.176  -4.477   0.197  0.00  0.00    -0.275 OA
ATOM      4  C   UNL     1      -0.685  -6.380   0.036  0.00  0.00    +0.074 C 
ATOM      5  C   UNL     1      -0.949  -7.016   1.417  0.00  0.00    -0.049 C 
ATOM      6  C   UNL     1       1.376  -6.974   1.203  0.00  0.00    +0.050 C 
ATOM      7  C   UNL     1       0.862  -6.359  -0.105  0.00  0.00    +0.088 C 
ATOM      8  C   UNL     1       1.188  -4.883  -0.140  0.00  0.00    +0.229 C 
ATOM      9  O   UNL     1       2.300  -4.413  -0.255  0.00  0.00    -0.275 OA
ATOM     10  C   UNL     1       1.714  -8.428   1.032  0.00  0.00    -0.028 A 
ATOM     11  C   UNL     1       0.986  -9.532   0.649  0.00  0.00    +0.004 A 
ATOM     12  C   UNL     1       1.593 -10.773   0.584  0.00  0.00    +0.000 A 
ATOM     13  C   UNL     1       2.932 -10.902   0.905  0.00  0.00    +0.002 A 
ATOM     14  C   UNL     1       3.666  -9.799   1.290  0.00  0.00    +0.023 A 
ATOM     15  C   UNL     1       3.062  -8.546   1.359  0.00  0.00    +0.036 A 
ATOM     16  N   UNL     1       3.583  -7.300   1.716  0.00  0.00    -0.286 N 
ATOM     17  C   UNL     1       2.657  -6.324   1.650  0.00  0.00    +0.211 C 
ATOM     18  O   UNL     1       2.823  -5.149   1.902  0.00  0.00    -0.277 OA
ATOM     19  H   UNL     1       4.505  -7.154   1.981  0.00  0.00    +0.155 HD
ATOM     20  N   UNL     1       0.296  -6.790   2.155  0.00  0.00    +0.394 N 
ATOM     21  H   UNL     1       0.381  -7.465   2.924  0.00  0.00    -0.083 HD
ATOM     22  H   UNL     1       0.315  -5.836   2.534  0.00  0.00    -0.083 HD
ENDROOT
BRANCH   1  26
ATOM     23  C   UNL     1       0.003  -0.004   0.001  0.00  0.00    +0.120 A 
ATOM     24  C   UNL     1      -0.561  -0.699  -1.059  0.00  0.00    +0.047 A 
ATOM     25  C   UNL     1      -0.538  -2.080  -1.070  0.00  0.00    +0.027 A 
ATOM     26  C   UNL     1       0.040  -2.772  -0.014  0.00  0.00    +0.044 A 
ATOM     27  C   UNL     1       0.599  -2.076   1.049  0.00  0.00    +0.027 A 
ATOM     28  C   UNL     1       0.580  -0.696   1.056  0.00  0.00    +0.047 A 
BRANCH  23  30
ATOM     29  C   UNL     1      -0.626   2.002  -1.110  0.00  0.00    +0.277 C 
ATOM     30  O   UNL     1      -0.016   1.355   0.008  0.00  0.00    -0.495 OA
ENDBRANCH  23  30
ENDBRANCH   1  26
BRANCH   5  31
ATOM     31  C   UNL     1      -2.135  -6.333   2.100  0.00  0.00    +0.080 C 
BRANCH  31  32
ATOM     32  C   UNL     1      -2.453  -7.046   3.389  0.00  0.00    +0.209 C 
ATOM     33  O   UNL     1      -1.795  -8.008   3.728  0.00  0.00    -0.276 OA
ATOM     34  N   UNL     1      -3.468  -6.617   4.165  0.00  0.00    -0.329 N 
ATOM     35  H   UNL     1      -3.994  -5.848   3.894  0.00  0.00    +0.145 HD
ATOM     36  H   UNL     1      -3.672  -7.076   4.995  0.00  0.00    +0.145 HD
ENDBRANCH  31  32
ENDBRANCH   5  31
TORSDOF 4
