REMARK  Name = ZINC38550674
REMARK  5 active torsions:
REMARK  status: ('A' for Active; 'I' for Inactive)
REMARK    1  A    between atoms: N_7  and  C_8
REMARK    2  A    between atoms: C_8  and  C_10
REMARK    3  A    between atoms: C_8  and  C_15
REMARK    4  A    between atoms: C_19  and  N_20
REMARK    5  A    between atoms: C_21  and  C_23
REMARK                            x       y       z     vdW  Elec       q    Type
REMARK                         _______ _______ _______ _____ _____    ______ ____
ROOT
ATOM      1  C   UNL     1       0.212  -4.127  -0.731  0.00  0.00    +0.010 A 
ATOM      2  C   UNL     1      -0.677  -4.522  -1.730  0.00  0.00    -0.030 A 
ATOM      3  C   UNL     1      -0.422  -5.712  -2.338  0.00  0.00    -0.005 A 
ATOM      4  S   UNL     1       1.048  -6.293  -1.535  0.00  0.00    -0.078 S 
ATOM      5  C   UNL     1       1.272  -4.919  -0.416  0.00  0.00    +0.078 A 
ATOM      6  C   UNL     1      -1.208  -6.365  -3.428  0.00  0.00    +0.043 C 
ATOM      7  C   UNL     1      -2.574  -5.668  -3.523  0.00  0.00    +0.005 C 
ATOM      8  C   UNL     1      -2.352  -4.153  -3.528  0.00  0.00    +0.005 C 
ATOM      9  C   UNL     1      -1.885  -3.688  -2.148  0.00  0.00    +0.036 C 
ENDROOT
BRANCH   5  10
ATOM     10  N   UNL     1       2.272  -4.713   0.536  0.00  0.00    -0.273 N 
ATOM     11  C   UNL     1       3.299  -5.581   0.633  0.00  0.00    +0.284 C 
ATOM     12  O   UNL     1       3.354  -6.544  -0.109  0.00  0.00    -0.266 OA
ATOM     13  H   UNL     1       2.228  -3.946   1.128  0.00  0.00    +0.156 HD
BRANCH  11  14
ATOM     14  C   UNL     1       4.350  -5.365   1.633  0.00  0.00    +0.189 A 
ATOM     15  C   UNL     1       5.442  -6.159   1.833  0.00  0.00    +0.054 A 
ATOM     16  C   UNL     1       6.175  -5.580   2.881  0.00  0.00    +0.042 A 
ATOM     17  C   UNL     1       5.506  -4.473   3.270  0.00  0.00    +0.196 A 
ATOM     18  O   UNL     1       4.409  -4.343   2.512  0.00  0.00    -0.458 OA
ENDBRANCH  11  14
ENDBRANCH   5  10
BRANCH   1  19
ATOM     19  C   UNL     1       0.003  -2.822  -0.006  0.00  0.00    +0.141 C 
BRANCH  19  26
ATOM     20  C   UNL     1       0.090   1.311   0.710  0.00  0.00    +0.005 A 
ATOM     21  C   UNL     1       1.319   1.956   0.771  0.00  0.00    +0.018 A 
ATOM     22  C   UNL     1       2.476   1.225   0.595  0.00  0.00    +0.084 A 
ATOM     23  N   UNL     1       2.428  -0.075   0.371  0.00  0.00    -0.350 N 
ATOM     24  C   UNL     1       1.277  -0.726   0.306  0.00  0.00    +0.097 A 
ATOM     25  C   UNL     1       0.071  -0.052   0.474  0.00  0.00    +0.041 A 
ATOM     26  N   UNL     1       1.273  -2.095   0.067  0.00  0.00    -0.319 N 
ATOM     27  H   UNL     1       2.111  -2.570  -0.051  0.00  0.00    +0.148 HD
ATOM     28  H   UNL     1       3.256  -0.565   0.251  0.00  0.00    +0.166 HD
ENDBRANCH  19  26
BRANCH  19  29
ATOM     29  C   UNL     1      -0.500  -3.097   1.388  0.00  0.00    +0.014 A 
ATOM     30  C   UNL     1      -1.768  -3.043   1.864  0.00  0.00    +0.013 A 
ATOM     31  C   UNL     1      -1.998  -3.340   3.194  0.00  0.00    +0.008 A 
ATOM     32  C   UNL     1      -0.948  -3.676   3.983  0.00  0.00    +0.045 A 
ATOM     33  S   UNL     1       0.419  -3.586   2.838  0.00  0.00    -0.099 S 
ENDBRANCH  19  29
ENDBRANCH   1  19
TORSDOF 5
