REMARK  Name = ZINC45247000
REMARK  12 active torsions:
REMARK  status: ('A' for Active; 'I' for Inactive)
REMARK    1  A    between atoms: C_1  and  C_2
REMARK    2  A    between atoms: C_2  and  C_3
REMARK    3  A    between atoms: C_8  and  O_9
REMARK    4  A    between atoms: O_9  and  C_10
REMARK    5  A    between atoms: C_10  and  C_11
REMARK    6  A    between atoms: C_11  and  O_13
REMARK    7  A    between atoms: O_13  and  C_14
REMARK    8  A    between atoms: C_14  and  C_15
REMARK    9  A    between atoms: C_17  and  O_18
REMARK   10  A    between atoms: C_27  and  O_29
REMARK   11  A    between atoms: O_29  and  C_30
REMARK   12  A    between atoms: C_30  and  C_31
REMARK                            x       y       z     vdW  Elec       q    Type
REMARK                         _______ _______ _______ _____ _____    ______ ____
ROOT
ATOM      1  C   UNL     1       8.303   0.345   2.471  0.00  0.00    +0.007 A 
ATOM      2  C   UNL     1       8.989   0.418   3.667  0.00  0.00    +0.095 A 
ATOM      3  C   UNL     1      10.284  -0.071   3.754  0.00  0.00    +0.285 A 
ATOM      4  O   UNL     1      10.893  -0.619   2.696  0.00  0.00    -0.425 OA
ATOM      5  C   UNL     1      10.269  -0.716   1.504  0.00  0.00    +0.141 A 
ATOM      6  C   UNL     1       8.947  -0.238   1.360  0.00  0.00    +0.024 A 
ATOM      7  C   UNL     1       8.291  -0.343   0.120  0.00  0.00    +0.014 A 
ATOM      8  C   UNL     1       8.927  -0.907  -0.938  0.00  0.00    +0.024 A 
ATOM      9  C   UNL     1      10.242  -1.390  -0.803  0.00  0.00    +0.040 A 
ATOM     10  C   UNL     1      10.910  -1.284   0.419  0.00  0.00    +0.070 A 
ATOM     11  N   UNL     1      10.869  -1.953  -1.870  0.00  0.00    -0.251 N 
ATOM     12  C   UNL     1      11.962  -2.681  -1.688  0.00  0.00    +0.405 C 
ATOM     13  O   UNL     1      12.334  -2.951  -0.558  0.00  0.00    -0.226 OA
ATOM     14  H   UNL     1      10.516  -1.822  -2.764  0.00  0.00    +0.158 HD
ENDROOT
BRANCH   3  15
ATOM     15  O   UNL     1      10.941   0.007   4.926  0.00  0.00    -0.480 OA
ATOM     16  H   UNL     1      11.837  -0.356   4.900  0.00  0.00    +0.295 HD
ENDBRANCH   3  15
BRANCH   1  17
ATOM     17  C   UNL     1       6.895   0.870   2.357  0.00  0.00    +0.268 C 
BRANCH  17  18
ATOM     18  O   UNL     1       6.861   2.236   2.774  0.00  0.00    -0.457 OA
BRANCH  18  19
ATOM     19  C   UNL     1       5.672   2.857   2.732  0.00  0.00    +0.345 C 
ATOM     20  O   UNL     1       4.692   2.260   2.354  0.00  0.00    -0.247 OA
BRANCH  19  21
ATOM     21  C   UNL     1       5.559   4.299   3.157  0.00  0.00    +0.349 C 
BRANCH  21  22
ATOM     22  O   UNL     1       4.203   4.729   3.023  0.00  0.00    -0.481 OA
BRANCH  22  28
ATOM     23  C   UNL     1       2.632   6.500   3.263  0.00  0.00    -0.006 A 
ATOM     24  C   UNL     1       2.353   7.805   3.620  0.00  0.00    +0.007 A 
ATOM     25  C   UNL     1       3.365   8.630   4.074  0.00  0.00    +0.000 A 
ATOM     26  C   UNL     1       4.658   8.151   4.174  0.00  0.00    +0.004 A 
ATOM     27  C   UNL     1       4.942   6.846   3.820  0.00  0.00    +0.046 A 
ATOM     28  C   UNL     1       3.927   6.015   3.368  0.00  0.00    +0.124 A 
BRANCH  23  30
ATOM     29  C   UNL     1       0.971   4.785   3.935  0.00  0.00    +0.009 C 
ATOM     30  C   UNL     1       1.528   5.601   2.767  0.00  0.00    +0.035 C 
ENDBRANCH  23  30
ENDBRANCH  22  28
ENDBRANCH  21  22
ENDBRANCH  19  21
ENDBRANCH  18  19
ENDBRANCH  17  18
ENDBRANCH   1  17
BRANCH  12  31
ATOM     31  O   UNL     1      12.664  -3.124  -2.755  0.00  0.00    -0.450 OA
BRANCH  31  32
ATOM     32  C   UNL     1      13.831  -3.903  -2.485  0.00  0.00    +0.230 C 
ATOM     33  C   UNL     1      14.488  -4.311  -3.806  0.00  0.00    +0.048 C 
ENDBRANCH  31  32
ENDBRANCH  12  31
TORSDOF 10
