REMARK  Name = ZINC15170579
REMARK  8 active torsions:
REMARK  status: ('A' for Active; 'I' for Inactive)
REMARK    1  A    between atoms: C_3  and  C_6
REMARK    2  A    between atoms: C_6  and  C_8
REMARK    3  A    between atoms: C_6  and  N_62
REMARK    4  A    between atoms: C_8  and  N_9
REMARK    5  A    between atoms: N_9  and  C_10
REMARK    6  A    between atoms: C_13  and  S_19
REMARK    7  A    between atoms: C_15  and  N_16
REMARK    8  A    between atoms: S_19  and  N_22
REMARK                            x       y       z     vdW  Elec       q    Type
REMARK                         _______ _______ _______ _____ _____    ______ ____
ROOT
ATOM      1  C   UNL     1       4.969  -1.867  -3.044  0.00  0.00    +0.058 A 
ATOM      2  C   UNL     1       4.274  -2.844  -2.344  0.00  0.00    +0.027 A 
ATOM      3  C   UNL     1       3.894  -2.616  -1.036  0.00  0.00    +0.030 A 
ATOM      4  C   UNL     1       4.195  -1.411  -0.427  0.00  0.00    +0.108 A 
ATOM      5  C   UNL     1       4.886  -0.435  -1.122  0.00  0.00    +0.063 A 
ATOM      6  C   UNL     1       5.274  -0.660  -2.428  0.00  0.00    +0.149 A 
ENDROOT
BRANCH   6   7
ATOM      7  N   UNL     1       6.014   0.385  -3.171  0.00  0.00    +0.058 N 
ATOM      8  O   UNL     1       6.179   1.485  -2.674  0.00  0.00    -0.126 OA
ATOM      9  O   UNL     1       6.457   0.145  -4.280  0.00  0.00    -0.126 OA
ENDBRANCH   6   7
BRANCH   4  10
ATOM     10  S   UNL     1       3.702  -1.120   1.239  0.00  0.00    +0.061 S 
ATOM     11  O   UNL     1       4.583  -0.133   1.757  0.00  0.00    -0.153 OA
ATOM     12  O   UNL     1       3.547  -2.397   1.845  0.00  0.00    -0.153 OA
BRANCH  10  13
ATOM     13  N   UNL     1       2.196  -0.433   1.192  0.00  0.00    -0.177 NA
ATOM     14  C   UNL     1       0.989  -1.271   1.215  0.00  0.00    +0.109 C 
ATOM     15  C   UNL     1       0.107  -0.898   0.020  0.00  0.00    +0.017 C 
ATOM     16  C   UNL     1      -0.172   0.607   0.047  0.00  0.00    +0.003 C 
ATOM     17  C   UNL     1       1.147   1.374  -0.068  0.00  0.00    +0.017 C 
ATOM     18  C   UNL     1       2.041   1.026   1.126  0.00  0.00    +0.109 C 
ENDBRANCH  10  13
ENDBRANCH   4  10
BRANCH   1  19
ATOM     19  N   UNL     1       5.360  -2.096  -4.365  0.00  0.00    -0.343 N 
ATOM     20  H   UNL     1       5.920  -1.452  -4.825  0.00  0.00    +0.146 HD
BRANCH  19  21
ATOM     21  C   UNL     1       4.922  -3.311  -5.058  0.00  0.00    +0.094 C 
BRANCH  21  22
ATOM     22  C   UNL     1       5.582  -3.378  -6.436  0.00  0.00    +0.016 C 
BRANCH  22  28
ATOM     23  C   UNL     1       3.871  -1.843  -7.196  0.00  0.00    -0.078 C 
ATOM     24  C   UNL     1       3.638  -0.474  -7.839  0.00  0.00    -0.019 C 
ATOM     25  C   UNL     1       4.202  -0.482  -9.263  0.00  0.00    -0.004 C 
ATOM     26  C   UNL     1       5.691  -0.836  -9.212  0.00  0.00    -0.019 C 
ATOM     27  C   UNL     1       5.864  -2.195  -8.529  0.00  0.00    -0.078 C 
ATOM     28  N   UNL     1       5.324  -2.114  -7.155  0.00  0.00    +0.387 N 
ATOM     29  H   UNL     1       5.792  -1.346  -6.659  0.00  0.00    -0.081 HD
ENDBRANCH  22  28
BRANCH  22  32
ATOM     30  C   UNL     1       9.109  -4.410  -6.155  0.00  0.00    +0.041 A 
ATOM     31  C   UNL     1       7.745  -4.708  -6.377  0.00  0.00    +0.043 A 
ATOM     32  C   UNL     1       7.071  -3.550  -6.273  0.00  0.00    +0.093 A 
ATOM     33  O   UNL     1       7.948  -2.572  -5.993  0.00  0.00    -0.469 OA
ATOM     34  C   UNL     1       9.185  -3.088  -5.920  0.00  0.00    +0.195 A 
ENDBRANCH  22  32
ENDBRANCH  21  22
ENDBRANCH  19  21
ENDBRANCH   1  19
TORSDOF 8
