REMARK  Name = ZINC20029522
REMARK  5 active torsions:
REMARK  status: ('A' for Active; 'I' for Inactive)
REMARK    1  A    between atoms: C_1  and  C_2
REMARK    2  A    between atoms: C_5  and  C_8
REMARK    3  A    between atoms: C_19  and  C_26
REMARK    4  A    between atoms: C_20  and  C_24
REMARK    5  A    between atoms: C_21  and  N_23
REMARK                            x       y       z     vdW  Elec       q    Type
REMARK                         _______ _______ _______ _____ _____    ______ ____
ROOT
ATOM      1  C   UNL     1       0.059  -4.275  -0.021  0.00  0.00    +0.062 C 
ATOM      2  C   UNL     1       1.312  -4.776   0.695  0.00  0.00    +0.109 C 
ATOM      3  C   UNL     1       1.222  -6.243   1.010  0.00  0.00    +0.218 C 
ATOM      4  O   UNL     1       2.203  -6.945   0.885  0.00  0.00    -0.275 OA
ATOM      5  N   UNL     1       0.058  -6.789   1.433  0.00  0.00    -0.280 N 
ATOM      6  C   UNL     1      -1.076  -6.011   1.362  0.00  0.00    +0.078 A 
ATOM      7  C   UNL     1      -1.171  -4.807   0.709  0.00  0.00    +0.015 A 
ATOM      8  C   UNL     1      -2.403  -4.136   0.756  0.00  0.00    +0.086 A 
ATOM      9  C   UNL     1      -3.455  -4.800   1.448  0.00  0.00    +0.044 A 
ATOM     10  S   UNL     1      -2.697  -6.298   2.016  0.00  0.00    -0.071 S 
ATOM     11  C   UNL     1      -4.723  -4.300   1.588  0.00  0.00    -0.014 A 
ATOM     12  C   UNL     1      -4.933  -3.041   0.987  0.00  0.00    +0.095 A 
ATOM     13  C   UNL     1      -3.872  -2.410   0.312  0.00  0.00    +0.135 A 
ATOM     14  N   UNL     1      -2.664  -2.927   0.198  0.00  0.00    -0.230 NA
ATOM     15  C   UNL     1      -5.809  -5.038   2.328  0.00  0.00    +0.046 C 
ATOM     16  H   UNL     1       0.023  -7.697   1.773  0.00  0.00    +0.155 HD
ENDROOT
BRANCH   1  21
ATOM     17  C   UNL     1      -0.018   1.503   0.010  0.00  0.00    +0.044 C 
ATOM     18  C   UNL     1       0.002  -0.004   0.002  0.00  0.00    -0.050 A 
ATOM     19  C   UNL     1       0.006  -0.689  -1.199  0.00  0.00    +0.003 A 
ATOM     20  C   UNL     1       0.025  -2.071  -1.206  0.00  0.00    +0.004 A 
ATOM     21  C   UNL     1       0.040  -2.768  -0.013  0.00  0.00    -0.039 A 
ATOM     22  C   UNL     1       0.037  -2.084   1.188  0.00  0.00    +0.004 A 
ATOM     23  C   UNL     1       0.023  -0.702   1.195  0.00  0.00    +0.003 A 
ENDBRANCH   1  21
BRANCH  13  24
ATOM     24  N   UNL     1      -4.111  -1.174  -0.267  0.00  0.00    -0.342 N 
ATOM     25  H   UNL     1      -4.989  -0.768  -0.201  0.00  0.00    +0.144 HD
ATOM     26  H   UNL     1      -3.399  -0.714  -0.739  0.00  0.00    +0.144 HD
ENDBRANCH  13  24
BRANCH  12  27
ATOM     27  C   UNL     1      -6.216  -2.409   1.063  0.00  0.00    +0.103 C 
ATOM     28  N   UNL     1      -7.234  -1.909   1.123  0.00  0.00    -0.191 NA
ENDBRANCH  12  27
TORSDOF 3
