REMARK  Name = ZINC62883582
REMARK  9 active torsions:
REMARK  status: ('A' for Active; 'I' for Inactive)
REMARK    1  A    between atoms: C_1  and  C_2
REMARK    2  A    between atoms: C_2  and  N_3
REMARK    3  A    between atoms: N_3  and  C_4
REMARK    4  A    between atoms: N_3  and  C_6
REMARK    5  A    between atoms: C_4  and  C_5
REMARK    6  A    between atoms: C_9  and  C_12
REMARK    7  A    between atoms: C_19  and  O_23
REMARK    8  A    between atoms: O_23  and  C_24
REMARK    9  A    between atoms: C_24  and  C_26
REMARK                            x       y       z     vdW  Elec       q    Type
REMARK                         _______ _______ _______ _____ _____    ______ ____
ROOT
ATOM      1  C   UNL     1       0.353  -6.101  -1.463  0.00  0.00    +0.058 C 
ATOM      2  C   UNL     1      -0.331  -6.694  -2.473  0.00  0.00    +0.176 C 
ATOM      3  C   UNL     1      -0.588  -8.136  -2.620  0.00  0.00    +0.231 C 
ATOM      4  O   UNL     1      -0.240  -9.035  -1.876  0.00  0.00    -0.283 OA
ATOM      5  C   UNL     1      -1.362  -8.246  -3.870  0.00  0.00    +0.068 A 
ATOM      6  C   UNL     1      -1.908  -9.329  -4.561  0.00  0.00    +0.019 A 
ATOM      7  C   UNL     1      -2.592  -9.118  -5.725  0.00  0.00    +0.047 A 
ATOM      8  C   UNL     1      -2.745  -7.827  -6.223  0.00  0.00    +0.135 A 
ATOM      9  C   UNL     1      -2.208  -6.743  -5.547  0.00  0.00    +0.093 A 
ATOM     10  C   UNL     1      -1.509  -6.940  -4.362  0.00  0.00    +0.143 A 
ATOM     11  O   UNL     1      -0.906  -6.067  -3.526  0.00  0.00    -0.451 OA
ENDROOT
BRANCH   1  15
ATOM     12  C   UNL     1       0.563  -1.871  -1.242  0.00  0.00    +0.013 A 
ATOM     13  C   UNL     1      -0.024  -2.475  -2.341  0.00  0.00    +0.022 A 
ATOM     14  C   UNL     1      -0.097  -3.849  -2.420  0.00  0.00    +0.010 A 
ATOM     15  C   UNL     1       0.426  -4.635  -1.387  0.00  0.00    -0.021 A 
ATOM     16  C   UNL     1       1.019  -4.016  -0.280  0.00  0.00    +0.010 A 
ATOM     17  C   UNL     1       1.088  -2.641  -0.218  0.00  0.00    +0.022 A 
BRANCH  12  18
ATOM     18  N   UNL     1       0.633  -0.477  -1.170  0.00  0.00    -0.394 NA
ATOM     19  H   UNL     1       1.092  -0.207  -0.313  0.00  0.00    +0.126 HD
BRANCH  18  21
ATOM     20  C   UNL     1       1.579   1.548  -2.172  0.00  0.00    +0.022 C 
ATOM     21  C   UNL     1       1.396   0.035  -2.316  0.00  0.00    +0.081 C 
ENDBRANCH  18  21
BRANCH  18  22
ATOM     22  C   UNL     1      -0.725   0.083  -1.195  0.00  0.00    +0.081 C 
ATOM     23  C   UNL     1      -1.479  -0.350   0.063  0.00  0.00    +0.022 C 
ENDBRANCH  18  22
ENDBRANCH  12  18
ENDBRANCH   1  15
BRANCH   8  24
ATOM     24  O   UNL     1      -3.426  -7.628  -7.380  0.00  0.00    -0.422 OA
BRANCH  24  25
ATOM     25  C   UNL     1      -4.771  -7.718  -7.346  0.00  0.00    +0.346 C 
ATOM     26  O   UNL     1      -5.331  -8.059  -6.324  0.00  0.00    -0.244 OA
BRANCH  25  27
ATOM     27  C   UNL     1      -5.562  -7.402  -8.552  0.00  0.00    +0.073 A 
ATOM     28  C   UNL     1      -4.921  -7.014  -9.731  0.00  0.00    +0.016 A 
ATOM     29  C   UNL     1      -5.666  -6.721 -10.853  0.00  0.00    +0.001 A 
ATOM     30  C   UNL     1      -7.047  -6.809 -10.814  0.00  0.00    +0.001 A 
ATOM     31  C   UNL     1      -7.689  -7.191  -9.651  0.00  0.00    +0.016 A 
ATOM     32  C   UNL     1      -6.956  -7.494  -8.521  0.00  0.00    +0.032 A 
ATOM     33 BR   UNL     1      -7.836  -8.025  -6.933  0.00  0.00    -0.049 Br
ENDBRANCH  25  27
ENDBRANCH  24  25
ENDBRANCH   8  24
TORSDOF 7
