REMARK  Name = ZINC28055847
REMARK  8 active torsions:
REMARK  status: ('A' for Active; 'I' for Inactive)
REMARK    1  A    between atoms: C_1  and  O_2
REMARK    2  A    between atoms: O_2  and  C_3
REMARK    3  A    between atoms: C_6  and  C_9
REMARK    4  A    between atoms: C_20  and  C_22
REMARK    5  A    between atoms: C_24  and  O_30
REMARK    6  A    between atoms: C_27  and  O_28
REMARK    7  A    between atoms: O_28  and  C_29
REMARK    8  A    between atoms: O_30  and  C_31
REMARK                            x       y       z     vdW  Elec       q    Type
REMARK                         _______ _______ _______ _____ _____    ______ ____
ROOT
ATOM      1  C   UNL     1       1.072  -2.092   0.002  0.00  0.00    +0.174 C 
ATOM      2  C   UNL     1       1.863  -2.644   1.162  0.00  0.00    +0.026 C 
ATOM      3  C   UNL     1       3.068  -3.191   1.012  0.00  0.00    +0.050 C 
ATOM      4  C   UNL     1       3.780  -3.676   2.218  0.00  0.00    +0.038 A 
ATOM      5  C   UNL     1       4.867  -4.536   2.123  0.00  0.00    +0.013 A 
ATOM      6  C   UNL     1       5.501  -4.963   3.275  0.00  0.00    +0.001 A 
ATOM      7  C   UNL     1       5.056  -4.538   4.515  0.00  0.00    +0.004 A 
ATOM      8  C   UNL     1       3.974  -3.683   4.618  0.00  0.00    +0.046 A 
ATOM      9  C   UNL     1       3.331  -3.248   3.474  0.00  0.00    +0.131 A 
ATOM     10  O   UNL     1       2.264  -2.411   3.534  0.00  0.00    -0.479 OA
ATOM     11  C   UNL     1       1.249  -2.580   2.545  0.00  0.00    +0.238 C 
ATOM     12  N   UNL     1       3.683  -3.311  -0.240  0.00  0.00    -0.282 N 
ATOM     13  C   UNL     1       2.896  -3.090  -1.359  0.00  0.00    +0.240 A 
ATOM     14  N   UNL     1       1.665  -2.524  -1.256  0.00  0.00    -0.201 N 
ATOM     15  N   UNL     1       1.170  -2.473  -2.559  0.00  0.00    -0.042 NA
ATOM     16  N   UNL     1       2.087  -2.977  -3.321  0.00  0.00    -0.021 NA
ATOM     17  N   UNL     1       3.105  -3.341  -2.619  0.00  0.00    -0.092 NA
ATOM     18  H   UNL     1       4.750  -3.570  -0.307  0.00  0.00    +0.155 HD
ENDROOT
BRANCH   1  22
ATOM     19  C   UNL     1       1.085   2.177   0.182  0.00  0.00    +0.120 A 
ATOM     20  C   UNL     1      -0.115   1.483   0.238  0.00  0.00    +0.046 A 
ATOM     21  C   UNL     1      -0.116   0.103   0.180  0.00  0.00    +0.009 A 
ATOM     22  C   UNL     1       1.077  -0.587   0.065  0.00  0.00    -0.018 A 
ATOM     23  C   UNL     1       2.274   0.103   0.008  0.00  0.00    +0.009 A 
ATOM     24  C   UNL     1       2.281   1.483   0.067  0.00  0.00    +0.046 A 
BRANCH  19  26
ATOM     25  C   UNL     1       2.361   4.183   0.176  0.00  0.00    +0.277 C 
ATOM     26  O   UNL     1       1.089   3.535   0.240  0.00  0.00    -0.495 OA
ENDBRANCH  19  26
ENDBRANCH   1  22
BRANCH  11  27
ATOM     27  C   UNL     1       0.499  -3.859   2.816  0.00  0.00    +0.042 A 
ATOM     28  C   UNL     1       1.115  -4.890   3.498  0.00  0.00    +0.056 A 
ATOM     29  C   UNL     1       0.423  -6.065   3.752  0.00  0.00    +0.121 A 
ATOM     30  C   UNL     1      -0.884  -6.209   3.310  0.00  0.00    +0.049 A 
ATOM     31  C   UNL     1      -1.498  -5.180   2.623  0.00  0.00    +0.049 A 
ATOM     32  C   UNL     1      -0.808  -4.003   2.374  0.00  0.00    +0.127 A 
BRANCH  32  33
ATOM     33  O   UNL     1      -1.412  -2.990   1.698  0.00  0.00    -0.495 OA
ATOM     34  C   UNL     1      -2.759  -3.207   1.273  0.00  0.00    +0.277 C 
ENDBRANCH  32  33
BRANCH  29  35
ATOM     35  O   UNL     1       1.028  -7.078   4.428  0.00  0.00    -0.495 OA
ATOM     36  C   UNL     1       0.257  -8.261   4.649  0.00  0.00    +0.277 C 
ENDBRANCH  29  35
ENDBRANCH  11  27
TORSDOF 5
