REMARK  Name = ZINC20417586
REMARK  12 active torsions:
REMARK  status: ('A' for Active; 'I' for Inactive)
REMARK    1  A    between atoms: C_1  and  C_2
REMARK    2  A    between atoms: N_6  and  C_21
REMARK    3  A    between atoms: C_10  and  C_20
REMARK    4  A    between atoms: N_11  and  C_12
REMARK    5  A    between atoms: C_12  and  C_13
REMARK    6  A    between atoms: C_21  and  C_22
REMARK    7  A    between atoms: N_24  and  C_25
REMARK    8  A    between atoms: C_25  and  C_26
REMARK    9  A    between atoms: C_26  and  C_27
REMARK   10  A    between atoms: C_27  and  N_28
REMARK   11  A    between atoms: C_30  and  C_37
REMARK   12  A    between atoms: C_33  and  C_36
REMARK                            x       y       z     vdW  Elec       q    Type
REMARK                         _______ _______ _______ _____ _____    ______ ____
ROOT
ATOM      1  C   UNL     1      -2.868   0.579   0.236  0.00  0.00    +0.064 C 
ATOM      2  C   UNL     1      -1.765   1.604   0.167  0.00  0.00    +0.026 A 
ATOM      3  C   UNL     1      -1.910   2.938   0.354  0.00  0.00    +0.028 A 
ATOM      4  C   UNL     1      -3.016   3.849   0.658  0.00  0.00    +0.143 A 
ATOM      5  N   UNL     1      -2.792   5.123   0.767  0.00  0.00    -0.176 NA
ATOM      6  N   UNL     1      -1.534   5.699   0.609  0.00  0.00    -0.220 N 
ATOM      7  C   UNL     1      -0.431   4.975   0.327  0.00  0.00    +0.277 A 
ATOM      8  O   UNL     1       0.652   5.517   0.197  0.00  0.00    -0.265 OA
ATOM      9  C   UNL     1      -0.561   3.523   0.181  0.00  0.00    +0.070 A 
ATOM     10  C   UNL     1       0.269   2.484  -0.088  0.00  0.00    +0.029 A 
ATOM     11  N   UNL     1      -0.454   1.344  -0.092  0.00  0.00    -0.342 N 
ATOM     12  C   UNL     1       1.751   2.586  -0.341  0.00  0.00    +0.064 C 
ENDROOT
BRANCH  11  13
ATOM     13  C   UNL     1       0.097   0.010  -0.345  0.00  0.00    +0.159 C 
BRANCH  13  14
ATOM     14  C   UNL     1       0.372  -0.677   0.968  0.00  0.00    +0.007 A 
ATOM     15  C   UNL     1      -0.642  -1.352   1.621  0.00  0.00    +0.008 A 
ATOM     16  C   UNL     1      -0.390  -1.983   2.824  0.00  0.00    +0.000 A 
ATOM     17  C   UNL     1       0.877  -1.940   3.376  0.00  0.00    +0.003 A 
ATOM     18  C   UNL     1       1.893  -1.266   2.725  0.00  0.00    +0.039 A 
ATOM     19  C   UNL     1       1.642  -0.638   1.517  0.00  0.00    +0.128 A 
ATOM     20  F   UNL     1       2.635   0.017   0.876  0.00  0.00    -0.205 F 
ENDBRANCH  13  14
ENDBRANCH  11  13
BRANCH   6  21
ATOM     21  C   UNL     1      -1.403   7.151   0.755  0.00  0.00    +0.243 C 
BRANCH  21  22
ATOM     22  C   UNL     1      -1.606   7.811  -0.584  0.00  0.00    +0.235 C 
ATOM     23  O   UNL     1      -1.838   7.135  -1.564  0.00  0.00    -0.274 OA
ATOM     24  N   UNL     1      -1.531   9.152  -0.693  0.00  0.00    -0.314 N 
ATOM     25  H   UNL     1      -1.321   9.765   0.196  0.00  0.00    +0.149 HD
BRANCH  24  26
ATOM     26  C   UNL     1      -1.729   9.794  -1.995  0.00  0.00    +0.102 C 
BRANCH  26  27
ATOM     27  C   UNL     1      -1.592  11.310  -1.842  0.00  0.00    +0.000 C 
BRANCH  27  28
ATOM     28  C   UNL     1      -1.798  11.980  -3.202  0.00  0.00    -0.077 C 
BRANCH  28  29
ATOM     29  N   UNL     1      -1.667  13.436  -3.055  0.00  0.00    +0.380 N 
ATOM     30  C   UNL     1      -2.748  13.981  -2.224  0.00  0.00    -0.076 C 
ATOM     31  C   UNL     1      -2.499  15.470  -1.973  0.00  0.00    -0.031 C 
ATOM     32  C   UNL     1      -2.441  16.206  -3.314  0.00  0.00    +0.003 C 
ATOM     33  C   UNL     1      -1.340  15.588  -4.180  0.00  0.00    -0.031 C 
ATOM     34  C   UNL     1      -1.623  14.095  -4.367  0.00  0.00    -0.076 C 
ATOM     35  C   UNL     1      -1.316  16.278  -5.545  0.00  0.00    +0.005 C 
ATOM     36  C   UNL     1      -1.171  15.649  -1.235  0.00  0.00    +0.005 C 
ATOM     37  H   UNL     1      -0.715  13.642  -2.545  0.00  0.00    -0.082 HD
ENDBRANCH  28  29
ENDBRANCH  27  28
ENDBRANCH  26  27
ENDBRANCH  24  26
ENDBRANCH  21  22
ENDBRANCH   6  21
TORSDOF 8
