REMARK  Name = ZINC65137514
REMARK  10 active torsions:
REMARK  status: ('A' for Active; 'I' for Inactive)
REMARK    1  A    between atoms: C_1  and  C_2
REMARK    2  A    between atoms: C_3  and  C_26
REMARK    3  A    between atoms: C_5  and  C_7
REMARK    4  A    between atoms: C_9  and  S_13
REMARK    5  A    between atoms: N_11  and  C_12
REMARK    6  A    between atoms: S_13  and  N_16
REMARK    7  A    between atoms: N_16  and  C_17
REMARK    8  A    between atoms: C_20  and  C_23
REMARK    9  A    between atoms: C_23  and  C_24
REMARK   10  A    between atoms: C_23  and  C_25
REMARK                            x       y       z     vdW  Elec       q    Type
REMARK                         _______ _______ _______ _____ _____    ______ ____
ROOT
ATOM      1  C   UNL     1       0.663  -2.715   2.355  0.00  0.00    +0.076 A 
ATOM      2  C   UNL     1       1.509  -3.789   2.391  0.00  0.00    +0.058 A 
ATOM      3  C   UNL     1       1.526  -4.261   3.710  0.00  0.00    +0.128 A 
ATOM      4  C   UNL     1       0.703  -3.474   4.441  0.00  0.00    +0.114 A 
ATOM      5  N   UNL     1       0.174  -2.523   3.624  0.00  0.00    -0.346 N 
ATOM      6  C   UNL     1      -0.763  -1.473   4.030  0.00  0.00    +0.149 C 
ENDROOT
BRANCH   1  11
ATOM      7  C   UNL     1      -1.559   0.955  -0.158  0.00  0.00    +0.067 C 
ATOM      8  C   UNL     1      -0.642  -0.238  -0.070  0.00  0.00    +0.058 A 
ATOM      9  C   UNL     1       0.022  -0.699  -1.200  0.00  0.00    +0.097 A 
ATOM     10  S   UNL     1       0.926  -2.079  -0.509  0.00  0.00    -0.061 S 
ATOM     11  C   UNL     1       0.341  -1.906   1.171  0.00  0.00    +0.126 A 
ATOM     12  N   UNL     1      -0.460  -0.847   1.068  0.00  0.00    -0.242 NA
BRANCH   9  13
ATOM     13  C   UNL     1      -0.009  -0.195  -2.574  0.00  0.00    +0.255 C 
ATOM     14  O   UNL     1      -0.133   0.998  -2.782  0.00  0.00    -0.269 OA
ATOM     15  N   UNL     1       0.099  -1.052  -3.609  0.00  0.00    -0.297 N 
ATOM     16  C   UNL     1       0.117  -2.503  -3.381  0.00  0.00    +0.108 C 
ATOM     17  C   UNL     1      -0.966  -3.152  -4.248  0.00  0.00    +0.019 C 
ATOM     18  C   UNL     1      -0.757  -2.743  -5.708  0.00  0.00    +0.003 C 
ATOM     19  C   UNL     1      -0.882  -1.223  -5.837  0.00  0.00    +0.019 C 
ATOM     20  C   UNL     1       0.196  -0.552  -4.987  0.00  0.00    +0.108 C 
ENDBRANCH   9  13
ENDBRANCH   1  11
BRANCH   3  21
ATOM     21  S   UNL     1       2.455  -5.632   4.310  0.00  0.00    +0.093 S 
ATOM     22  O   UNL     1       1.788  -6.095   5.476  0.00  0.00    -0.148 OA
ATOM     23  O   UNL     1       2.707  -6.472   3.192  0.00  0.00    -0.148 OA
BRANCH  21  24
ATOM     24  N   UNL     1       3.924  -5.050   4.805  0.00  0.00    -0.098 NA
BRANCH  24  25
ATOM     25  C   UNL     1       4.879  -5.921   5.333  0.00  0.00    +0.074 A 
ATOM     26  C   UNL     1       4.601  -7.278   5.439  0.00  0.00    +0.027 A 
ATOM     27  C   UNL     1       5.547  -8.137   5.961  0.00  0.00    +0.006 A 
ATOM     28  C   UNL     1       6.771  -7.648   6.379  0.00  0.00    -0.045 A 
ATOM     29  C   UNL     1       7.052  -6.298   6.276  0.00  0.00    +0.006 A 
ATOM     30  C   UNL     1       6.112  -5.434   5.749  0.00  0.00    +0.027 A 
BRANCH  28  31
ATOM     31  C   UNL     1       7.802  -8.589   6.949  0.00  0.00    +0.013 C 
ATOM     32  C   UNL     1       9.068  -8.539   6.092  0.00  0.00    +0.012 C 
ATOM     33  C   UNL     1       8.138  -8.169   8.382  0.00  0.00    +0.012 C 
ENDBRANCH  28  31
ENDBRANCH  24  25
ENDBRANCH  21  24
ENDBRANCH   3  21
TORSDOF 6
