REMARK  Name = ZINC14475925
REMARK  3 active torsions:
REMARK  status: ('A' for Active; 'I' for Inactive)
REMARK    1  A    between atoms: C_9  and  C_18
REMARK    2  A    between atoms: C_20  and  N_25
REMARK    3  A    between atoms: C_23  and  O_24
REMARK                            x       y       z     vdW  Elec       q    Type
REMARK                         _______ _______ _______ _____ _____    ______ ____
ROOT
ATOM      1  C   UNL     1       5.276  -2.088   1.874  0.00  0.00    +0.003 A 
ATOM      2  C   UNL     1       4.792  -0.927   2.440  0.00  0.00    +0.006 A 
ATOM      3  C   UNL     1       4.603   0.212   1.667  0.00  0.00    -0.017 A 
ATOM      4  C   UNL     1       4.907   0.176   0.320  0.00  0.00    +0.067 A 
ATOM      5  C   UNL     1       5.397  -1.000  -0.251  0.00  0.00    +0.144 A 
ATOM      6  C   UNL     1       5.580  -2.127   0.525  0.00  0.00    +0.040 A 
ATOM      7  F   UNL     1       5.692  -1.035  -1.569  0.00  0.00    -0.204 F 
ATOM      8  N   UNL     1       4.755   1.306  -0.515  0.00  0.00    -0.334 N 
ATOM      9  C   UNL     1       3.682   2.172  -0.022  0.00  0.00    +0.109 C 
ATOM     10  C   UNL     1       4.001   2.640   1.388  0.00  0.00    +0.029 C 
ATOM     11  C   UNL     1       4.068   1.440   2.355  0.00  0.00    +0.049 C 
ATOM     12  C   UNL     1       5.115   1.894   3.379  0.00  0.00    -0.023 C 
ATOM     13  C   UNL     1       5.864   2.849   2.890  0.00  0.00    -0.030 C 
ATOM     14  C   UNL     1       5.454   3.170   1.465  0.00  0.00    +0.033 C 
ATOM     15  H   UNL     1       5.312   1.583  -1.422  0.00  0.00    +0.147 HD
ENDROOT
BRANCH   9  16
ATOM     16  C   UNL     1       2.385   1.405  -0.014  0.00  0.00    +0.017 A 
ATOM     17  C   UNL     1       1.545   1.479   1.081  0.00  0.00    +0.041 A 
ATOM     18  C   UNL     1       0.355   0.776   1.090  0.00  0.00    +0.127 A 
ATOM     19  C   UNL     1       0.002  -0.003   0.004  0.00  0.00    +0.036 A 
ATOM     20  C   UNL     1       0.837  -0.080  -1.093  0.00  0.00    +0.048 A 
ATOM     21  C   UNL     1       2.032   0.625  -1.105  0.00  0.00    +0.122 A 
BRANCH  18  22
ATOM     22  N   UNL     1      -0.542   0.857   2.264  0.00  0.00    +0.056 N 
ATOM     23  O   UNL     1      -1.591   0.237   2.273  0.00  0.00    -0.126 OA
ATOM     24  O   UNL     1      -0.232   1.543   3.222  0.00  0.00    -0.126 OA
ENDBRANCH  18  22
BRANCH  21  25
ATOM     25  O   UNL     1       2.856   0.550  -2.183  0.00  0.00    -0.506 OA
ATOM     26  H   UNL     1       2.576  -0.069  -3.048  0.00  0.00    +0.292 HD
ENDBRANCH  21  25
ENDBRANCH   9  16
TORSDOF 3
