REMARK  Name = ZINC39276688
REMARK  5 active torsions:
REMARK  status: ('A' for Active; 'I' for Inactive)
REMARK    1  A    between atoms: C_7  and  C_10
REMARK    2  A    between atoms: C_10  and  C_11
REMARK    3  A    between atoms: C_11  and  N_12
REMARK    4  A    between atoms: C_13  and  C_32
REMARK    5  A    between atoms: C_17  and  C_25
REMARK                            x       y       z     vdW  Elec       q    Type
REMARK                         _______ _______ _______ _____ _____    ______ ____
ROOT
ATOM      1  N   UNL     1      -4.991   4.987  -1.292  0.00  0.00    -0.290 N 
ATOM      2  C   UNL     1      -6.401   5.423  -1.553  0.00  0.00    +0.133 C 
ATOM      3  C   UNL     1      -6.186   6.790  -2.085  0.00  0.00    +0.079 C 
ATOM      4  C   UNL     1      -6.949   8.064  -2.096  0.00  0.00    +0.136 C 
ATOM      5  N   UNL     1      -5.806   9.031  -2.152  0.00  0.00    -0.305 N 
ATOM      6  N   UNL     1      -4.781   8.551  -1.595  0.00  0.00    -0.203 NA
ATOM      7  C   UNL     1      -5.124   7.267  -0.994  0.00  0.00    +0.218 C 
ATOM      8  C   UNL     1      -4.198   6.091  -1.100  0.00  0.00    +0.243 C 
ATOM      9  O   UNL     1      -2.987   6.113  -1.032  0.00  0.00    -0.273 OA
ATOM     10  H   UNL     1      -5.848   9.910  -2.562  0.00  0.00    +0.183 HD
ENDROOT
BRANCH   4  11
ATOM     11  C   UNL     1      -7.823   8.171  -3.320  0.00  0.00    -0.023 A 
ATOM     12  C   UNL     1      -7.273   8.552  -4.530  0.00  0.00    +0.007 A 
ATOM     13  C   UNL     1      -8.074   8.650  -5.652  0.00  0.00    +0.015 A 
ATOM     14  C   UNL     1      -9.425   8.367  -5.565  0.00  0.00    +0.018 A 
ATOM     15  C   UNL     1      -9.974   7.986  -4.354  0.00  0.00    +0.015 A 
ATOM     16  C   UNL     1      -9.172   7.883  -3.233  0.00  0.00    +0.007 A 
ATOM     17 BR   UNL     1     -10.521   8.501  -7.100  0.00  0.00    -0.050 Br
ENDBRANCH   4  11
BRANCH   2  18
ATOM     18  C   UNL     1      -7.060   4.539  -2.580  0.00  0.00    +0.062 A 
ATOM     19  C   UNL     1      -8.246   3.900  -2.271  0.00  0.00    +0.025 A 
ATOM     20  C   UNL     1      -8.844   3.089  -3.223  0.00  0.00    +0.003 A 
ATOM     21  C   UNL     1      -8.224   2.950  -4.455  0.00  0.00    +0.020 A 
ATOM     22  C   UNL     1      -7.039   3.620  -4.692  0.00  0.00    +0.111 A 
ATOM     23  N   UNL     1      -6.501   4.388  -3.765  0.00  0.00    -0.258 NA
ENDBRANCH   2  18
BRANCH   1  24
ATOM     24  C   UNL     1      -4.531   3.597  -1.242  0.00  0.00    +0.113 C 
BRANCH  24  25
ATOM     25  C   UNL     1      -4.571   3.098   0.203  0.00  0.00    +0.056 C 
BRANCH  25  32
ATOM     26  C   UNL     1      -0.323   1.133   0.475  0.00  0.00    +0.001 A 
ATOM     27  C   UNL     1      -0.370  -0.254   0.495  0.00  0.00    +0.002 A 
ATOM     28  C   UNL     1      -1.576  -0.918   0.439  0.00  0.00    +0.026 A 
ATOM     29  C   UNL     1      -2.760  -0.193   0.360  0.00  0.00    +0.047 A 
ATOM     30  N   UNL     1      -4.088  -0.551   0.291  0.00  0.00    -0.360 N 
ATOM     31  C   UNL     1      -4.869   0.570   0.229  0.00  0.00    +0.087 A 
ATOM     32  C   UNL     1      -4.097   1.668   0.254  0.00  0.00    -0.021 A 
ATOM     33  C   UNL     1      -2.708   1.213   0.340  0.00  0.00    +0.003 A 
ATOM     34  C   UNL     1      -1.475   1.865   0.404  0.00  0.00    +0.010 A 
ATOM     35  H   UNL     1      -4.420  -1.463   0.287  0.00  0.00    +0.165 HD
ENDBRANCH  25  32
ENDBRANCH  24  25
ENDBRANCH   1  24
TORSDOF 5
