REMARK  Name = ZINC38671546
REMARK  9 active torsions:
REMARK  status: ('A' for Active; 'I' for Inactive)
REMARK    1  A    between atoms: C_1  and  C_2
REMARK    2  A    between atoms: C_5  and  N_9
REMARK    3  A    between atoms: C_7  and  C_8
REMARK    4  A    between atoms: C_11  and  C_16
REMARK    5  A    between atoms: N_18  and  C_19
REMARK    6  A    between atoms: C_19  and  C_20
REMARK    7  A    between atoms: C_20  and  C_22
REMARK    8  A    between atoms: C_20  and  N_32
REMARK    9  A    between atoms: N_30  and  C_31
REMARK                            x       y       z     vdW  Elec       q    Type
REMARK                         _______ _______ _______ _____ _____    ______ ____
ROOT
ATOM      1  C   UNL     1       4.419  -7.576  -0.597  0.00  0.00    +0.093 C 
ENDROOT
BRANCH   1   4
ATOM      2  C   UNL     1       4.685  -6.198  -2.589  0.00  0.00    +0.218 C 
ATOM      3  O   UNL     1       4.161  -5.282  -1.989  0.00  0.00    -0.275 OA
ATOM      4  N   UNL     1       4.860  -7.388  -1.981  0.00  0.00    -0.316 N 
ATOM      5  H   UNL     1       5.279  -8.120  -2.461  0.00  0.00    +0.149 HD
BRANCH   2   8
ATOM      6  N   UNL     1       3.521  -4.643  -5.143  0.00  0.00    -0.271 N 
ATOM      7  C   UNL     1       4.837  -4.569  -4.499  0.00  0.00    +0.127 C 
ATOM      8  C   UNL     1       5.138  -6.004  -4.013  0.00  0.00    +0.101 C 
ATOM      9  C   UNL     1       4.287  -6.852  -4.986  0.00  0.00    +0.110 C 
ATOM     10  C   UNL     1       3.187  -5.913  -5.428  0.00  0.00    +0.221 C 
ATOM     11  O   UNL     1       2.154  -6.256  -5.963  0.00  0.00    -0.275 OA
BRANCH   6  16
ATOM     12  C   UNL     1       0.251  -0.144  -6.267  0.00  0.00    +0.044 C 
ATOM     13  C   UNL     1       1.119  -1.339  -5.968  0.00  0.00    -0.047 A 
ATOM     14  C   UNL     1       0.727  -2.599  -6.384  0.00  0.00    +0.005 A 
ATOM     15  C   UNL     1       1.521  -3.696  -6.112  0.00  0.00    +0.024 A 
ATOM     16  C   UNL     1       2.714  -3.533  -5.421  0.00  0.00    +0.037 A 
ATOM     17  C   UNL     1       3.106  -2.267  -5.005  0.00  0.00    +0.027 A 
ATOM     18  C   UNL     1       2.310  -1.173  -5.285  0.00  0.00    -0.046 A 
ATOM     19  C   UNL     1       2.736   0.202  -4.839  0.00  0.00    +0.044 C 
ENDBRANCH   6  16
ENDBRANCH   2   8
ENDBRANCH   1   4
BRANCH   1  20
ATOM     20  C   UNL     1       4.850  -8.960  -0.108  0.00  0.00    -0.020 C 
BRANCH  20  21
ATOM     21  C   UNL     1       6.355  -9.049  -0.113  0.00  0.00    -0.059 A 
ATOM     22  C   UNL     1       7.085  -8.499   0.925  0.00  0.00    +0.004 A 
ATOM     23  C   UNL     1       8.461  -8.578   0.924  0.00  0.00    +0.023 A 
ATOM     24  C   UNL     1       9.129  -9.213  -0.126  0.00  0.00    +0.033 A 
ATOM     25  C   UNL     1       8.388  -9.761  -1.161  0.00  0.00    -0.025 A 
ATOM     26  C   UNL     1       7.008  -9.684  -1.152  0.00  0.00    +0.007 A 
ATOM     27  C   UNL     1       9.340 -10.383  -2.157  0.00  0.00    +0.056 C 
ATOM     28  C   UNL     1      10.737 -10.127  -1.568  0.00  0.00    +0.109 C 
ATOM     29  N   UNL     1      10.498  -9.401  -0.318  0.00  0.00    -0.332 N 
ATOM     30  C   UNL     1      11.545  -8.938   0.597  0.00  0.00    +0.129 C 
ENDBRANCH  20  21
BRANCH  20  31
ATOM     31  N   UNL     1       4.352  -9.175   1.257  0.00  0.00    +0.385 N 
ATOM     32  C   UNL     1       4.772 -10.500   1.727  0.00  0.00    -0.078 C 
ATOM     33  C   UNL     1       4.324 -10.697   3.177  0.00  0.00    -0.019 C 
ATOM     34  C   UNL     1       2.799 -10.586   3.255  0.00  0.00    -0.004 C 
ATOM     35  C   UNL     1       2.367  -9.228   2.693  0.00  0.00    -0.019 C 
ATOM     36  C   UNL     1       2.886  -9.086   1.260  0.00  0.00    -0.078 C 
ATOM     37  H   UNL     1       4.732  -8.467   1.868  0.00  0.00    -0.081 HD
ENDBRANCH  20  31
ENDBRANCH   1  20
TORSDOF 6
