REMARK  Name = ZINC59310771
REMARK  7 active torsions:
REMARK  status: ('A' for Active; 'I' for Inactive)
REMARK    1  A    between atoms: C_1  and  C_2
REMARK    2  A    between atoms: C_2  and  C_3
REMARK    3  A    between atoms: C_2  and  S_4
REMARK    4  A    between atoms: S_4  and  C_5
REMARK    5  A    between atoms: N_11  and  N_12
REMARK    6  A    between atoms: C_13  and  C_14
REMARK    7  A    between atoms: C_13  and  C_15
REMARK                            x       y       z     vdW  Elec       q    Type
REMARK                         _______ _______ _______ _____ _____    ______ ____
ROOT
ATOM      1  N   UNL     1      -4.877   0.886  -5.253  0.00  0.00    -0.189 NA
ATOM      2  C   UNL     1      -5.926   0.880  -5.988  0.00  0.00    +0.040 C 
ATOM      3  C   UNL     1      -7.177   0.189  -5.509  0.00  0.00    +0.063 C 
ENDROOT
BRANCH   2   4
ATOM      4  C   UNL     1      -5.909   1.563  -7.331  0.00  0.00    +0.011 C 
ATOM      5  C   UNL     1      -6.972   2.664  -7.356  0.00  0.00    +0.016 C 
ATOM      6  C   UNL     1      -6.955   3.358  -8.719  0.00  0.00    -0.010 C 
ATOM      7  C   UNL     1      -5.576   3.975  -8.960  0.00  0.00    +0.007 C 
ATOM      8  C   UNL     1      -4.514   2.874  -8.935  0.00  0.00    -0.010 C 
ATOM      9  C   UNL     1      -4.530   2.180  -7.572  0.00  0.00    +0.016 C 
ATOM     10  C   UNL     1      -4.814   1.851 -10.032  0.00  0.00    +0.007 C 
ATOM     11  C   UNL     1      -6.193   1.234  -9.791  0.00  0.00    -0.010 C 
ATOM     12  C   UNL     1      -7.255   2.334  -9.816  0.00  0.00    +0.007 C 
ATOM     13  C   UNL     1      -6.209   0.540  -8.428  0.00  0.00    +0.016 C 
ENDBRANCH   2   4
BRANCH   1  20
ATOM     14  C   UNL     1      -2.365  -0.093  -1.525  0.00  0.00    +0.191 A 
ATOM     15  N   UNL     1      -3.634  -0.322  -1.976  0.00  0.00    -0.303 N 
ATOM     16  H   UNL     1      -4.327  -0.808  -1.504  0.00  0.00    +0.171 HD
ATOM     17  C   UNL     1      -3.755   0.257  -3.209  0.00  0.00    +0.235 A 
ATOM     18  N   UNL     1      -2.609   0.819  -3.507  0.00  0.00    -0.111 NA
ATOM     19  N   UNL     1      -1.729   0.602  -2.438  0.00  0.00    -0.121 NA
ATOM     20  N   UNL     1      -4.892   0.250  -4.005  0.00  0.00    -0.205 N 
ATOM     21  H   UNL     1      -5.697  -0.194  -3.697  0.00  0.00    +0.177 HD
BRANCH  14  22
ATOM     22  S   UNL     1      -1.700  -0.632   0.015  0.00  0.00    -0.083 S 
BRANCH  22  24
ATOM     23  C   UNL     1      -0.019   1.526   0.010  0.00  0.00    +0.019 C 
ATOM     24  C   UNL     1       0.002  -0.004   0.002  0.00  0.00    +0.048 C 
ATOM     25  C   UNL     1       0.742  -0.511   1.242  0.00  0.00    +0.019 C 
ENDBRANCH  22  24
ENDBRANCH  14  22
ENDBRANCH   1  20
TORSDOF 4
