REMARK  Name = ZINC02317867
REMARK  9 active torsions:
REMARK  status: ('A' for Active; 'I' for Inactive)
REMARK    1  A    between atoms: C_1  and  C_2
REMARK    2  A    between atoms: C_5  and  C_8
REMARK    3  A    between atoms: C_11  and  S_14
REMARK    4  A    between atoms: S_14  and  C_15
REMARK    5  A    between atoms: C_15  and  C_16
REMARK    6  A    between atoms: C_22  and  O_34
REMARK    7  A    between atoms: C_31  and  C_32
REMARK    8  A    between atoms: C_31  and  C_33
REMARK    9  A    between atoms: O_34  and  C_35
REMARK                            x       y       z     vdW  Elec       q    Type
REMARK                         _______ _______ _______ _____ _____    ______ ____
ROOT
ATOM      1  C   UNL     1      -6.735   0.186   0.817  0.00  0.00    +0.231 C 
ATOM      2  O   UNL     1      -7.747  -0.483   0.836  0.00  0.00    -0.274 OA
ATOM      3  N   UNL     1      -6.133   0.528   1.973  0.00  0.00    -0.260 N 
ATOM      4  C   UNL     1      -4.895   1.186   1.956  0.00  0.00    +0.045 A 
ATOM      5  C   UNL     1      -3.998   0.970   0.920  0.00  0.00    +0.028 A 
ATOM      6  C   UNL     1      -2.804   1.666   0.889  0.00  0.00    +0.047 A 
ATOM      7  C   UNL     1      -2.485   2.572   1.891  0.00  0.00    +0.121 A 
ATOM      8  C   UNL     1      -3.371   2.790   2.938  0.00  0.00    +0.056 A 
ATOM      9  C   UNL     1      -4.566   2.089   2.968  0.00  0.00    +0.009 A 
ATOM     10  C   UNL     1      -5.545   2.300   4.102  0.00  0.00    +0.018 A 
ATOM     11  C   UNL     1      -6.583   1.390   4.190  0.00  0.00    +0.029 A 
ATOM     12  S   UNL     1      -7.636   1.782   5.509  0.00  0.00    -0.053 S 
ATOM     13  S   UNL     1      -6.584   3.465   6.170  0.00  0.00    -0.044 S 
ATOM     14  C   UNL     1      -5.329   3.397   4.972  0.00  0.00    +0.071 A 
ATOM     15  S   UNL     1      -4.021   4.496   4.859  0.00  0.00    -0.043 S 
ATOM     16  C   UNL     1      -6.768   0.215   3.260  0.00  0.00    +0.069 C 
ATOM     17  C   UNL     1      -8.261  -0.041   3.047  0.00  0.00    +0.037 C 
ATOM     18  C   UNL     1      -6.115  -1.030   3.865  0.00  0.00    +0.037 C 
ENDROOT
BRANCH   7  19
ATOM     19  O   UNL     1      -1.309   3.252   1.844  0.00  0.00    -0.495 OA
ATOM     20  C   UNL     1      -0.445   2.979   0.739  0.00  0.00    +0.277 C 
ENDBRANCH   7  19
BRANCH   1  21
ATOM     21  C   UNL     1      -6.152   0.633  -0.498  0.00  0.00    +0.173 C 
BRANCH  21  22
ATOM     22  S   UNL     1      -7.445   0.623  -1.766  0.00  0.00    -0.077 S 
BRANCH  22  26
ATOM     23  C   UNL     1      -5.906   1.788  -5.163  0.00  0.00    +0.162 A 
ATOM     24  N   UNL     1      -6.983   1.352  -4.426  0.00  0.00    -0.316 N 
ATOM     25  H   UNL     1      -7.888   1.205  -4.742  0.00  0.00    +0.169 HD
ATOM     26  C   UNL     1      -6.513   1.172  -3.157  0.00  0.00    +0.190 A 
ATOM     27  N   UNL     1      -5.235   1.478  -3.168  0.00  0.00    -0.122 NA
ATOM     28  N   UNL     1      -4.878   1.841  -4.348  0.00  0.00    -0.129 NA
BRANCH  23  33
ATOM     29  C   UNL     1      -5.900   3.106 -10.764  0.00  0.00    +0.044 C 
ATOM     30  C   UNL     1      -5.902   2.761  -9.297  0.00  0.00    -0.050 A 
ATOM     31  C   UNL     1      -4.733   2.866  -8.564  0.00  0.00    +0.004 A 
ATOM     32  C   UNL     1      -4.728   2.551  -7.221  0.00  0.00    +0.012 A 
ATOM     33  C   UNL     1      -5.904   2.126  -6.602  0.00  0.00    +0.019 A 
ATOM     34  C   UNL     1      -7.078   2.017  -7.349  0.00  0.00    +0.012 A 
ATOM     35  C   UNL     1      -7.071   2.340  -8.690  0.00  0.00    +0.004 A 
ENDBRANCH  23  33
ENDBRANCH  22  26
ENDBRANCH  21  22
ENDBRANCH   1  21
TORSDOF 5
