REMARK  Name = ZINC66200332
REMARK  13 active torsions:
REMARK  status: ('A' for Active; 'I' for Inactive)
REMARK    1  A    between atoms: C_1  and  C_2
REMARK    2  A    between atoms: C_2  and  C_4
REMARK    3  A    between atoms: C_2  and  O_25
REMARK    4  A    between atoms: N_6  and  C_7
REMARK    5  A    between atoms: C_10  and  S_13
REMARK    6  A    between atoms: S_13  and  N_16
REMARK    7  A    between atoms: N_16  and  C_17
REMARK    8  A    between atoms: C_18  and  O_23
REMARK    9  A    between atoms: O_23  and  C_24
REMARK   10  A    between atoms: O_25  and  C_26
REMARK   11  A    between atoms: C_29  and  C_32
REMARK   12  A    between atoms: C_32  and  C_33
REMARK   13  A    between atoms: C_32  and  C_34
REMARK                            x       y       z     vdW  Elec       q    Type
REMARK                         _______ _______ _______ _____ _____    ______ ____
ROOT
ATOM      1  C   UNL     1       1.438  -0.487   3.374  0.00  0.00    +0.034 A 
ATOM      2  C   UNL     1       1.025  -1.124   4.537  0.00  0.00    +0.025 A 
ATOM      3  C   UNL     1       1.887  -1.225   5.611  0.00  0.00    +0.031 A 
ATOM      4  C   UNL     1       3.161  -0.694   5.529  0.00  0.00    +0.111 A 
ATOM      5  C   UNL     1       3.576  -0.058   4.373  0.00  0.00    +0.031 A 
ATOM      6  C   UNL     1       2.720   0.041   3.293  0.00  0.00    +0.025 A 
ENDROOT
BRANCH   1   9
ATOM      7  C   UNL     1       1.051  -0.434   1.027  0.00  0.00    +0.258 C 
ATOM      8  O   UNL     1       2.225  -0.675   0.839  0.00  0.00    -0.271 OA
ATOM      9  N   UNL     1       0.567  -0.382   2.284  0.00  0.00    -0.282 N 
ATOM     10  H   UNL     1      -0.385  -0.272   2.433  0.00  0.00    +0.155 HD
BRANCH   7  12
ATOM     11  C   UNL     1      -0.374   1.249  -0.106  0.00  0.00    +0.062 C 
ATOM     12  C   UNL     1       0.133  -0.194  -0.144  0.00  0.00    +0.256 C 
BRANCH  12  13
ATOM     13  O   UNL     1       0.847  -0.416  -1.362  0.00  0.00    -0.480 OA
BRANCH  13  14
ATOM     14  C   UNL     1       0.113  -0.751  -2.455  0.00  0.00    +0.122 A 
ATOM     15  C   UNL     1       0.747  -1.098  -3.639  0.00  0.00    +0.046 A 
ATOM     16  C   UNL     1      -0.002  -1.438  -4.749  0.00  0.00    +0.007 A 
ATOM     17  C   UNL     1      -1.383  -1.432  -4.681  0.00  0.00    -0.045 A 
ATOM     18  C   UNL     1      -2.018  -1.086  -3.502  0.00  0.00    +0.007 A 
ATOM     19  C   UNL     1      -1.273  -0.751  -2.388  0.00  0.00    +0.046 A 
BRANCH  17  20
ATOM     20  C   UNL     1      -2.197  -1.803  -5.893  0.00  0.00    +0.013 C 
ATOM     21  C   UNL     1      -3.067  -3.020  -5.571  0.00  0.00    +0.012 C 
ATOM     22  C   UNL     1      -3.092  -0.626  -6.286  0.00  0.00    +0.012 C 
ENDBRANCH  17  20
ENDBRANCH  13  14
ENDBRANCH  12  13
ENDBRANCH   7  12
ENDBRANCH   1   9
BRANCH   4  23
ATOM     23  S   UNL     1       4.258  -0.825   6.902  0.00  0.00    +0.093 S 
ATOM     24  O   UNL     1       5.201   0.230   6.771  0.00  0.00    -0.148 OA
ATOM     25  O   UNL     1       3.446  -0.983   8.057  0.00  0.00    -0.148 OA
BRANCH  23  26
ATOM     26  N   UNL     1       5.102  -2.239   6.720  0.00  0.00    -0.072 NA
BRANCH  26  27
ATOM     27  C   UNL     1       6.052  -2.609   7.668  0.00  0.00    +0.225 A 
ATOM     28  C   UNL     1       6.771  -3.800   7.514  0.00  0.00    +0.259 A 
ATOM     29  N   UNL     1       7.672  -4.145   8.418  0.00  0.00    -0.217 NA
ATOM     30  C   UNL     1       7.892  -3.364   9.465  0.00  0.00    +0.134 A 
ATOM     31  C   UNL     1       7.184  -2.190   9.618  0.00  0.00    +0.133 A 
ATOM     32  N   UNL     1       6.283  -1.832   8.715  0.00  0.00    -0.231 NA
BRANCH  28  33
ATOM     33  O   UNL     1       6.543  -4.599   6.440  0.00  0.00    -0.477 OA
ATOM     34  C   UNL     1       7.314  -5.799   6.350  0.00  0.00    +0.279 C 
ENDBRANCH  28  33
ENDBRANCH  26  27
ENDBRANCH  23  26
ENDBRANCH   4  23
TORSDOF 9
