REMARK  Name = ZINC20292237
REMARK  9 active torsions:
REMARK  status: ('A' for Active; 'I' for Inactive)
REMARK    1  A    between atoms: C_1  and  C_2
REMARK    2  A    between atoms: C_2  and  C_4
REMARK    3  A    between atoms: C_2  and  N_10
REMARK    4  A    between atoms: C_11  and  C_13
REMARK    5  A    between atoms: C_13  and  S_14
REMARK    6  A    between atoms: S_14  and  C_15
REMARK    7  A    between atoms: N_19  and  N_20
REMARK    8  A    between atoms: N_21  and  N_22
REMARK    9  A    between atoms: C_23  and  C_24
REMARK                            x       y       z     vdW  Elec       q    Type
REMARK                         _______ _______ _______ _____ _____    ______ ____
ROOT
ATOM      1  C   UNL     1       0.619  -1.809   6.307  0.00  0.00    +0.210 A 
ATOM      2  N   UNL     1       1.896  -2.101   6.248  0.00  0.00    -0.119 NA
ATOM      3  N   UNL     1       2.301  -2.536   7.517  0.00  0.00    -0.109 NA
ATOM      4  C   UNL     1       1.258  -2.495   8.310  0.00  0.00    +0.254 A 
ATOM      5  N   UNL     1       0.192  -2.040   7.584  0.00  0.00    -0.211 N 
ATOM      6  N   UNL     1       1.240  -2.848   9.652  0.00  0.00    -0.204 N 
ATOM      7  H   UNL     1       0.415  -2.784  10.159  0.00  0.00    +0.177 HD
ENDROOT
BRANCH   5   8
ATOM      8  N   UNL     1      -1.077  -1.850   8.053  0.00  0.00    -0.294 N 
ATOM      9  H   UNL     1      -1.631  -2.687   7.945  0.00  0.00    +0.163 HD
ATOM     10  H   UNL     1      -1.065  -1.546   9.015  0.00  0.00    +0.163 HD
ENDBRANCH   5   8
BRANCH   6  11
ATOM     11  N   UNL     1       2.412  -3.295  10.275  0.00  0.00    -0.188 NA
ATOM     12  C   UNL     1       2.395  -3.625  11.530  0.00  0.00    +0.138 C 
BRANCH  12  13
ATOM     13  C   UNL     1       3.629  -4.096  12.186  0.00  0.00    -0.004 A 
ATOM     14  C   UNL     1       4.820  -4.183  11.460  0.00  0.00    +0.009 A 
ATOM     15  C   UNL     1       5.971  -4.624  12.079  0.00  0.00    +0.002 A 
ATOM     16  C   UNL     1       5.948  -4.980  13.416  0.00  0.00    +0.015 A 
ATOM     17  C   UNL     1       4.772  -4.896  14.142  0.00  0.00    +0.018 A 
ATOM     18  C   UNL     1       3.614  -4.451  13.537  0.00  0.00    +0.024 A 
ATOM     19 BR   UNL     1       4.754  -5.386  15.968  0.00  0.00    -0.050 Br
ENDBRANCH  12  13
ENDBRANCH   6  11
BRANCH   1  20
ATOM     20  S   UNL     1      -0.371  -1.217   4.976  0.00  0.00    -0.075 S 
BRANCH  20  21
ATOM     21  C   UNL     1       0.780  -1.133   3.576  0.00  0.00    +0.173 C 
BRANCH  21  23
ATOM     22  N   UNL     1       0.711  -0.489   1.189  0.00  0.00    -0.308 N 
ATOM     23  C   UNL     1       0.051  -0.633   2.355  0.00  0.00    +0.224 C 
ATOM     24  O   UNL     1      -1.129  -0.361   2.423  0.00  0.00    -0.275 OA
ATOM     25  H   UNL     1       1.654  -0.707   1.135  0.00  0.00    +0.149 HD
BRANCH  22  27
ATOM     26  C   UNL     1      -0.019   1.526   0.010  0.00  0.00    +0.033 C 
ATOM     27  C   UNL     1       0.002  -0.004   0.002  0.00  0.00    +0.100 C 
BRANCH  27  28
ATOM     28  C   UNL     1       0.707  -0.490  -1.238  0.00  0.00    -0.027 A 
ATOM     29  C   UNL     1       2.089  -0.511  -1.284  0.00  0.00    +0.005 A 
ATOM     30  C   UNL     1       2.736  -0.957  -2.421  0.00  0.00    +0.000 A 
ATOM     31  C   UNL     1       2.002  -1.382  -3.512  0.00  0.00    +0.000 A 
ATOM     32  C   UNL     1       0.620  -1.362  -3.466  0.00  0.00    +0.000 A 
ATOM     33  C   UNL     1      -0.027  -0.920  -2.327  0.00  0.00    +0.005 A 
ENDBRANCH  27  28
ENDBRANCH  22  27
ENDBRANCH  21  23
ENDBRANCH  20  21
ENDBRANCH   1  20
TORSDOF 8
