REMARK  Name = ZINC24273413
REMARK  9 active torsions:
REMARK  status: ('A' for Active; 'I' for Inactive)
REMARK    1  A    between atoms: C_1  and  C_2
REMARK    2  A    between atoms: N_7  and  S_9
REMARK    3  A    between atoms: S_9  and  C_12
REMARK    4  A    between atoms: C_15  and  N_18
REMARK    5  A    between atoms: N_18  and  S_19
REMARK    6  A    between atoms: S_19  and  C_22
REMARK    7  A    between atoms: C_24  and  N_30
REMARK    8  A    between atoms: C_27  and  O_28
REMARK    9  A    between atoms: O_28  and  C_29
REMARK                            x       y       z     vdW  Elec       q    Type
REMARK                         _______ _______ _______ _____ _____    ______ ____
ROOT
ATOM      1  C   UNL     1       0.458  -0.566   1.575  0.00  0.00    +0.106 A 
ATOM      2  C   UNL     1       1.601  -0.862   2.295  0.00  0.00    +0.030 A 
ATOM      3  C   UNL     1       1.504  -1.252   3.616  0.00  0.00    +0.028 A 
ATOM      4  C   UNL     1       0.257  -1.359   4.219  0.00  0.00    +0.074 A 
ATOM      5  C   UNL     1      -0.889  -1.066   3.491  0.00  0.00    +0.028 A 
ATOM      6  C   UNL     1      -0.786  -0.671   2.172  0.00  0.00    +0.030 A 
ENDROOT
BRANCH   1   7
ATOM      7  S   UNL     1       0.585  -0.061  -0.108  0.00  0.00    +0.061 S 
ATOM      8  O   UNL     1      -0.658  -0.374  -0.721  0.00  0.00    -0.153 OA
ATOM      9  O   UNL     1       1.822  -0.567  -0.591  0.00  0.00    -0.153 OA
BRANCH   7  15
ATOM     10  C   UNL     1       3.349   4.019   1.105  0.00  0.00    +0.009 C 
ATOM     11  C   UNL     1       2.033   3.239   1.107  0.00  0.00    +0.002 C 
ATOM     12  C   UNL     1       0.862   4.209   0.941  0.00  0.00    +0.006 C 
ATOM     13  C   UNL     1      -0.456   3.432   0.976  0.00  0.00    +0.017 C 
ATOM     14  C   UNL     1      -0.486   2.434  -0.192  0.00  0.00    +0.109 C 
ATOM     15  N   UNL     1       0.714   1.590  -0.116  0.00  0.00    -0.176 NA
ATOM     16  C   UNL     1       2.031   2.238  -0.053  0.00  0.00    +0.112 C 
ENDBRANCH   7  15
ENDBRANCH   1   7
BRANCH   4  17
ATOM     17  N   UNL     1       0.156  -1.758   5.553  0.00  0.00    -0.098 NA
BRANCH  17  18
ATOM     18  S   UNL     1       1.020  -3.063   6.095  0.00  0.00    +0.095 S 
ATOM     19  O   UNL     1       2.373  -2.836   5.725  0.00  0.00    -0.148 OA
ATOM     20  O   UNL     1       0.625  -3.281   7.442  0.00  0.00    -0.148 OA
BRANCH  18  21
ATOM     21  C   UNL     1       0.476  -4.465   5.177  0.00  0.00    +0.154 A 
ATOM     22  C   UNL     1       1.351  -5.121   4.332  0.00  0.00    +0.065 A 
ATOM     23  C   UNL     1       0.925  -6.221   3.612  0.00  0.00    +0.128 A 
ATOM     24  C   UNL     1      -0.378  -6.669   3.735  0.00  0.00    +0.036 A 
ATOM     25  C   UNL     1      -1.256  -6.017   4.578  0.00  0.00    +0.050 A 
ATOM     26  C   UNL     1      -0.830  -4.916   5.306  0.00  0.00    +0.147 A 
BRANCH  23  27
ATOM     27  N   UNL     1       1.864  -6.921   2.708  0.00  0.00    +0.056 N 
ATOM     28  O   UNL     1       3.012  -6.528   2.598  0.00  0.00    -0.126 OA
ATOM     29  O   UNL     1       1.490  -7.891   2.072  0.00  0.00    -0.126 OA
ENDBRANCH  23  27
BRANCH  26  30
ATOM     30  O   UNL     1      -1.691  -4.276   6.141  0.00  0.00    -0.493 OA
ATOM     31  C   UNL     1      -3.048  -4.722   6.138  0.00  0.00    +0.277 C 
ENDBRANCH  26  30
ENDBRANCH  18  21
ENDBRANCH  17  18
ENDBRANCH   4  17
TORSDOF 7
