REMARK  Name = ZINC06220032
REMARK  11 active torsions:
REMARK  status: ('A' for Active; 'I' for Inactive)
REMARK    1  A    between atoms: C_4  and  C_8
REMARK    2  A    between atoms: C_5  and  O_7
REMARK    3  A    between atoms: C_8  and  C_11
REMARK    4  A    between atoms: N_9  and  O_10
REMARK    5  A    between atoms: C_11  and  C_12
REMARK    6  A    between atoms: C_12  and  C_13
REMARK    7  A    between atoms: C_13  and  C_14
REMARK    8  A    between atoms: C_14  and  C_15
REMARK    9  A    between atoms: C_15  and  C_18
REMARK   10  A    between atoms: N_16  and  O_17
REMARK   11  A    between atoms: C_19  and  O_25
REMARK                            x       y       z     vdW  Elec       q    Type
REMARK                         _______ _______ _______ _____ _____    ______ ____
ROOT
ATOM      1  C   UNL     1       6.159  -0.841  -0.051  0.00  0.00    +0.007 C 
ENDROOT
BRANCH   1   2
ATOM      2  C   UNL     1       4.989   0.107   0.220  0.00  0.00    +0.059 C 
BRANCH   2   3
ATOM      3  C   UNL     1       3.701  -0.677   0.233  0.00  0.00    +0.091 C 
ATOM      4  N   UNL     1       3.265  -1.187   1.339  0.00  0.00    -0.091 NA
BRANCH   3   8
ATOM      5  C   UNL     1       1.504  -1.212  -3.364  0.00  0.00    +0.023 A 
ATOM      6  C   UNL     1       2.687  -0.491  -3.376  0.00  0.00    +0.042 A 
ATOM      7  C   UNL     1       3.405  -0.314  -2.212  0.00  0.00    +0.033 A 
ATOM      8  C   UNL     1       2.938  -0.862  -1.016  0.00  0.00    +0.042 A 
ATOM      9  C   UNL     1       1.741  -1.590  -1.008  0.00  0.00    +0.126 A 
ATOM     10  C   UNL     1       1.032  -1.759  -2.186  0.00  0.00    +0.047 A 
ATOM     11 CL   UNL     1       3.268   0.191  -4.863  0.00  0.00    -0.084 Cl
BRANCH   9  12
ATOM     12  O   UNL     1       1.278  -2.128   0.150  0.00  0.00    -0.506 OA
ATOM     13  H   UNL     1       0.694  -1.542   0.650  0.00  0.00    +0.292 HD
ENDBRANCH   9  12
ENDBRANCH   3   8
BRANCH   4  14
ATOM     14  O   UNL     1       4.051  -1.106   2.514  0.00  0.00    -0.409 OA
ATOM     15  H   UNL     1       3.643  -1.514   3.290  0.00  0.00    +0.328 HD
ENDBRANCH   4  14
ENDBRANCH   2   3
ENDBRANCH   1   2
BRANCH   1  16
ATOM     16  C   UNL     1       7.476  -0.068   0.055  0.00  0.00    +0.007 C 
BRANCH  16  17
ATOM     17  C   UNL     1       8.646  -1.015  -0.216  0.00  0.00    +0.059 C 
BRANCH  17  18
ATOM     18  C   UNL     1       9.934  -0.232  -0.228  0.00  0.00    +0.091 C 
ATOM     19  N   UNL     1      10.598  -0.062   0.870  0.00  0.00    -0.091 NA
BRANCH  18  20
ATOM     20  C   UNL     1      10.436   0.341  -1.490  0.00  0.00    +0.042 A 
ATOM     21  C   UNL     1      11.636   1.065  -1.507  0.00  0.00    +0.126 A 
ATOM     22  C   UNL     1      12.100   1.599  -2.698  0.00  0.00    +0.047 A 
ATOM     23  C   UNL     1      11.382   1.419  -3.865  0.00  0.00    +0.023 A 
ATOM     24  C   UNL     1      10.195   0.704  -3.853  0.00  0.00    +0.042 A 
ATOM     25  C   UNL     1       9.722   0.160  -2.677  0.00  0.00    +0.033 A 
ATOM     26 CL   UNL     1       9.303   0.485  -5.327  0.00  0.00    -0.084 Cl
BRANCH  21  27
ATOM     27  O   UNL     1      12.341   1.242  -0.360  0.00  0.00    -0.506 OA
ATOM     28  H   UNL     1      12.992   0.549  -0.188  0.00  0.00    +0.292 HD
ENDBRANCH  21  27
ENDBRANCH  18  20
BRANCH  19  29
ATOM     29  O   UNL     1      10.176  -0.703   2.059  0.00  0.00    -0.409 OA
ATOM     30  H   UNL     1      10.735  -0.517   2.826  0.00  0.00    +0.328 HD
ENDBRANCH  19  29
ENDBRANCH  17  18
ENDBRANCH  16  17
ENDBRANCH   1  16
TORSDOF 11
