REMARK  Name = ZINC11869596
REMARK  13 active torsions:
REMARK  status: ('A' for Active; 'I' for Inactive)
REMARK    1  A    between atoms: C_1  and  C_2
REMARK    2  A    between atoms: C_3  and  C_9
REMARK    3  A    between atoms: C_4  and  C_8
REMARK    4  A    between atoms: N_5  and  C_7
REMARK    5  A    between atoms: C_9  and  C_11
REMARK    6  A    between atoms: C_9  and  N_62
REMARK    7  A    between atoms: C_12  and  N_62
REMARK    8  A    between atoms: C_13  and  C_14
REMARK    9  A    between atoms: C_13  and  N_62
REMARK   10  A    between atoms: C_17  and  C_22
REMARK   11  A    between atoms: N_24  and  C_25
REMARK   12  A    between atoms: C_25  and  C_26
REMARK   13  A    between atoms: C_31  and  C_32
REMARK                            x       y       z     vdW  Elec       q    Type
REMARK                         _______ _______ _______ _____ _____    ______ ____
ROOT
ATOM      1  C   UNL     1      -4.746  -1.277  -5.425  0.00  0.00    +0.003 A 
ATOM      2  C   UNL     1      -5.425  -1.894  -4.424  0.00  0.00    +0.020 A 
ATOM      3  C   UNL     1      -4.873  -1.970  -3.146  0.00  0.00    +0.020 A 
ATOM      4  C   UNL     1      -3.624  -1.396  -2.915  0.00  0.00    +0.101 A 
ATOM      5  C   UNL     1      -2.953  -0.762  -3.993  0.00  0.00    +0.261 A 
ATOM      6  O   UNL     1      -1.858  -0.257  -3.818  0.00  0.00    -0.267 OA
ATOM      7  N   UNL     1      -3.530  -0.721  -5.209  0.00  0.00    -0.327 N 
ATOM      8  H   UNL     1      -3.067  -0.286  -5.942  0.00  0.00    +0.169 HD
ENDROOT
BRANCH   4   9
ATOM      9  C   UNL     1      -3.010  -1.452  -1.580  0.00  0.00    +0.250 C 
ATOM     10  O   UNL     1      -3.541  -2.094  -0.693  0.00  0.00    -0.270 OA
ATOM     11  N   UNL     1      -1.860  -0.792  -1.339  0.00  0.00    -0.307 N 
ATOM     12  H   UNL     1      -1.399  -0.341  -2.063  0.00  0.00    +0.149 HD
BRANCH  11  13
ATOM     13  C   UNL     1      -1.307  -0.756   0.017  0.00  0.00    +0.140 C 
BRANCH  13  14
ATOM     14  C   UNL     1      -0.027   0.040   0.016  0.00  0.00    -0.019 A 
ATOM     15  C   UNL     1       1.192  -0.612  -0.004  0.00  0.00    +0.006 A 
ATOM     16  C   UNL     1       2.366   0.117  -0.005  0.00  0.00    +0.000 A 
ATOM     17  C   UNL     1       2.321   1.499   0.013  0.00  0.00    +0.001 A 
ATOM     18  C   UNL     1       1.103   2.151   0.034  0.00  0.00    +0.013 A 
ATOM     19  C   UNL     1      -0.072   1.421   0.035  0.00  0.00    +0.059 A 
BRANCH  19  20
ATOM     20  C   UNL     1      -1.401   2.132   0.049  0.00  0.00    +0.418 C 
ATOM     21  F   UNL     1      -1.190   3.515   0.067  0.00  0.00    -0.166 F 
ATOM     22  F   UNL     1      -2.127   1.785  -1.095  0.00  0.00    -0.166 F 
ATOM     23  F   UNL     1      -2.118   1.755   1.190  0.00  0.00    -0.166 F 
ENDBRANCH  19  20
ENDBRANCH  13  14
ENDBRANCH  11  13
ENDBRANCH   4   9
BRANCH   1  24
ATOM     24  C   UNL     1      -5.356  -1.209  -6.801  0.00  0.00    -0.024 C 
BRANCH  24  26
ATOM     25  C   UNL     1      -6.677   0.750  -6.273  0.00  0.00    -0.095 C 
ATOM     26  N   UNL     1      -5.611   0.207  -7.140  0.00  0.00    +0.386 N 
ATOM     27  H   UNL     1      -4.750   0.746  -6.989  0.00  0.00    -0.081 HD
BRANCH  26  28
ATOM     28  C   UNL     1      -6.007   0.322  -8.560  0.00  0.00    -0.037 C 
ATOM     29  C   UNL     1      -4.858  -0.179  -9.437  0.00  0.00    -0.008 C 
BRANCH  28  32
ATOM     30  C   UNL     1      -4.239   2.796  -7.666  0.00  0.00    +0.068 C 
ATOM     31  C   UNL     1      -5.505   2.862  -8.481  0.00  0.00    +0.062 A 
ATOM     32  C   UNL     1      -6.285   1.770  -8.874  0.00  0.00    -0.018 A 
ATOM     33  C   UNL     1      -7.330   2.242  -9.592  0.00  0.00    +0.038 A 
ATOM     34  N   UNL     1      -7.220   3.586  -9.644  0.00  0.00    -0.271 N 
ATOM     35  N   UNL     1      -6.065   3.951  -8.941  0.00  0.00    -0.176 NA
ATOM     36  C   UNL     1      -8.143   4.501 -10.320  0.00  0.00    +0.172 C 
ATOM     37  C   UNL     1      -8.423   1.415 -10.219  0.00  0.00    +0.065 C 
ENDBRANCH  28  32
ENDBRANCH  26  28
ENDBRANCH  24  26
ENDBRANCH   1  24
TORSDOF 8
