REMARK  Name = ZINC01460333
REMARK  9 active torsions:
REMARK  status: ('A' for Active; 'I' for Inactive)
REMARK    1  A    between atoms: C_1  and  C_2
REMARK    2  A    between atoms: C_2  and  C_3
REMARK    3  A    between atoms: C_2  and  C_4
REMARK    4  A    between atoms: C_2  and  O_24
REMARK    5  A    between atoms: C_4  and  N_6
REMARK    6  A    between atoms: N_15  and  C_16
REMARK    7  A    between atoms: C_16  and  C_17
REMARK    8  A    between atoms: C_17  and  N_18
REMARK    9  A    between atoms: O_24  and  C_25
REMARK                            x       y       z     vdW  Elec       q    Type
REMARK                         _______ _______ _______ _____ _____    ______ ____
ROOT
ATOM      1  N   UNL     1      -2.526  -0.460   0.751  0.00  0.00    -0.143 NA
ATOM      2  C   UNL     1      -3.833  -0.635   0.570  0.00  0.00    +0.201 A 
ATOM      3  N   UNL     1      -4.411  -1.130  -0.556  0.00  0.00    -0.326 N 
ATOM      4  C   UNL     1      -5.788  -1.162  -0.361  0.00  0.00    +0.066 A 
ATOM      5  C   UNL     1      -6.849  -1.565  -1.160  0.00  0.00    +0.028 A 
ATOM      6  C   UNL     1      -8.141  -1.476  -0.683  0.00  0.00    +0.002 A 
ATOM      7  C   UNL     1      -8.384  -0.988   0.590  0.00  0.00    +0.002 A 
ATOM      8  C   UNL     1      -7.336  -0.585   1.392  0.00  0.00    +0.028 A 
ATOM      9  C   UNL     1      -6.033  -0.669   0.922  0.00  0.00    +0.068 A 
ATOM     10  N   UNL     1      -4.799  -0.354   1.482  0.00  0.00    -0.314 N 
ATOM     11  H   UNL     1      -3.944  -1.413  -1.358  0.00  0.00    +0.169 HD
ENDROOT
BRANCH   1  12
ATOM     12  C   UNL     1      -1.683  -0.653  -0.258  0.00  0.00    +0.282 C 
ATOM     13  O   UNL     1      -2.093  -1.079  -1.320  0.00  0.00    -0.269 OA
BRANCH  12  15
ATOM     14  C   UNL     1      -0.046   1.135   0.262  0.00  0.00    +0.065 C 
ATOM     15  C   UNL     1      -0.218  -0.345  -0.085  0.00  0.00    +0.182 C 
ATOM     16  C   UNL     1       0.354  -1.203   1.045  0.00  0.00    +0.065 C 
BRANCH  15  17
ATOM     17  O   UNL     1       0.476  -0.633  -1.300  0.00  0.00    -0.477 OA
BRANCH  17  18
ATOM     18  C   UNL     1       0.445  -1.919  -1.739  0.00  0.00    +0.122 A 
ATOM     19  C   UNL     1      -0.344  -2.856  -1.088  0.00  0.00    +0.046 A 
ATOM     20  C   UNL     1      -0.373  -4.161  -1.538  0.00  0.00    +0.007 A 
ATOM     21  C   UNL     1       0.383  -4.539  -2.635  0.00  0.00    -0.044 A 
ATOM     22  C   UNL     1       1.170  -3.606  -3.286  0.00  0.00    -0.041 A 
ATOM     23  C   UNL     1       1.196  -2.296  -2.841  0.00  0.00    +0.049 A 
ATOM     24  C   UNL     1       1.891  -4.263  -4.443  0.00  0.00    +0.036 C 
ATOM     25  C   UNL     1       1.803  -5.779  -4.166  0.00  0.00    +0.009 C 
ATOM     26  C   UNL     1       0.522  -5.886  -3.312  0.00  0.00    +0.036 C 
ENDBRANCH  17  18
ENDBRANCH  15  17
ENDBRANCH  12  15
ENDBRANCH   1  12
BRANCH  10  27
ATOM     27  C   UNL     1      -4.580   0.191   2.824  0.00  0.00    +0.106 C 
BRANCH  27  28
ATOM     28  C   UNL     1      -4.612   1.720   2.765  0.00  0.00    -0.057 C 
BRANCH  28  29
ATOM     29  N   UNL     1      -4.392   2.266   4.111  0.00  0.00    +0.381 N 
ATOM     30  C   UNL     1      -5.508   1.880   4.983  0.00  0.00    -0.079 C 
ATOM     31  C   UNL     1      -5.244   2.378   6.406  0.00  0.00    -0.019 C 
ATOM     32  C   UNL     1      -5.111   3.903   6.390  0.00  0.00    -0.004 C 
ATOM     33  C   UNL     1      -3.993   4.298   5.421  0.00  0.00    -0.019 C 
ATOM     34  C   UNL     1      -4.303   3.729   4.035  0.00  0.00    -0.079 C 
ATOM     35  H   UNL     1      -3.531   1.897   4.486  0.00  0.00    -0.082 HD
ENDBRANCH  28  29
ENDBRANCH  27  28
ENDBRANCH  10  27
TORSDOF 7
