REMARK  Name = ZINC36305185
REMARK  14 active torsions:
REMARK  status: ('A' for Active; 'I' for Inactive)
REMARK    1  A    between atoms: C_1  and  C_2
REMARK    2  A    between atoms: C_2  and  C_3
REMARK    3  A    between atoms: C_2  and  C_4
REMARK    4  A    between atoms: C_4  and  C_6
REMARK    5  A    between atoms: C_4  and  O_36
REMARK    6  A    between atoms: C_6  and  N_7
REMARK    7  A    between atoms: N_7  and  C_8
REMARK    8  A    between atoms: N_7  and  C_29
REMARK    9  A    between atoms: C_8  and  C_9
REMARK   10  A    between atoms: C_10  and  C_23
REMARK   11  A    between atoms: N_12  and  C_22
REMARK   12  A    between atoms: C_13  and  O_14
REMARK   13  A    between atoms: O_14  and  C_15
REMARK   14  A    between atoms: C_29  and  C_30
REMARK                            x       y       z     vdW  Elec       q    Type
REMARK                         _______ _______ _______ _____ _____    ______ ____
ROOT
ATOM      1  C   UNL     1      -2.446  -3.784   1.973  0.00  0.00    +0.025 A 
ATOM      2  C   UNL     1      -1.040  -3.851   1.981  0.00  0.00    +0.098 A 
ATOM      3  N   UNL     1      -0.647  -4.050   3.221  0.00  0.00    -0.168 NA
ATOM      4  N   UNL     1      -1.784  -4.115   4.037  0.00  0.00    -0.235 N 
ATOM      5  C   UNL     1      -2.877  -3.943   3.251  0.00  0.00    +0.221 A 
ATOM      6  C   UNL     1      -1.791  -4.326   5.487  0.00  0.00    +0.176 C 
ENDROOT
BRANCH   2   7
ATOM      7  C   UNL     1      -0.155  -3.721   0.797  0.00  0.00    +0.002 A 
ATOM      8  C   UNL     1       1.013  -2.966   0.877  0.00  0.00    +0.010 A 
ATOM      9  C   UNL     1       1.833  -2.848  -0.227  0.00  0.00    +0.001 A 
ATOM     10  C   UNL     1       1.496  -3.478  -1.411  0.00  0.00    +0.000 A 
ATOM     11  C   UNL     1       0.338  -4.229  -1.497  0.00  0.00    +0.001 A 
ATOM     12  C   UNL     1      -0.486  -4.358  -0.397  0.00  0.00    +0.010 A 
ENDBRANCH   2   7
BRANCH   1  13
ATOM     13  C   UNL     1      -3.317  -3.567   0.763  0.00  0.00    -0.035 C 
BRANCH  13  14
ATOM     14  N   UNL     1      -3.674  -2.145   0.665  0.00  0.00    +0.386 N 
ATOM     15  H   UNL     1      -4.102  -1.845   1.528  0.00  0.00    -0.081 HD
BRANCH  14  16
ATOM     16  C   UNL     1      -2.462  -1.352   0.418  0.00  0.00    -0.046 C 
BRANCH  16  17
ATOM     17  C   UNL     1      -2.802   0.137   0.501  0.00  0.00    +0.101 C 
BRANCH  17  19
ATOM     18  C   UNL     1      -1.851   2.448   0.531  0.00  0.00    +0.010 C 
ATOM     19  C   UNL     1      -1.512   0.958   0.449  0.00  0.00    +0.010 C 
ATOM     20  C   UNL     1      -0.615   0.574   1.627  0.00  0.00    +0.010 C 
ENDBRANCH  17  19
BRANCH  17  21
ATOM     21  O   UNL     1      -3.640   0.497  -0.600  0.00  0.00    -0.393 OA
ATOM     22  H   UNL     1      -3.268   0.278  -1.465  0.00  0.00    +0.210 HD
ENDBRANCH  17  21
ENDBRANCH  16  17
ENDBRANCH  14  16
BRANCH  14  23
ATOM     23  C   UNL     1      -4.619  -1.953  -0.444  0.00  0.00    -0.046 C 
BRANCH  23  24
ATOM     24  C   UNL     1      -5.904  -2.732  -0.159  0.00  0.00    +0.102 C 
ATOM     25  C   UNL     1      -6.891  -2.562  -1.334  0.00  0.00    +0.032 C 
ATOM     26  C   UNL     1      -8.256  -2.438  -0.603  0.00  0.00    +0.030 C 
ATOM     27  C   UNL     1      -7.832  -1.688   0.685  0.00  0.00    +0.160 C 
ATOM     28  O   UNL     1      -6.536  -2.215   1.018  0.00  0.00    -0.378 OA
ENDBRANCH  23  24
ENDBRANCH  14  23
ENDBRANCH  13  14
ENDBRANCH   1  13
BRANCH   5  29
ATOM     29  O   UNL     1      -4.169  -3.935   3.666  0.00  0.00    -0.438 OA
BRANCH  29  30
ATOM     30  C   UNL     1      -4.814  -5.127   3.769  0.00  0.00    +0.130 A 
ATOM     31  C   UNL     1      -4.122  -6.311   3.559  0.00  0.00    +0.048 A 
ATOM     32  C   UNL     1      -4.779  -7.522   3.665  0.00  0.00    +0.023 A 
ATOM     33  C   UNL     1      -6.126  -7.554   3.978  0.00  0.00    +0.041 A 
ATOM     34  C   UNL     1      -6.818  -6.374   4.187  0.00  0.00    +0.023 A 
ATOM     35  C   UNL     1      -6.163  -5.161   4.089  0.00  0.00    +0.048 A 
ATOM     36 CL   UNL     1      -6.950  -9.076   4.109  0.00  0.00    -0.084 Cl
ENDBRANCH  29  30
ENDBRANCH   5  29
TORSDOF 11
