REMARK  Name = ZINC10072753
REMARK  13 active torsions:
REMARK  status: ('A' for Active; 'I' for Inactive)
REMARK    1  A    between atoms: C_1  and  C_2
REMARK    2  A    between atoms: C_2  and  O_3
REMARK    3  A    between atoms: O_3  and  C_4
REMARK    4  A    between atoms: C_7  and  N_10
REMARK    5  A    between atoms: C_11  and  C_37
REMARK    6  A    between atoms: C_13  and  C_16
REMARK    7  A    between atoms: C_14  and  C_15
REMARK    8  A    between atoms: C_16  and  C_18
REMARK    9  A    between atoms: C_18  and  O_19
REMARK   10  A    between atoms: O_19  and  C_20
REMARK   11  A    between atoms: C_20  and  C_22
REMARK   12  A    between atoms: C_22  and  N_23
REMARK   13  A    between atoms: C_31  and  C_33
REMARK                            x       y       z     vdW  Elec       q    Type
REMARK                         _______ _______ _______ _____ _____    ______ ____
ROOT
ATOM      1  C   UNL     1       1.317  -0.740  -0.014  0.00  0.00    +0.311 C 
ENDROOT
BRANCH   1   2
ATOM      2  C   UNL     1       0.002  -0.004   0.002  0.00  0.00    +0.202 C 
ATOM      3  O   UNL     1      -1.040  -0.625   0.008  0.00  0.00    -0.288 OA
BRANCH   2   7
ATOM      4  N   UNL     1      -0.714   3.558   0.027  0.00  0.00    -0.317 N 
ATOM      5  C   UNL     1       0.652   3.612   0.014  0.00  0.00    +0.022 A 
ATOM      6  C   UNL     1       1.143   2.361   0.004  0.00  0.00    +0.034 A 
ATOM      7  C   UNL     1      -0.018   1.460   0.010  0.00  0.00    +0.042 A 
ATOM      8  C   UNL     1      -1.133   2.278   0.019  0.00  0.00    +0.032 A 
ATOM      9  C   UNL     1      -2.567   1.817   0.022  0.00  0.00    +0.064 C 
ATOM     10  C   UNL     1       1.476   4.873   0.014  0.00  0.00    +0.064 C 
BRANCH   4  14
ATOM     11  C   UNL     1      -3.228   6.885   0.066  0.00  0.00    +0.121 A 
ATOM     12  C   UNL     1      -2.415   6.644  -1.032  0.00  0.00    +0.047 A 
ATOM     13  C   UNL     1      -1.583   5.542  -1.046  0.00  0.00    +0.030 A 
ATOM     14  C   UNL     1      -1.559   4.677   0.040  0.00  0.00    +0.047 A 
ATOM     15  C   UNL     1      -2.377   4.917   1.136  0.00  0.00    +0.030 A 
ATOM     16  C   UNL     1      -3.205   6.021   1.151  0.00  0.00    +0.047 A 
BRANCH  11  17
ATOM     17  O   UNL     1      -4.048   7.970   0.078  0.00  0.00    -0.492 OA
BRANCH  17  19
ATOM     18  C   UNL     1      -5.707   9.419   1.072  0.00  0.00    +0.048 C 
ATOM     19  C   UNL     1      -4.858   8.157   1.240  0.00  0.00    +0.225 C 
ENDBRANCH  17  19
ENDBRANCH  11  17
ENDBRANCH   4  14
ENDBRANCH   2   7
ENDBRANCH   1   2
BRANCH   1  20
ATOM     20  O   UNL     1       1.071  -2.171  -0.019  0.00  0.00    -0.455 OA
BRANCH  20  21
ATOM     21  C   UNL     1       2.147  -2.974  -0.034  0.00  0.00    +0.326 C 
ATOM     22  O   UNL     1       3.257  -2.497  -0.041  0.00  0.00    -0.249 OA
BRANCH  21  23
ATOM     23  C   UNL     1       1.970  -4.470  -0.040  0.00  0.00    +0.238 C 
BRANCH  23  24
ATOM     24  N   UNL     1       3.284  -5.118  -0.055  0.00  0.00    -0.213 N 
ATOM     25  C   UNL     1       3.951  -5.452  -1.179  0.00  0.00    +0.247 C 
ATOM     26  O   UNL     1       3.593  -5.279  -2.325  0.00  0.00    -0.273 OA
ATOM     27  C   UNL     1       5.242  -6.083  -0.710  0.00  0.00    +0.115 C 
ATOM     28  C   UNL     1       6.441  -5.275  -1.193  0.00  0.00    +0.035 C 
ATOM     29  C   UNL     1       6.500  -5.308  -2.722  0.00  0.00    +0.003 C 
ATOM     30  C   UNL     1       6.616  -6.758  -3.196  0.00  0.00    +0.000 C 
ATOM     31  C   UNL     1       5.395  -7.549  -2.724  0.00  0.00    +0.006 C 
ATOM     32  C   UNL     1       5.332  -7.525  -1.195  0.00  0.00    +0.018 C 
ATOM     33  C   UNL     1       4.098  -8.299  -0.724  0.00  0.00    +0.010 C 
ATOM     34  N   UNL     1       5.148  -6.038   0.755  0.00  0.00    -0.285 N 
ATOM     35  C   UNL     1       3.969  -5.456   1.044  0.00  0.00    +0.310 C 
ATOM     36  O   UNL     1       3.570  -5.261   2.175  0.00  0.00    -0.252 OA
ATOM     37  H   UNL     1       5.806  -6.363   1.389  0.00  0.00    +0.151 HD
ENDBRANCH  23  24
ENDBRANCH  21  23
ENDBRANCH  20  21
ENDBRANCH   1  20
TORSDOF 9
