REMARK  Name = ZINC28961197
REMARK  10 active torsions:
REMARK  status: ('A' for Active; 'I' for Inactive)
REMARK    1  A    between atoms: C_1  and  N_2
REMARK    2  A    between atoms: N_2  and  C_3
REMARK    3  A    between atoms: N_2  and  C_17
REMARK    4  A    between atoms: C_3  and  C_4
REMARK    5  A    between atoms: N_6  and  C_7
REMARK    6  A    between atoms: C_12  and  C_13
REMARK    7  A    between atoms: C_17  and  C_18
REMARK    8  A    between atoms: N_20  and  C_21
REMARK    9  A    between atoms: N_20  and  C_22
REMARK   10  A    between atoms: C_25  and  N_28
REMARK                            x       y       z     vdW  Elec       q    Type
REMARK                         _______ _______ _______ _____ _____    ______ ____
ROOT
ATOM      1  C   UNL     1       4.410  -4.244  -1.615  0.00  0.00    -0.095 C 
ATOM      2  N   UNL     1       3.811  -4.703  -0.354  0.00  0.00    +0.389 N 
ATOM      3  H   UNL     1       4.391  -4.268   0.473  0.00  0.00    -0.081 HD
ENDROOT
BRANCH   2   4
ATOM      4  C   UNL     1       3.886  -6.165  -0.238  0.00  0.00    +0.019 C 
BRANCH   4   5
ATOM      5  C   UNL     1       5.328  -6.588  -0.124  0.00  0.00    +0.201 C 
ATOM      6  O   UNL     1       6.207  -5.752  -0.139  0.00  0.00    -0.278 OA
ATOM      7  N   UNL     1       5.641  -7.893  -0.006  0.00  0.00    -0.287 N 
ATOM      8  H   UNL     1       4.853  -8.657  -0.085  0.00  0.00    +0.155 HD
BRANCH   7   9
ATOM      9  C   UNL     1       6.968  -8.278   0.215  0.00  0.00    +0.045 A 
ATOM     10  C   UNL     1       7.857  -7.395   0.814  0.00  0.00    +0.024 A 
ATOM     11  C   UNL     1       9.165  -7.779   1.036  0.00  0.00    +0.002 A 
ATOM     12  C   UNL     1       9.592  -9.038   0.654  0.00  0.00    +0.001 A 
ATOM     13  C   UNL     1       8.710  -9.917   0.053  0.00  0.00    +0.014 A 
ATOM     14  C   UNL     1       7.399  -9.541  -0.167  0.00  0.00    +0.076 A 
BRANCH  14  15
ATOM     15  C   UNL     1       6.439 -10.499  -0.823  0.00  0.00    +0.419 C 
ATOM     16  F   UNL     1       7.102 -11.697  -1.114  0.00  0.00    -0.166 F 
ATOM     17  F   UNL     1       5.372 -10.756   0.044  0.00  0.00    -0.166 F 
ATOM     18  F   UNL     1       5.953  -9.936  -2.007  0.00  0.00    -0.166 F 
ENDBRANCH  14  15
ENDBRANCH   7   9
ENDBRANCH   4   5
ENDBRANCH   2   4
BRANCH   2  19
ATOM     19  C   UNL     1       2.425  -4.235  -0.229  0.00  0.00    +0.019 C 
BRANCH  19  20
ATOM     20  C   UNL     1       2.410  -2.733  -0.107  0.00  0.00    +0.203 C 
ATOM     21  O   UNL     1       3.453  -2.113  -0.122  0.00  0.00    -0.277 OA
ATOM     22  N   UNL     1       1.239  -2.078   0.020  0.00  0.00    -0.276 N 
ATOM     23  C   UNL     1      -0.011  -2.831   0.149  0.00  0.00    +0.138 C 
BRANCH  22  24
ATOM     24  C   UNL     1       1.218  -0.679   0.028  0.00  0.00    +0.036 A 
ATOM     25  C   UNL     1       1.824   0.021   1.063  0.00  0.00    +0.026 A 
ATOM     26  C   UNL     1       1.801   1.401   1.068  0.00  0.00    +0.034 A 
ATOM     27  C   UNL     1       1.175   2.088   0.043  0.00  0.00    +0.126 A 
ATOM     28  C   UNL     1       0.570   1.394  -0.989  0.00  0.00    +0.034 A 
ATOM     29  C   UNL     1       0.590   0.013  -0.999  0.00  0.00    +0.026 A 
BRANCH  27  30
ATOM     30  N   UNL     1       1.152   3.568   0.052  0.00  0.00    +0.056 N 
ATOM     31  O   UNL     1       1.684   4.180   0.960  0.00  0.00    -0.126 OA
ATOM     32  O   UNL     1       0.601   4.173  -0.850  0.00  0.00    -0.126 OA
ENDBRANCH  27  30
ENDBRANCH  22  24
ENDBRANCH  19  20
ENDBRANCH   2  19
TORSDOF 8
