REMARK  Name = ZINC39362787
REMARK  10 active torsions:
REMARK  status: ('A' for Active; 'I' for Inactive)
REMARK    1  A    between atoms: C_1  and  C_2
REMARK    2  A    between atoms: C_3  and  C_23
REMARK    3  A    between atoms: C_5  and  C_7
REMARK    4  A    between atoms: C_12  and  N_13
REMARK    5  A    between atoms: C_14  and  C_16
REMARK    6  A    between atoms: C_16  and  C_17
REMARK    7  A    between atoms: C_23  and  N_24
REMARK    8  A    between atoms: C_25  and  C_27
REMARK    9  A    between atoms: C_32  and  C_38
REMARK   10  A    between atoms: C_33  and  C_37
REMARK                            x       y       z     vdW  Elec       q    Type
REMARK                         _______ _______ _______ _____ _____    ______ ____
ROOT
ATOM      1  C   UNL     1       0.051   1.495   0.538  0.00  0.00    +0.088 C 
ATOM      2  C   UNL     1       0.058  -0.009   0.446  0.00  0.00    +0.127 A 
ATOM      3  C   UNL     1      -1.017  -0.816   0.501  0.00  0.00    +0.100 A 
ATOM      4  N   UNL     1      -0.587  -2.082   0.382  0.00  0.00    -0.212 NA
ATOM      5  C   UNL     1       0.720  -2.071   0.255  0.00  0.00    +0.229 A 
ATOM      6  O   UNL     1       1.141  -0.795   0.286  0.00  0.00    -0.440 OA
ENDROOT
BRANCH   5   7
ATOM      7  C   UNL     1       1.581  -3.260   0.099  0.00  0.00    +0.058 A 
ATOM      8  C   UNL     1       1.032  -4.541   0.185  0.00  0.00    +0.015 A 
ATOM      9  C   UNL     1       1.842  -5.647   0.038  0.00  0.00    +0.001 A 
ATOM     10  C   UNL     1       3.198  -5.495  -0.193  0.00  0.00    +0.002 A 
ATOM     11  C   UNL     1       3.755  -4.234  -0.281  0.00  0.00    +0.024 A 
ATOM     12  C   UNL     1       2.954  -3.110  -0.142  0.00  0.00    +0.046 A 
BRANCH  12  13
ATOM     13  N   UNL     1       3.514  -1.834  -0.235  0.00  0.00    -0.285 N 
ATOM     14  C   UNL     1       4.785  -1.625   0.160  0.00  0.00    +0.222 C 
ATOM     15  O   UNL     1       5.470  -2.560   0.519  0.00  0.00    -0.275 OA
ATOM     16  H   UNL     1       2.987  -1.098  -0.585  0.00  0.00    +0.155 HD
BRANCH  14  17
ATOM     17  C   UNL     1       5.356  -0.231   0.156  0.00  0.00    +0.131 C 
BRANCH  17  18
ATOM     18  C   UNL     1       6.783  -0.271   0.638  0.00  0.00    -0.039 A 
ATOM     19  C   UNL     1       7.061  -0.138   1.986  0.00  0.00    +0.004 A 
ATOM     20  C   UNL     1       8.370  -0.175   2.428  0.00  0.00    +0.000 A 
ATOM     21  C   UNL     1       9.401  -0.345   1.523  0.00  0.00    +0.000 A 
ATOM     22  C   UNL     1       9.123  -0.479   0.176  0.00  0.00    +0.000 A 
ATOM     23  C   UNL     1       7.814  -0.447  -0.266  0.00  0.00    +0.004 A 
ENDBRANCH  17  18
ENDBRANCH  14  17
ENDBRANCH  12  13
ENDBRANCH   5   7
BRANCH   3  24
ATOM     24  C   UNL     1      -2.449  -0.378   0.668  0.00  0.00    +0.163 C 
BRANCH  24  25
ATOM     25  N   UNL     1      -3.047  -0.152  -0.650  0.00  0.00    -0.306 N 
ATOM     26  C   UNL     1      -4.330   0.249  -0.748  0.00  0.00    +0.243 C 
ATOM     27  O   UNL     1      -4.992   0.423   0.259  0.00  0.00    -0.270 OA
ATOM     28  H   UNL     1      -2.520  -0.291  -1.452  0.00  0.00    +0.149 HD
BRANCH  26  29
ATOM     29  C   UNL     1      -4.927   0.474  -2.064  0.00  0.00    +0.043 C 
ATOM     30  C   UNL     1      -6.222   0.886  -2.210  0.00  0.00    +0.011 C 
ATOM     31  C   UNL     1      -6.791   1.100  -3.478  0.00  0.00    +0.001 C 
ATOM     32  C   UNL     1      -6.220   0.684  -4.640  0.00  0.00    +0.006 C 
ATOM     33  C   UNL     1      -4.984   0.021  -4.590  0.00  0.00    -0.014 C 
ATOM     34  C   UNL     1      -4.227  -0.821  -5.314  0.00  0.00    -0.024 C 
ATOM     35  C   UNL     1      -3.230  -1.425  -4.431  0.00  0.00    +0.037 C 
ATOM     36  N   UNL     1      -3.222  -0.843  -3.264  0.00  0.00    -0.275 NA
ATOM     37  C   UNL     1      -4.152   0.273  -3.335  0.00  0.00    +0.171 C 
ATOM     38  C   UNL     1      -2.329  -2.569  -4.820  0.00  0.00    +0.065 C 
ATOM     39  C   UNL     1      -4.380  -1.097  -6.787  0.00  0.00    +0.046 C 
ENDBRANCH  26  29
ENDBRANCH  24  25
ENDBRANCH   3  24
TORSDOF 7
