REMARK  Name = ZINC03085409
REMARK  5 active torsions:
REMARK  status: ('A' for Active; 'I' for Inactive)
REMARK    1  A    between atoms: C_14  and  C_31
REMARK    2  A    between atoms: N_21  and  C_24
REMARK    3  A    between atoms: C_32  and  C_33
REMARK    4  A    between atoms: C_32  and  N_54
REMARK    5  A    between atoms: C_33  and  O_34
REMARK                            x       y       z     vdW  Elec       q    Type
REMARK                         _______ _______ _______ _____ _____    ______ ____
ROOT
ATOM      1  C   UNL     1       4.397  -2.755  -0.450  0.00  0.00    +0.000 A 
ATOM      2  C   UNL     1       5.245  -1.700  -0.167  0.00  0.00    +0.000 A 
ATOM      3  C   UNL     1       4.732  -0.463   0.199  0.00  0.00    +0.005 A 
ATOM      4  C   UNL     1       3.394  -0.296   0.263  0.00  0.00    -0.027 A 
ATOM      5  C   UNL     1       2.522  -1.372  -0.011  0.00  0.00    -0.035 A 
ATOM      6  C   UNL     1       3.020  -2.591  -0.372  0.00  0.00    +0.004 A 
ATOM      7  C   UNL     1       1.044  -1.042   0.117  0.00  0.00    +0.062 C 
ATOM      8  C   UNL     1       0.885  -0.464   1.515  0.00  0.00    -0.035 A 
ATOM      9  C   UNL     1      -0.004  -0.915   2.449  0.00  0.00    +0.004 A 
ATOM     10  C   UNL     1      -0.042  -0.293   3.690  0.00  0.00    +0.000 A 
ATOM     11  C   UNL     1       0.806   0.761   3.972  0.00  0.00    +0.000 A 
ATOM     12  C   UNL     1       1.707   1.215   3.018  0.00  0.00    +0.005 A 
ATOM     13  C   UNL     1       1.740   0.599   1.799  0.00  0.00    -0.027 A 
ATOM     14  C   UNL     1       2.670   0.981   0.658  0.00  0.00    +0.066 C 
ATOM     15  C   UNL     1       1.745   1.314  -0.532  0.00  0.00    +0.109 C 
ATOM     16  C   UNL     1       0.801   0.140  -0.846  0.00  0.00    +0.101 C 
ATOM     17  C   UNL     1      -0.576   0.709  -0.578  0.00  0.00    +0.231 C 
ATOM     18  O   UNL     1      -1.621   0.107  -0.704  0.00  0.00    -0.274 OA
ATOM     19  N   UNL     1      -0.456   1.982  -0.181  0.00  0.00    -0.210 N 
ATOM     20  C   UNL     1       0.805   2.427  -0.119  0.00  0.00    +0.232 C 
ATOM     21  O   UNL     1       1.141   3.543   0.214  0.00  0.00    -0.274 OA
ENDROOT
BRANCH  19  22
ATOM     22  C   UNL     1      -1.561   2.785   0.138  0.00  0.00    +0.044 A 
ATOM     23  C   UNL     1      -2.447   3.175  -0.856  0.00  0.00    +0.025 A 
ATOM     24  C   UNL     1      -3.537   3.962  -0.538  0.00  0.00    +0.017 A 
ATOM     25  C   UNL     1      -3.739   4.370   0.768  0.00  0.00    +0.018 A 
ATOM     26  C   UNL     1      -2.854   3.987   1.760  0.00  0.00    +0.017 A 
ATOM     27  C   UNL     1      -1.766   3.196   1.448  0.00  0.00    +0.025 A 
ATOM     28 BR   UNL     1      -5.227   5.455   1.198  0.00  0.00    -0.050 Br
ENDBRANCH  19  22
BRANCH  14  29
ATOM     29  C   UNL     1       3.606   2.107   1.012  0.00  0.00    +0.067 C 
ATOM     30  N   UNL     1       3.629   3.147   0.208  0.00  0.00    -0.390 N 
ATOM     31  H   UNL     1       3.024   3.168  -0.621  0.00  0.00    +0.159 HD
BRANCH  30  32
ATOM     32  C   UNL     1       4.541   4.305   0.502  0.00  0.00    +0.139 C 
BRANCH  32  33
ATOM     33  C   UNL     1       5.573   4.408  -0.623  0.00  0.00    +0.176 C 
BRANCH  33  34
ATOM     34  O   UNL     1       4.907   4.685  -1.856  0.00  0.00    -0.393 OA
ATOM     35  H   UNL     1       5.501   4.765  -2.615  0.00  0.00    +0.209 HD
ENDBRANCH  33  34
ENDBRANCH  32  33
ENDBRANCH  30  32
ENDBRANCH  14  29
TORSDOF 5
