REMARK  Name = ZINC62243082
REMARK  4 active torsions:
REMARK  status: ('A' for Active; 'I' for Inactive)
REMARK    1  A    between atoms: C_8  and  O_9
REMARK    2  A    between atoms: C_10  and  N_12
REMARK    3  A    between atoms: C_13  and  C_19
REMARK    4  A    between atoms: C_14  and  C_17
REMARK                            x       y       z     vdW  Elec       q    Type
REMARK                         _______ _______ _______ _____ _____    ______ ____
ROOT
ATOM      1  C   UNL     1      -0.608   1.172  -0.403  0.00  0.00    +0.003 A 
ATOM      2  C   UNL     1       0.444   2.025  -0.546  0.00  0.00    +0.012 A 
ATOM      3  C   UNL     1       1.755   1.525  -0.559  0.00  0.00    +0.026 A 
ATOM      4  C   UNL     1       1.972   0.132  -0.422  0.00  0.00    +0.011 A 
ATOM      5  C   UNL     1       3.285  -0.366  -0.436  0.00  0.00    +0.011 A 
ATOM      6  C   UNL     1       4.333   0.491  -0.581  0.00  0.00    +0.004 A 
ATOM      7  C   UNL     1       4.126   1.861  -0.715  0.00  0.00    +0.046 A 
ATOM      8  C   UNL     1       2.864   2.385  -0.707  0.00  0.00    +0.125 A 
ATOM      9  C   UNL     1       0.864  -0.728  -0.275  0.00  0.00    +0.075 A 
ATOM     10  C   UNL     1      -0.407  -0.198  -0.267  0.00  0.00    +0.028 A 
ENDROOT
BRANCH   9  11
ATOM     11  N   UNL     1       1.055  -2.108  -0.137  0.00  0.00    -0.206 N 
ATOM     12  C   UNL     1       0.514  -2.907   0.810  0.00  0.00    +0.185 A 
ATOM     13  C   UNL     1       0.968  -4.172   0.565  0.00  0.00    +0.194 A 
ATOM     14  N   UNL     1       1.770  -4.136  -0.513  0.00  0.00    -0.118 NA
ATOM     15  N   UNL     1       1.840  -2.930  -0.959  0.00  0.00    -0.059 NA
BRANCH  12  16
ATOM     16  C   UNL     1      -0.411  -2.483   1.922  0.00  0.00    +0.437 C 
ATOM     17  F   UNL     1      -1.728  -2.464   1.451  0.00  0.00    -0.164 F 
ATOM     18  F   UNL     1      -0.309  -3.389   2.984  0.00  0.00    -0.164 F 
ATOM     19  F   UNL     1      -0.054  -1.205   2.364  0.00  0.00    -0.164 F 
ENDBRANCH  12  16
BRANCH  13  20
ATOM     20  C   UNL     1       0.644  -5.340   1.328  0.00  0.00    +0.123 C 
ATOM     21  N   UNL     1       0.387  -6.266   1.934  0.00  0.00    -0.189 NA
ENDBRANCH  13  20
ENDBRANCH   9  11
BRANCH   8  22
ATOM     22  O   UNL     1       2.678   3.723  -0.840  0.00  0.00    -0.506 OA
ATOM     23  H   UNL     1       2.668   4.205  -0.001  0.00  0.00    +0.292 HD
ENDBRANCH   8  22
TORSDOF 4
