REMARK  Name = ZINC66783385
REMARK  10 active torsions:
REMARK  status: ('A' for Active; 'I' for Inactive)
REMARK    1  A    between atoms: C_1  and  C_2
REMARK    2  A    between atoms: C_6  and  C_7
REMARK    3  A    between atoms: N_9  and  N_10
REMARK    4  A    between atoms: C_11  and  C_13
REMARK    5  A    between atoms: C_13  and  C_15
REMARK    6  A    between atoms: C_13  and  N_18
REMARK    7  A    between atoms: C_15  and  C_16
REMARK    8  A    between atoms: C_15  and  C_17
REMARK    9  A    between atoms: N_21  and  C_22
REMARK   10  A    between atoms: C_22  and  C_23
REMARK                            x       y       z     vdW  Elec       q    Type
REMARK                         _______ _______ _______ _____ _____    ______ ____
ROOT
ATOM      1  C   UNL     1       0.223  -1.155   7.377  0.00  0.00    +0.164 C 
ENDROOT
BRANCH   1   2
ATOM      2  N   UNL     1       0.357  -2.321   8.255  0.00  0.00    -0.288 N 
ATOM      3  C   UNL     1       0.932  -2.189   9.466  0.00  0.00    +0.300 C 
ATOM      4  O   UNL     1       1.340  -1.103   9.831  0.00  0.00    -0.253 OA
ATOM      5  N   UNL     1       1.056  -3.261  10.274  0.00  0.00    -0.295 N 
ATOM      6  H   UNL     1       0.032  -3.187   7.964  0.00  0.00    +0.151 HD
ATOM      7  H   UNL     1       0.730  -4.128   9.983  0.00  0.00    +0.151 HD
BRANCH   5   8
ATOM      8  C   UNL     1       1.681  -3.119  11.591  0.00  0.00    +0.141 C 
BRANCH   8   9
ATOM      9  C   UNL     1       1.696  -4.455  12.288  0.00  0.00    -0.030 A 
ATOM     10  C   UNL     1       0.630  -4.830  13.085  0.00  0.00    +0.005 A 
ATOM     11  C   UNL     1       0.643  -6.056  13.724  0.00  0.00    +0.000 A 
ATOM     12  C   UNL     1       1.722  -6.906  13.566  0.00  0.00    +0.000 A 
ATOM     13  C   UNL     1       2.787  -6.531  12.768  0.00  0.00    +0.000 A 
ATOM     14  C   UNL     1       2.772  -5.307  12.125  0.00  0.00    +0.005 A 
ENDBRANCH   8   9
ENDBRANCH   5   8
ENDBRANCH   1   2
BRANCH   1  16
ATOM     15  N   UNL     1       0.593  -0.811   4.956  0.00  0.00    -0.233 N 
ATOM     16  C   UNL     1       0.146  -1.613   5.943  0.00  0.00    +0.250 C 
ATOM     17  O   UNL     1      -0.317  -2.701   5.678  0.00  0.00    -0.272 OA
ATOM     18  H   UNL     1       0.896   0.087   5.160  0.00  0.00    +0.173 HD
BRANCH  15  21
ATOM     19  C   UNL     1       1.068  -0.475   2.647  0.00  0.00    +0.267 C 
ATOM     20  O   UNL     1       1.447   0.652   2.903  0.00  0.00    -0.268 OA
ATOM     21  N   UNL     1       0.621  -1.277   3.635  0.00  0.00    -0.230 N 
ATOM     22  H   UNL     1       0.318  -2.175   3.430  0.00  0.00    +0.173 HD
BRANCH  19  28
ATOM     23  C   UNL     1       2.033   1.107   0.144  0.00  0.00    +0.045 C 
ATOM     24  C   UNL     1       1.514  -0.307   0.116  0.00  0.00    -0.031 A 
ATOM     25  C   UNL     1       1.428  -1.032  -1.049  0.00  0.00    +0.011 A 
ATOM     26  C   UNL     1       0.951  -2.300  -1.002  0.00  0.00    +0.046 A 
ATOM     27  S   UNL     1       0.603  -2.550   0.622  0.00  0.00    -0.092 S 
ATOM     28  C   UNL     1       1.097  -0.962   1.265  0.00  0.00    +0.078 A 
ENDBRANCH  19  28
ENDBRANCH  15  21
ENDBRANCH   1  16
BRANCH   1  29
ATOM     29  C   UNL     1      -1.052  -0.390   7.737  0.00  0.00    +0.012 C 
ATOM     30  C   UNL     1      -0.933   0.158   9.161  0.00  0.00    +0.009 C 
ATOM     31  C   UNL     1      -1.244   0.770   6.758  0.00  0.00    +0.009 C 
ENDBRANCH   1  29
TORSDOF 7
