REMARK  Name = ZINC12037881
REMARK  13 active torsions:
REMARK  status: ('A' for Active; 'I' for Inactive)
REMARK    1  A    between atoms: C_1  and  C_2
REMARK    2  A    between atoms: C_4  and  C_8
REMARK    3  A    between atoms: N_5  and  C_7
REMARK    4  A    between atoms: N_10  and  C_11
REMARK    5  A    between atoms: C_11  and  C_12
REMARK    6  A    between atoms: C_22  and  C_23
REMARK    7  A    between atoms: C_22  and  N_70
REMARK    8  A    between atoms: C_25  and  O_33
REMARK    9  A    between atoms: C_26  and  O_31
REMARK   10  A    between atoms: C_28  and  O_29
REMARK   11  A    between atoms: O_29  and  C_30
REMARK   12  A    between atoms: O_31  and  C_32
REMARK   13  A    between atoms: O_33  and  C_34
REMARK                            x       y       z     vdW  Elec       q    Type
REMARK                         _______ _______ _______ _____ _____    ______ ____
ROOT
ATOM      1  C   UNL     1       2.425   0.737  -0.055  0.00  0.00    +0.136 C 
ATOM      2  C   UNL     1       3.768   1.508   0.003  0.00  0.00    +0.036 C 
ATOM      3  C   UNL     1       4.704   0.427   0.610  0.00  0.00    +0.037 C 
ATOM      4  C   UNL     1       3.754  -0.332   1.558  0.00  0.00    +0.067 C 
ATOM      5  O   UNL     1       2.413  -0.086   1.123  0.00  0.00    -0.369 OA
ATOM      6  C   UNL     1       4.059  -1.829   1.496  0.00  0.00    +0.016 C 
ATOM      7  C   UNL     1       3.159  -2.569   2.490  0.00  0.00    -0.076 C 
ATOM      8  C   UNL     1       3.048  -0.624   3.933  0.00  0.00    -0.076 C 
ATOM      9  C   UNL     1       3.944   0.179   2.986  0.00  0.00    +0.016 C 
ATOM     10  N   UNL     1       3.421  -2.052   3.850  0.00  0.00    +0.383 N 
ATOM     11  H   UNL     1       4.423  -2.146   4.055  0.00  0.00    -0.081 HD
ENDROOT
BRANCH   1  12
ATOM     12  C   UNL     1       1.249   1.715  -0.031  0.00  0.00    +0.136 C 
BRANCH  12  15
ATOM     13  C   UNL     1      -1.186   1.624  -0.002  0.00  0.00    +0.262 C 
ATOM     14  O   UNL     1      -1.203   2.836   0.094  0.00  0.00    -0.269 OA
ATOM     15  N   UNL     1      -0.010   0.966  -0.018  0.00  0.00    -0.308 N 
ATOM     16  H   UNL     1       0.003  -0.004  -0.026  0.00  0.00    +0.149 HD
BRANCH  13  20
ATOM     17  C   UNL     1      -4.659  -2.062  -0.277  0.00  0.00    +0.067 C 
ATOM     18  C   UNL     1      -3.976  -0.719  -0.222  0.00  0.00    +0.061 A 
ATOM     19  C   UNL     1      -2.601  -0.500  -0.119  0.00  0.00    +0.057 A 
ATOM     20  C   UNL     1      -2.449   0.876  -0.101  0.00  0.00    +0.123 A 
ATOM     21  N   UNL     1      -3.707   1.399  -0.199  0.00  0.00    -0.262 N 
ATOM     22  N   UNL     1      -4.566   0.448  -0.267  0.00  0.00    -0.176 NA
ATOM     23  C   UNL     1      -4.026   2.829  -0.223  0.00  0.00    +0.173 C 
ENDBRANCH  13  20
ENDBRANCH  12  15
ENDBRANCH   1  12
BRANCH  10  24
ATOM     24  C   UNL     1       2.654  -2.833   4.842  0.00  0.00    -0.039 C 
BRANCH  24  25
ATOM     25  C   UNL     1       2.840  -4.302   4.565  0.00  0.00    -0.019 A 
ATOM     26  C   UNL     1       1.852  -5.011   3.906  0.00  0.00    +0.054 A 
ATOM     27  C   UNL     1       2.021  -6.362   3.650  0.00  0.00    +0.162 A 
ATOM     28  C   UNL     1       3.186  -7.006   4.057  0.00  0.00    +0.165 A 
ATOM     29  C   UNL     1       4.174  -6.295   4.717  0.00  0.00    +0.095 A 
ATOM     30  C   UNL     1       4.003  -4.941   4.966  0.00  0.00    +0.125 A 
BRANCH  30  31
ATOM     31  O   UNL     1       4.976  -4.240   5.609  0.00  0.00    -0.495 OA
ATOM     32  C   UNL     1       6.148  -4.962   5.993  0.00  0.00    +0.277 C 
ENDBRANCH  30  31
BRANCH  28  33
ATOM     33  O   UNL     1       3.353  -8.332   3.806  0.00  0.00    -0.491 OA
ATOM     34  C   UNL     1       4.573  -8.927   4.252  0.00  0.00    +0.277 C 
ENDBRANCH  28  33
BRANCH  27  35
ATOM     35  O   UNL     1       1.049  -7.058   3.001  0.00  0.00    -0.491 OA
ATOM     36  C   UNL     1      -0.120  -6.333   2.612  0.00  0.00    +0.277 C 
ENDBRANCH  27  35
ENDBRANCH  24  25
ENDBRANCH  10  24
TORSDOF 8
