REMARK  Name = ZINC12850404
REMARK  6 active torsions:
REMARK  status: ('A' for Active; 'I' for Inactive)
REMARK    1  A    between atoms: C_1  and  C_2
REMARK    2  A    between atoms: C_2  and  C_4
REMARK    3  A    between atoms: C_2  and  N_10
REMARK    4  A    between atoms: C_11  and  C_13
REMARK    5  A    between atoms: C_17  and  C_28
REMARK    6  A    between atoms: C_20  and  C_24
REMARK                            x       y       z     vdW  Elec       q    Type
REMARK                         _______ _______ _______ _____ _____    ______ ____
ROOT
ATOM      1  C   UNL     1       0.699  -1.085  -3.576  0.00  0.00    +0.110 C 
ATOM      2  C   UNL     1       2.009  -1.425  -3.651  0.00  0.00    +0.072 C 
ATOM      3  C   UNL     1       2.270  -1.837  -5.030  0.00  0.00    +0.114 C 
ATOM      4  N   UNL     1       3.378  -2.239  -5.586  0.00  0.00    -0.365 N 
ATOM      5  C   UNL     1       3.380  -2.562  -7.018  0.00  0.00    +0.113 C 
ATOM      6  C   UNL     1       2.022  -3.122  -7.444  0.00  0.00    +0.062 C 
ATOM      7  C   UNL     1       0.918  -2.103  -7.123  0.00  0.00    +0.201 C 
ATOM      8  N   UNL     1       1.063  -1.736  -5.710  0.00  0.00    -0.226 N 
ATOM      9  N   UNL     1       0.110  -1.261  -4.817  0.00  0.00    -0.258 N 
ATOM     10  H   UNL     1      -0.819  -1.080  -5.030  0.00  0.00    +0.170 HD
ATOM     11  H   UNL     1       4.190  -2.322  -5.062  0.00  0.00    +0.161 HD
ENDROOT
BRANCH   5  12
ATOM     12  C   UNL     1       3.674  -1.314  -7.809  0.00  0.00    -0.024 A 
ATOM     13  C   UNL     1       3.121  -0.106  -7.426  0.00  0.00    +0.007 A 
ATOM     14  C   UNL     1       3.389   1.039  -8.151  0.00  0.00    +0.022 A 
ATOM     15  C   UNL     1       4.211   0.978  -9.261  0.00  0.00    +0.059 A 
ATOM     16  C   UNL     1       4.766  -0.231  -9.646  0.00  0.00    +0.060 A 
ATOM     17  C   UNL     1       4.500  -1.376  -8.915  0.00  0.00    +0.027 A 
ATOM     18 CL   UNL     1       5.798  -0.310 -11.039  0.00  0.00    -0.082 Cl
ATOM     19 CL   UNL     1       4.548   2.416 -10.173  0.00  0.00    -0.082 Cl
ENDBRANCH   5  12
BRANCH   1  21
ATOM     20  N   UNL     1       0.688  -0.476  -1.203  0.00  0.00    -0.304 N 
ATOM     21  C   UNL     1       0.006  -0.608  -2.358  0.00  0.00    +0.260 C 
ATOM     22  O   UNL     1      -1.177  -0.335  -2.400  0.00  0.00    -0.269 OA
ATOM     23  H   UNL     1       1.632  -0.695  -1.170  0.00  0.00    +0.150 HD
BRANCH  20  25
ATOM     24  C   UNL     1      -0.019   1.526   0.010  0.00  0.00    +0.033 C 
ATOM     25  C   UNL     1       0.002  -0.004   0.002  0.00  0.00    +0.100 C 
BRANCH  25  26
ATOM     26  C   UNL     1       0.731  -0.503   1.223  0.00  0.00    -0.027 A 
ATOM     27  C   UNL     1       2.113  -0.514   1.247  0.00  0.00    +0.005 A 
ATOM     28  C   UNL     1       2.782  -0.972   2.366  0.00  0.00    +0.000 A 
ATOM     29  C   UNL     1       2.068  -1.419   3.463  0.00  0.00    +0.000 A 
ATOM     30  C   UNL     1       0.686  -1.407   3.439  0.00  0.00    +0.000 A 
ATOM     31  C   UNL     1       0.017  -0.945   2.321  0.00  0.00    +0.005 A 
ENDBRANCH  25  26
ENDBRANCH  20  25
ENDBRANCH   1  21
BRANCH   7  32
ATOM     32  C   UNL     1      -0.457  -2.731  -7.361  0.00  0.00    +0.410 C 
ATOM     33  F   UNL     1      -0.607  -3.850  -6.535  0.00  0.00    -0.169 F 
ATOM     34  F   UNL     1      -1.455  -1.797  -7.066  0.00  0.00    -0.169 F 
ATOM     35  F   UNL     1      -0.565  -3.122  -8.700  0.00  0.00    -0.169 F 
ENDBRANCH   7  32
TORSDOF 5
