REMARK  Name = ZINC39544017
REMARK  8 active torsions:
REMARK  status: ('A' for Active; 'I' for Inactive)
REMARK    1  A    between atoms: C_1  and  N_2
REMARK    2  A    between atoms: C_3  and  C_5
REMARK    3  A    between atoms: C_8  and  N_21
REMARK    4  A    between atoms: N_11  and  C_12
REMARK    5  A    between atoms: N_21  and  C_22
REMARK    6  A    between atoms: C_22  and  C_23
REMARK    7  A    between atoms: C_27  and  O_29
REMARK    8  A    between atoms: O_29  and  C_30
REMARK                            x       y       z     vdW  Elec       q    Type
REMARK                         _______ _______ _______ _____ _____    ______ ____
ROOT
ATOM      1  C   UNL     1       1.069  -1.996  -1.524  0.00  0.00    +0.021 C 
ATOM      2  C   UNL     1       2.002  -2.549  -0.426  0.00  0.00    +0.010 C 
ATOM      3  C   UNL     1       2.477  -3.901  -1.019  0.00  0.00    +0.036 C 
ATOM      4  C   UNL     1       2.583  -3.561  -2.527  0.00  0.00    -0.059 C 
ATOM      5  N   UNL     1       1.444  -2.651  -2.790  0.00  0.00    +0.391 N 
ATOM      6  H   UNL     1       0.659  -3.178  -3.145  0.00  0.00    -0.080 HD
ENDROOT
BRANCH   5   7
ATOM      7  C   UNL     1       1.839  -1.634  -3.774  0.00  0.00    -0.059 C 
ATOM      8  C   UNL     1       0.616  -0.816  -4.239  0.00  0.00    +0.020 C 
ATOM      9  C   UNL     1       0.871  -0.519  -5.702  0.00  0.00    -0.046 A 
ATOM     10  C   UNL     1       0.294   0.421  -6.540  0.00  0.00    +0.004 A 
ATOM     11  C   UNL     1       0.691   0.511  -7.860  0.00  0.00    +0.000 A 
ATOM     12  C   UNL     1       1.667  -0.339  -8.346  0.00  0.00    +0.000 A 
ATOM     13  C   UNL     1       2.242  -1.277  -7.512  0.00  0.00    +0.004 A 
ATOM     14  C   UNL     1       1.845  -1.369  -6.188  0.00  0.00    -0.046 A 
ATOM     15  C   UNL     1       2.313  -2.296  -5.086  0.00  0.00    +0.020 C 
ENDBRANCH   5   7
BRANCH   1  18
ATOM     16  C   UNL     1       0.353   1.762  -1.674  0.00  0.00    +0.128 C 
ATOM     17  N   UNL     1       0.179   0.312  -1.556  0.00  0.00    -0.320 N 
ATOM     18  C   UNL     1       1.248  -0.504  -1.645  0.00  0.00    +0.199 C 
ATOM     19  O   UNL     1       2.353  -0.039  -1.823  0.00  0.00    -0.278 OA
ATOM     20  H   UNL     1      -0.705  -0.061  -1.413  0.00  0.00    +0.148 HD
ENDBRANCH   1  18
BRANCH   3  21
ATOM     21  N   UNL     1       3.786  -4.285  -0.473  0.00  0.00    -0.311 NA
ATOM     22  H   UNL     1       4.313  -4.824  -1.143  0.00  0.00    +0.122 HD
BRANCH  21  23
ATOM     23  C   UNL     1       3.634  -5.018   0.791  0.00  0.00    +0.116 C 
BRANCH  23  24
ATOM     24  C   UNL     1       4.994  -5.395   1.320  0.00  0.00    -0.030 A 
ATOM     25  C   UNL     1       5.570  -6.597   0.952  0.00  0.00    +0.005 A 
ATOM     26  C   UNL     1       6.817  -6.945   1.435  0.00  0.00    +0.004 A 
ATOM     27  C   UNL     1       7.492  -6.092   2.287  0.00  0.00    +0.046 A 
ATOM     28  C   UNL     1       6.917  -4.885   2.657  0.00  0.00    +0.129 A 
ATOM     29  C   UNL     1       5.667  -4.535   2.166  0.00  0.00    +0.051 A 
BRANCH  28  30
ATOM     30  O   UNL     1       7.579  -4.044   3.495  0.00  0.00    -0.456 OA
BRANCH  30  31
ATOM     31  C   UNL     1       7.198  -4.013   4.799  0.00  0.00    +0.128 A 
ATOM     32  C   UNL     1       6.116  -4.769   5.226  0.00  0.00    +0.046 A 
ATOM     33  C   UNL     1       5.731  -4.736   6.552  0.00  0.00    +0.004 A 
ATOM     34  C   UNL     1       6.423  -3.950   7.454  0.00  0.00    +0.000 A 
ATOM     35  C   UNL     1       7.502  -3.195   7.032  0.00  0.00    +0.004 A 
ATOM     36  C   UNL     1       7.895  -3.230   5.708  0.00  0.00    +0.046 A 
ENDBRANCH  30  31
ENDBRANCH  28  30
ENDBRANCH  23  24
ENDBRANCH  21  23
ENDBRANCH   3  21
TORSDOF 7
