REMARK  Name = ZINC36580703
REMARK  16 active torsions:
REMARK  status: ('A' for Active; 'I' for Inactive)
REMARK    1  A    between atoms: C_1  and  C_2
REMARK    2  A    between atoms: C_5  and  S_8
REMARK    3  A    between atoms: S_8  and  C_11
REMARK    4  A    between atoms: C_11  and  N_12
REMARK    5  A    between atoms: C_13  and  C_15
REMARK    6  A    between atoms: C_15  and  C_17
REMARK    7  A    between atoms: C_15  and  N_26
REMARK    8  A    between atoms: C_20  and  N_23
REMARK    9  A    between atoms: N_26  and  C_33
REMARK   10  A    between atoms: C_27  and  C_29
REMARK   11  A    between atoms: C_29  and  C_30
REMARK   12  A    between atoms: C_30  and  C_31
REMARK   13  A    between atoms: C_30  and  C_32
REMARK   14  A    between atoms: C_33  and  C_34
REMARK   15  A    between atoms: C_33  and  C_35
REMARK   16  A    between atoms: C_33  and  C_36
REMARK                            x       y       z     vdW  Elec       q    Type
REMARK                         _______ _______ _______ _____ _____    ______ ____
ROOT
ATOM      1  C   UNL     1       1.801  -8.058   1.983  0.00  0.00    +0.193 C 
ENDROOT
BRANCH   1   2
ATOM      2  C   UNL     1       0.365  -8.413   2.272  0.00  0.00    -0.018 A 
ATOM      3  C   UNL     1      -0.082  -8.477   3.579  0.00  0.00    +0.008 A 
ATOM      4  C   UNL     1      -1.399  -8.803   3.844  0.00  0.00    +0.033 A 
ATOM      5  C   UNL     1      -2.269  -9.065   2.803  0.00  0.00    +0.126 A 
ATOM      6  C   UNL     1      -1.822  -9.001   1.496  0.00  0.00    +0.033 A 
ATOM      7  C   UNL     1      -0.507  -8.671   1.231  0.00  0.00    +0.008 A 
BRANCH   5   8
ATOM      8  N   UNL     1      -3.679  -9.415   3.087  0.00  0.00    +0.056 N 
ATOM      9  O   UNL     1      -4.069  -9.472   4.230  0.00  0.00    -0.126 OA
ATOM     10  O   UNL     1      -4.440  -9.645   2.176  0.00  0.00    -0.126 OA
ENDBRANCH   5   8
ENDBRANCH   1   2
BRANCH   1  12
ATOM     11  N   UNL     1       3.226  -9.585   0.658  0.00  0.00    -0.294 N 
ATOM     12  C   UNL     1       2.609  -9.320   1.827  0.00  0.00    +0.239 C 
ATOM     13  O   UNL     1       2.705 -10.097   2.753  0.00  0.00    -0.273 OA
ATOM     14  H   UNL     1       3.149  -8.963  -0.083  0.00  0.00    +0.150 HD
BRANCH  11  15
ATOM     15  C   UNL     1       4.011 -10.812   0.506  0.00  0.00    +0.278 C 
BRANCH  15  16
ATOM     16  S   UNL     1       2.980 -12.101  -0.244  0.00  0.00    +0.013 S 
ATOM     17  O   UNL     1       1.721 -12.165   0.413  0.00  0.00    -0.168 OA
ATOM     18  O   UNL     1       3.746 -13.279  -0.457  0.00  0.00    -0.168 OA
BRANCH  16  23
ATOM     19  C   UNL     1       1.724 -10.063  -5.782  0.00  0.00    +0.044 C 
ATOM     20  C   UNL     1       2.038 -10.572  -4.399  0.00  0.00    -0.050 A 
ATOM     21  C   UNL     1       3.164 -11.345  -4.186  0.00  0.00    +0.005 A 
ATOM     22  C   UNL     1       3.451 -11.812  -2.917  0.00  0.00    +0.027 A 
ATOM     23  C   UNL     1       2.613 -11.505  -1.861  0.00  0.00    +0.090 A 
ATOM     24  C   UNL     1       1.488 -10.731  -2.074  0.00  0.00    +0.027 A 
ATOM     25  C   UNL     1       1.202 -10.261  -3.342  0.00  0.00    +0.005 A 
ENDBRANCH  16  23
ENDBRANCH  15  16
ENDBRANCH  11  15
ENDBRANCH   1  12
BRANCH   1  26
ATOM     26  N   UNL     1       2.341  -7.266   3.092  0.00  0.00    -0.281 N 
ATOM     27  C   UNL     1       1.824  -6.052   3.367  0.00  0.00    +0.217 C 
ATOM     28  O   UNL     1       2.193  -5.445   4.350  0.00  0.00    -0.276 OA
BRANCH  26  29
ATOM     29  C   UNL     1       3.441  -7.795   3.901  0.00  0.00    +0.030 C 
ATOM     30  C   UNL     1       4.501  -8.407   2.983  0.00  0.00    +0.031 C 
ATOM     31  C   UNL     1       4.066  -6.660   4.715  0.00  0.00    +0.031 C 
ATOM     32  C   UNL     1       2.907  -8.869   4.850  0.00  0.00    +0.031 C 
ENDBRANCH  26  29
BRANCH  27  33
ATOM     33  C   UNL     1       0.788  -5.449   2.454  0.00  0.00    +0.099 C 
BRANCH  33  34
ATOM     34  C   UNL     1       0.372  -4.078   2.990  0.00  0.00    -0.008 C 
ATOM     35  C   UNL     1       1.567  -3.124   2.932  0.00  0.00    +0.008 C 
ATOM     36  C   UNL     1      -0.767  -3.520   2.134  0.00  0.00    +0.008 C 
ENDBRANCH  33  34
ENDBRANCH  27  33
ENDBRANCH   1  26
TORSDOF 10
