REMARK  Name = ZINC40102400
REMARK  13 active torsions:
REMARK  status: ('A' for Active; 'I' for Inactive)
REMARK    1  A    between atoms: C_1  and  C_2
REMARK    2  A    between atoms: C_2  and  C_3
REMARK    3  A    between atoms: C_3  and  C_4
REMARK    4  A    between atoms: C_4  and  N_5
REMARK    5  A    between atoms: C_6  and  C_25
REMARK    6  A    between atoms: C_8  and  C_13
REMARK    7  A    between atoms: C_13  and  C_15
REMARK    8  A    between atoms: C_19  and  O_21
REMARK    9  A    between atoms: O_21  and  C_22
REMARK   10  A    between atoms: C_22  and  C_23
REMARK   11  A    between atoms: C_27  and  O_33
REMARK   12  A    between atoms: C_28  and  O_32
REMARK   13  A    between atoms: O_33  and  C_34
REMARK                            x       y       z     vdW  Elec       q    Type
REMARK                         _______ _______ _______ _____ _____    ______ ____
ROOT
ATOM      1  N   UNL     1       1.737  -2.307  -2.747  0.00  0.00    -0.284 N 
ATOM      2  C   UNL     1       1.162  -2.735  -4.028  0.00  0.00    +0.145 C 
ATOM      3  C   UNL     1       2.318  -3.231  -4.864  0.00  0.00    +0.076 C 
ATOM      4  C   UNL     1       3.434  -3.090  -4.111  0.00  0.00    +0.249 C 
ATOM      5  C   UNL     1       3.065  -2.512  -2.801  0.00  0.00    +0.288 C 
ATOM      6  O   UNL     1       3.847  -2.260  -1.906  0.00  0.00    -0.266 OA
ATOM      7  O   UNL     1       4.687  -3.421  -4.497  0.00  0.00    -0.282 OA
ENDROOT
BRANCH   2   8
ATOM      8  C   UNL     1       0.168  -3.846  -3.804  0.00  0.00    -0.018 A 
ATOM      9  C   UNL     1      -1.055  -3.817  -4.449  0.00  0.00    +0.055 A 
ATOM     10  C   UNL     1      -1.970  -4.837  -4.245  0.00  0.00    +0.163 A 
ATOM     11  C   UNL     1      -1.656  -5.890  -3.391  0.00  0.00    +0.173 A 
ATOM     12  C   UNL     1      -0.428  -5.913  -2.748  0.00  0.00    +0.063 A 
ATOM     13  C   UNL     1       0.483  -4.894  -2.960  0.00  0.00    +0.025 A 
ATOM     14 BR   UNL     1       0.005  -7.342  -1.587  0.00  0.00    -0.046 Br
BRANCH  11  15
ATOM     15  O   UNL     1      -2.551  -6.893  -3.187  0.00  0.00    -0.503 OA
ATOM     16  H   UNL     1      -2.463  -7.630  -3.807  0.00  0.00    +0.292 HD
ENDBRANCH  11  15
BRANCH  10  17
ATOM     17  O   UNL     1      -3.174  -4.809  -4.877  0.00  0.00    -0.491 OA
ATOM     18  C   UNL     1      -3.477  -3.642  -5.645  0.00  0.00    +0.277 C 
ENDBRANCH  10  17
ENDBRANCH   2   8
BRANCH   3  19
ATOM     19  C   UNL     1       2.245  -3.764  -6.228  0.00  0.00    +0.195 C 
ATOM     20  O   UNL     1       2.517  -4.931  -6.441  0.00  0.00    -0.287 OA
BRANCH  19  21
ATOM     21  C   UNL     1       1.842  -2.883  -7.345  0.00  0.00    +0.026 A 
ATOM     22  C   UNL     1       1.650  -1.517  -7.126  0.00  0.00    +0.012 A 
ATOM     23  C   UNL     1       1.273  -0.698  -8.171  0.00  0.00    +0.004 A 
ATOM     24  C   UNL     1       1.085  -1.226  -9.435  0.00  0.00    +0.046 A 
ATOM     25  C   UNL     1       1.273  -2.582  -9.663  0.00  0.00    +0.122 A 
ATOM     26  C   UNL     1       1.657  -3.412  -8.623  0.00  0.00    +0.057 A 
BRANCH  25  27
ATOM     27  O   UNL     1       1.087  -3.095 -10.908  0.00  0.00    -0.488 OA
BRANCH  27  28
ATOM     28  C   UNL     1       0.697  -2.180 -11.934  0.00  0.00    +0.256 C 
BRANCH  28  29
ATOM     29  C   UNL     1       0.538  -2.923 -13.235  0.00  0.00    +0.006 C 
ATOM     30  C   UNL     1      -0.505  -2.698 -13.995  0.00  0.00    +0.007 C 
ENDBRANCH  28  29
ENDBRANCH  27  28
ENDBRANCH  25  27
ENDBRANCH  19  21
ENDBRANCH   3  19
BRANCH   1  31
ATOM     31  C   UNL     1       0.996  -1.751  -1.613  0.00  0.00    +0.109 C 
BRANCH  31  32
ATOM     32  C   UNL     1       0.921  -0.229  -1.750  0.00  0.00    +0.019 C 
BRANCH  32  34
ATOM     33  C   UNL     1       0.072   1.875  -0.703  0.00  0.00    +0.004 C 
ATOM     34  C   UNL     1       0.147   0.353  -0.565  0.00  0.00    -0.002 C 
ENDBRANCH  32  34
ENDBRANCH  31  32
ENDBRANCH   1  31
TORSDOF 11
