REMARK  Name = ZINC26771797
REMARK  8 active torsions:
REMARK  status: ('A' for Active; 'I' for Inactive)
REMARK    1  A    between atoms: C_1  and  O_2
REMARK    2  A    between atoms: O_2  and  C_3
REMARK    3  A    between atoms: C_6  and  O_40
REMARK    4  A    between atoms: C_7  and  C_9
REMARK    5  A    between atoms: N_28  and  C_31
REMARK    6  A    between atoms: C_31  and  C_32
REMARK    7  A    between atoms: C_32  and  C_33
REMARK    8  A    between atoms: O_40  and  C_41
REMARK                            x       y       z     vdW  Elec       q    Type
REMARK                         _______ _______ _______ _____ _____    ______ ____
ROOT
ATOM      1  C   UNL     1      -1.320   4.874   0.048  0.00  0.00    +0.158 C 
ATOM      2  C   UNL     1      -0.963   3.448  -0.303  0.00  0.00    +0.046 A 
ATOM      3  C   UNL     1      -1.850   2.430  -0.283  0.00  0.00    -0.015 A 
ATOM      4  C   UNL     1      -1.131   1.232  -0.667  0.00  0.00    +0.003 A 
ATOM      5  C   UNL     1      -1.522  -0.102  -0.816  0.00  0.00    +0.010 A 
ATOM      6  C   UNL     1      -0.554  -0.992  -1.210  0.00  0.00    +0.001 A 
ATOM      7  C   UNL     1       0.752  -0.600  -1.450  0.00  0.00    +0.002 A 
ATOM      8  C   UNL     1       1.167   0.713  -1.311  0.00  0.00    +0.026 A 
ATOM      9  C   UNL     1       0.206   1.640  -0.913  0.00  0.00    +0.047 A 
ATOM     10  N   UNL     1       0.269   2.984  -0.684  0.00  0.00    -0.356 N 
ATOM     11  H   UNL     1       1.118   3.679  -0.763  0.00  0.00    +0.166 HD
ATOM     12  C   UNL     1      -3.304   2.567   0.091  0.00  0.00    +0.069 C 
ATOM     13  C   UNL     1      -3.501   3.894   0.838  0.00  0.00    +0.167 C 
ATOM     14  N   UNL     1      -2.794   4.956   0.124  0.00  0.00    -0.276 N 
ATOM     15  C   UNL     1      -3.416   5.984  -0.458  0.00  0.00    +0.234 C 
ATOM     16  O   UNL     1      -2.741   6.773  -1.084  0.00  0.00    -0.274 OA
ATOM     17  C   UNL     1      -4.888   6.228  -0.389  0.00  0.00    +0.203 C 
ATOM     18  N   UNL     1      -5.571   5.229   0.416  0.00  0.00    -0.291 N 
ATOM     19  C   UNL     1      -4.962   4.182   0.971  0.00  0.00    +0.237 C 
ATOM     20  O   UNL     1      -5.635   3.415   1.626  0.00  0.00    -0.274 OA
ENDROOT
BRANCH   1  25
ATOM     21  C   UNL     1      -0.275   6.248  -3.313  0.00  0.00    +0.121 A 
ATOM     22  C   UNL     1       0.137   7.528  -2.974  0.00  0.00    +0.049 A 
ATOM     23  C   UNL     1       0.077   7.947  -1.660  0.00  0.00    +0.049 A 
ATOM     24  C   UNL     1      -0.395   7.088  -0.678  0.00  0.00    +0.126 A 
ATOM     25  C   UNL     1      -0.807   5.808  -1.018  0.00  0.00    +0.024 A 
ATOM     26  C   UNL     1      -0.742   5.387  -2.332  0.00  0.00    +0.055 A 
BRANCH  21  28
ATOM     27  C   UNL     1       0.281   6.772  -5.566  0.00  0.00    +0.277 C 
ATOM     28  O   UNL     1      -0.216   5.835  -4.608  0.00  0.00    -0.495 OA
ENDBRANCH  21  28
BRANCH  24  29
ATOM     29  O   UNL     1      -0.454   7.500   0.616  0.00  0.00    -0.495 OA
ATOM     30  C   UNL     1      -0.014   8.831   0.893  0.00  0.00    +0.277 C 
ENDBRANCH  24  29
ENDBRANCH   1  25
BRANCH  18  31
ATOM     31  C   UNL     1      -7.012   5.380   0.629  0.00  0.00    +0.113 C 
BRANCH  31  32
ATOM     32  C   UNL     1      -7.771   4.654  -0.483  0.00  0.00    +0.057 C 
BRANCH  32  33
ATOM     33  C   UNL     1      -9.254   4.810  -0.265  0.00  0.00    -0.011 A 
ATOM     34  C   UNL     1      -9.962   3.827   0.401  0.00  0.00    +0.006 A 
ATOM     35  C   UNL     1     -11.321   3.973   0.607  0.00  0.00    +0.000 A 
ATOM     36  C   UNL     1     -11.976   5.097   0.138  0.00  0.00    +0.003 A 
ATOM     37  C   UNL     1     -11.271   6.078  -0.533  0.00  0.00    +0.038 A 
ATOM     38  C   UNL     1      -9.909   5.936  -0.735  0.00  0.00    +0.127 A 
ATOM     39  F   UNL     1      -9.219   6.894  -1.391  0.00  0.00    -0.205 F 
ENDBRANCH  32  33
ENDBRANCH  31  32
ENDBRANCH  18  31
TORSDOF 6
