REMARK  Name = ZINC27575201
REMARK  9 active torsions:
REMARK  status: ('A' for Active; 'I' for Inactive)
REMARK    1  A    between atoms: C_1  and  C_2
REMARK    2  A    between atoms: N_5  and  C_8
REMARK    3  A    between atoms: C_8  and  C_10
REMARK    4  A    between atoms: C_8  and  C_28
REMARK    5  A    between atoms: C_10  and  N_11
REMARK    6  A    between atoms: C_12  and  C_14
REMARK    7  A    between atoms: C_14  and  C_15
REMARK    8  A    between atoms: C_15  and  C_16
REMARK    9  A    between atoms: C_19  and  C_21
REMARK                            x       y       z     vdW  Elec       q    Type
REMARK                         _______ _______ _______ _____ _____    ______ ____
ROOT
ATOM      1  N   UNL     1       6.371   0.673  -2.479  0.00  0.00    -0.317 N 
ATOM      2  C   UNL     1       5.823   0.729  -1.249  0.00  0.00    +0.213 C 
ATOM      3  O   UNL     1       6.532   0.857  -0.274  0.00  0.00    -0.276 OA
ATOM      4  H   UNL     1       5.727   0.557  -3.363  0.00  0.00    +0.149 HD
ENDROOT
BRANCH   1   5
ATOM      5  C   UNL     1       7.824   0.765  -2.638  0.00  0.00    +0.094 C 
BRANCH   5   6
ATOM      6  C   UNL     1       8.181   0.675  -4.123  0.00  0.00    -0.013 C 
BRANCH   6  11
ATOM      7  C   UNL     1       6.161   5.104  -7.118  0.00  0.00    +0.007 C 
ATOM      8  C   UNL     1       7.090   4.140  -6.377  0.00  0.00    -0.018 C 
ATOM      9  C   UNL     1       7.029   2.761  -7.038  0.00  0.00    -0.015 C 
ATOM     10  C   UNL     1       7.913   1.786  -6.257  0.00  0.00    -0.078 C 
ATOM     11  N   UNL     1       7.444   1.704  -4.868  0.00  0.00    +0.386 N 
ATOM     12  C   UNL     1       7.538   3.007  -4.198  0.00  0.00    -0.078 C 
ATOM     13  C   UNL     1       6.643   4.018  -4.918  0.00  0.00    -0.015 C 
ATOM     14  H   UNL     1       6.383   1.414  -4.888  0.00  0.00    -0.081 HD
ENDBRANCH   6  11
BRANCH   6  15
ATOM     15  C   UNL     1       9.662   0.893  -4.298  0.00  0.00    -0.022 A 
ATOM     16  C   UNL     1      10.626  -0.007  -4.613  0.00  0.00    +0.009 A 
ATOM     17  C   UNL     1      11.935   0.424  -4.722  0.00  0.00    +0.008 A 
ATOM     18  C   UNL     1      12.216   1.733  -4.510  0.00  0.00    +0.045 A 
ATOM     19  S   UNL     1      10.601   2.404  -4.151  0.00  0.00    -0.103 S 
ENDBRANCH   6  15
ENDBRANCH   5   6
ENDBRANCH   1   5
BRANCH   2  20
ATOM     20  C   UNL     1       4.328   0.634  -1.085  0.00  0.00    +0.105 C 
BRANCH  20  21
ATOM     21  C   UNL     1       3.970   0.725   0.400  0.00  0.00    +0.105 C 
BRANCH  21  22
ATOM     22  C   UNL     1       2.475   0.629   0.564  0.00  0.00    +0.197 A 
ATOM     23  N   UNL     1       1.801  -0.474   0.729  0.00  0.00    -0.221 NA
ATOM     24  C   UNL     1       0.498  -0.174   0.839  0.00  0.00    +0.161 A 
ATOM     25  C   UNL     1       0.378   1.174   0.735  0.00  0.00    +0.158 A 
ATOM     26  O   UNL     1       1.625   1.665   0.563  0.00  0.00    -0.440 OA
BRANCH  25  27
ATOM     27  C   UNL     1      -0.876   1.954   0.794  0.00  0.00    +0.054 A 
ATOM     28  C   UNL     1      -1.966   1.590   0.001  0.00  0.00    +0.014 A 
ATOM     29  C   UNL     1      -3.133   2.322   0.061  0.00  0.00    +0.001 A 
ATOM     30  C   UNL     1      -3.227   3.416   0.903  0.00  0.00    +0.003 A 
ATOM     31  C   UNL     1      -2.152   3.784   1.691  0.00  0.00    +0.039 A 
ATOM     32  C   UNL     1      -0.978   3.057   1.646  0.00  0.00    +0.134 A 
ATOM     33  F   UNL     1       0.070   3.413   2.421  0.00  0.00    -0.205 F 
ENDBRANCH  25  27
ENDBRANCH  21  22
ENDBRANCH  20  21
ENDBRANCH   2  20
TORSDOF 8
