REMARK  Name = ZINC06834955
REMARK  9 active torsions:
REMARK  status: ('A' for Active; 'I' for Inactive)
REMARK    1  A    between atoms: C_1  and  C_2
REMARK    2  A    between atoms: C_2  and  C_3
REMARK    3  A    between atoms: C_12  and  C_13
REMARK    4  A    between atoms: C_13  and  C_15
REMARK    5  A    between atoms: C_13  and  C_18
REMARK    6  A    between atoms: C_15  and  C_16
REMARK    7  A    between atoms: C_21  and  O_24
REMARK    8  A    between atoms: O_24  and  C_25
REMARK    9  A    between atoms: C_25  and  C_26
REMARK                            x       y       z     vdW  Elec       q    Type
REMARK                         _______ _______ _______ _____ _____    ______ ____
ROOT
ATOM      1  C   UNL     1       0.071   3.056   6.091  0.00  0.00    +0.062 C 
ENDROOT
BRANCH   1  11
ATOM      2  C   UNL     1      -0.724   2.012   1.250  0.00  0.00    -0.024 A 
ATOM      3  C   UNL     1      -2.066   2.322   1.206  0.00  0.00    +0.005 A 
ATOM      4  C   UNL     1      -2.727   2.770   2.341  0.00  0.00    +0.001 A 
ATOM      5  C   UNL     1      -2.058   2.912   3.524  0.00  0.00    +0.010 A 
ATOM      6  C   UNL     1      -0.698   2.603   3.592  0.00  0.00    +0.004 A 
ATOM      7  C   UNL     1      -0.024   2.143   2.445  0.00  0.00    +0.050 A 
ATOM      8  N   UNL     1       1.287   1.926   2.804  0.00  0.00    -0.360 N 
ATOM      9  H   UNL     1       1.983   1.607   2.208  0.00  0.00    +0.165 HD
ATOM     10  C   UNL     1       1.462   2.222   4.129  0.00  0.00    +0.088 A 
ATOM     11  C   UNL     1       0.301   2.636   4.662  0.00  0.00    -0.014 A 
BRANCH   2  13
ATOM     12  C   UNL     1       0.002  -0.004   0.002  0.00  0.00    +0.009 C 
ATOM     13  C   UNL     1      -0.019   1.526   0.010  0.00  0.00    +0.034 C 
ENDBRANCH   2  13
ENDBRANCH   1  11
BRANCH   1  14
ATOM     14  C   UNL     1       0.399   1.909   7.011  0.00  0.00    -0.039 A 
ATOM     15  C   UNL     1       1.672   1.370   7.017  0.00  0.00    +0.008 A 
ATOM     16  C   UNL     1       1.976   0.322   7.864  0.00  0.00    +0.046 A 
ATOM     17  C   UNL     1       1.000  -0.199   8.700  0.00  0.00    +0.121 A 
ATOM     18  C   UNL     1      -0.279   0.340   8.688  0.00  0.00    +0.046 A 
ATOM     19  C   UNL     1      -0.577   1.392   7.844  0.00  0.00    +0.008 A 
BRANCH  17  20
ATOM     20  O   UNL     1       1.295  -1.234   9.529  0.00  0.00    -0.487 OA
BRANCH  20  21
ATOM     21  C   UNL     1       2.632  -1.737   9.488  0.00  0.00    +0.264 C 
BRANCH  21  22
ATOM     22  C   UNL     1       2.771  -2.874  10.467  0.00  0.00    -0.010 A 
ATOM     23  C   UNL     1       3.158  -2.621  11.770  0.00  0.00    +0.007 A 
ATOM     24  C   UNL     1       3.281  -3.663  12.669  0.00  0.00    +0.000 A 
ATOM     25  C   UNL     1       3.026  -4.960  12.264  0.00  0.00    +0.000 A 
ATOM     26  C   UNL     1       2.644  -5.214  10.960  0.00  0.00    +0.000 A 
ATOM     27  C   UNL     1       2.516  -4.171  10.061  0.00  0.00    +0.007 A 
ENDBRANCH  21  22
ENDBRANCH  20  21
ENDBRANCH  17  20
ENDBRANCH   1  14
BRANCH   1  28
ATOM     28  C   UNL     1       0.970   4.249   6.423  0.00  0.00    +0.138 C 
BRANCH  28  29
ATOM     29  C   UNL     1       0.560   5.434   5.588  0.00  0.00    +0.357 C 
ATOM     30  O   UNL     1      -0.356   5.336   4.807  0.00  0.00    -0.246 OA
ATOM     31  O   UNL     1       1.214   6.600   5.712  0.00  0.00    -0.246 OA
ENDBRANCH  28  29
ENDBRANCH   1  28
TORSDOF 8
