REMARK  Name = ZINC13593167
REMARK  7 active torsions:
REMARK  status: ('A' for Active; 'I' for Inactive)
REMARK    1  A    between atoms: C_1  and  C_2
REMARK    2  A    between atoms: C_4  and  C_8
REMARK    3  A    between atoms: N_6  and  C_7
REMARK    4  A    between atoms: C_8  and  N_9
REMARK    5  A    between atoms: N_9  and  C_10
REMARK    6  A    between atoms: C_10  and  C_11
REMARK    7  A    between atoms: C_12  and  C_21
REMARK                            x       y       z     vdW  Elec       q    Type
REMARK                         _______ _______ _______ _____ _____    ______ ____
ROOT
ATOM      1  C   UNL     1       2.859  -5.434  -2.826  0.00  0.00    +0.039 A 
ATOM      2  C   UNL     1       3.709  -5.029  -3.816  0.00  0.00    +0.146 A 
ATOM      3  N   UNL     1       4.881  -5.669  -3.650  0.00  0.00    -0.223 NA
ATOM      4  C   UNL     1       4.795  -6.459  -2.593  0.00  0.00    +0.139 A 
ATOM      5  N   UNL     1       3.539  -6.327  -2.054  0.00  0.00    -0.303 N 
ATOM      6  C   UNL     1       3.187  -7.036  -0.940  0.00  0.00    +0.113 A 
ATOM      7  C   UNL     1       4.066  -7.873  -0.351  0.00  0.00    +0.058 A 
ATOM      8  C   UNL     1       5.362  -8.027  -0.877  0.00  0.00    +0.025 A 
ATOM      9  C   UNL     1       5.724  -7.335  -1.989  0.00  0.00    +0.048 A 
ATOM     10 CL   UNL     1       3.597  -8.764   1.063  0.00  0.00    -0.082 Cl
ENDROOT
BRANCH   2  11
ATOM     11  C   UNL     1       3.395  -4.059  -4.883  0.00  0.00    +0.267 C 
ATOM     12  O   UNL     1       2.295  -3.543  -4.931  0.00  0.00    -0.268 OA
ATOM     13  N   UNL     1       4.328  -3.744  -5.803  0.00  0.00    -0.296 N 
ATOM     14  C   UNL     1       5.658  -4.368  -5.755  0.00  0.00    +0.108 C 
ATOM     15  C   UNL     1       5.527  -5.848  -6.092  0.00  0.00    +0.019 C 
ATOM     16  C   UNL     1       5.240  -6.000  -7.595  0.00  0.00    +0.002 C 
ATOM     17  C   UNL     1       3.773  -5.685  -7.867  0.00  0.00    +0.000 C 
ATOM     18  C   UNL     1       3.638  -4.407  -8.715  0.00  0.00    +0.002 C 
ATOM     19  C   UNL     1       4.580  -3.330  -8.178  0.00  0.00    +0.019 C 
ATOM     20  C   UNL     1       4.028  -2.790  -6.857  0.00  0.00    +0.108 C 
ENDBRANCH   2  11
BRANCH   1  21
ATOM     21  C   UNL     1       1.438  -4.975  -2.622  0.00  0.00    -0.025 C 
BRANCH  21  22
ATOM     22  N   UNL     1       1.426  -3.790  -1.754  0.00  0.00    +0.386 N 
ATOM     23  H   UNL     1       1.960  -3.051  -2.187  0.00  0.00    -0.085 HD
ATOM     24  H   UNL     1       1.836  -4.022  -0.862  0.00  0.00    -0.085 HD
BRANCH  22  25
ATOM     25  C   UNL     1       0.041  -3.343  -1.556  0.00  0.00    -0.024 C 
BRANCH  25  29
ATOM     26  C   UNL     1      -0.018   1.503   0.010  0.00  0.00    +0.065 C 
ATOM     27  C   UNL     1       0.002  -0.004   0.002  0.00  0.00    +0.036 A 
ATOM     28  C   UNL     1       0.008  -0.796  -1.095  0.00  0.00    +0.045 A 
ATOM     29  C   UNL     1       0.029  -2.127  -0.666  0.00  0.00    +0.046 A 
ATOM     30  N   UNL     1       0.034  -2.134   0.643  0.00  0.00    -0.178 NA
ATOM     31  N   UNL     1       0.023  -0.805   1.088  0.00  0.00    -0.271 N 
ATOM     32  C   UNL     1       0.030  -0.364   2.485  0.00  0.00    +0.172 C 
ENDBRANCH  25  29
ENDBRANCH  22  25
ENDBRANCH  21  22
ENDBRANCH   1  21
TORSDOF 5
