REMARK  Name = ZINC63974646
REMARK  14 active torsions:
REMARK  status: ('A' for Active; 'I' for Inactive)
REMARK    1  A    between atoms: C_1  and  C_2
REMARK    2  A    between atoms: C_4  and  C_34
REMARK    3  A    between atoms: C_5  and  C_14
REMARK    4  A    between atoms: N_11  and  C_13
REMARK    5  A    between atoms: C_14  and  C_15
REMARK    6  A    between atoms: C_15  and  C_16
REMARK    7  A    between atoms: N_18  and  C_19
REMARK    8  A    between atoms: N_18  and  C_25
REMARK    9  A    between atoms: C_19  and  C_20
REMARK   10  A    between atoms: C_20  and  C_21
REMARK   11  A    between atoms: C_21  and  N_22
REMARK   12  A    between atoms: N_22  and  C_23
REMARK   13  A    between atoms: N_22  and  C_24
REMARK   14  A    between atoms: C_25  and  C_26
REMARK                            x       y       z     vdW  Elec       q    Type
REMARK                         _______ _______ _______ _____ _____    ______ ____
ROOT
ATOM      1  C   UNL     1      -6.045  -3.005  -2.533  0.00  0.00    +0.216 C 
ATOM      2  O   UNL     1      -5.893  -2.106  -3.332  0.00  0.00    -0.276 OA
ATOM      3  N   UNL     1      -6.934  -3.987  -2.784  0.00  0.00    -0.297 N 
ENDROOT
BRANCH   1   4
ATOM      4  C   UNL     1      -5.239  -3.026  -1.259  0.00  0.00    +0.097 C 
BRANCH   4   5
ATOM      5  C   UNL     1      -4.313  -1.809  -1.222  0.00  0.00    +0.026 C 
BRANCH   5  10
ATOM      6  C   UNL     1      -1.073  -5.909   0.681  0.00  0.00    +0.068 C 
ATOM      7  C   UNL     1      -2.155  -5.205   1.459  0.00  0.00    +0.069 A 
ATOM      8  C   UNL     1      -2.790  -3.928   1.103  0.00  0.00    +0.039 A 
ATOM      9  C   UNL     1      -2.635  -3.057   0.079  0.00  0.00    -0.049 C 
ATOM     10  C   UNL     1      -3.511  -1.819   0.081  0.00  0.00    +0.104 C 
ATOM     11  C   UNL     1      -4.485  -1.662   1.228  0.00  0.00    +0.245 C 
ATOM     12  O   UNL     1      -5.213  -0.690   1.283  0.00  0.00    -0.273 OA
ATOM     13  N   UNL     1      -4.539  -2.592   2.173  0.00  0.00    -0.161 NA
ATOM     14  C   UNL     1      -3.774  -3.670   2.167  0.00  0.00    +0.151 A 
ATOM     15  N   UNL     1      -3.669  -4.728   3.022  0.00  0.00    -0.251 N 
ATOM     16  N   UNL     1      -2.699  -5.618   2.561  0.00  0.00    -0.174 NA
ATOM     17  C   UNL     1      -4.461  -4.905   4.242  0.00  0.00    +0.174 C 
ATOM     18  C   UNL     1      -1.632  -3.307  -1.018  0.00  0.00    +0.040 C 
ENDBRANCH   5  10
ENDBRANCH   4   5
ENDBRANCH   1   4
BRANCH   3  19
ATOM     19  C   UNL     1      -7.117  -5.074  -1.819  0.00  0.00    +0.106 C 
BRANCH  19  20
ATOM     20  C   UNL     1      -8.210  -4.689  -0.820  0.00  0.00    +0.000 C 
BRANCH  20  21
ATOM     21  C   UNL     1      -8.402  -5.824   0.188  0.00  0.00    -0.078 C 
BRANCH  21  22
ATOM     22  N   UNL     1      -9.452  -5.455   1.147  0.00  0.00    +0.376 N 
ATOM     23  C   UNL     1      -9.719  -6.590   2.041  0.00  0.00    -0.097 C 
ATOM     24  C   UNL     1      -9.006  -4.302   1.941  0.00  0.00    -0.097 C 
ATOM     25  H   UNL     1     -10.294  -5.215   0.647  0.00  0.00    -0.083 HD
ENDBRANCH  21  22
ENDBRANCH  20  21
ENDBRANCH  19  20
ENDBRANCH   3  19
BRANCH   3  26
ATOM     26  C   UNL     1      -7.716  -3.967  -4.022  0.00  0.00    +0.142 C 
BRANCH  26  27
ATOM     27  C   UNL     1      -6.971  -4.711  -5.100  0.00  0.00    -0.029 A 
ATOM     28  C   UNL     1      -6.082  -4.037  -5.917  0.00  0.00    +0.007 A 
ATOM     29  C   UNL     1      -5.398  -4.718  -6.906  0.00  0.00    +0.022 A 
ATOM     30  C   UNL     1      -5.602  -6.076  -7.079  0.00  0.00    +0.059 A 
ATOM     31  C   UNL     1      -6.492  -6.751  -6.260  0.00  0.00    +0.060 A 
ATOM     32  C   UNL     1      -7.172  -6.068  -5.267  0.00  0.00    +0.026 A 
ATOM     33 CL   UNL     1      -6.750  -8.454  -6.476  0.00  0.00    -0.082 Cl
ATOM     34 CL   UNL     1      -4.744  -6.932  -8.321  0.00  0.00    -0.082 Cl
ENDBRANCH  26  27
ENDBRANCH   3  26
TORSDOF 9
