REMARK  Name = ZINC02102371
REMARK  15 active torsions:
REMARK  status: ('A' for Active; 'I' for Inactive)
REMARK    1  A    between atoms: C_1  and  C_2
REMARK    2  A    between atoms: C_2  and  C_3
REMARK    3  A    between atoms: C_3  and  C_4
REMARK    4  A    between atoms: C_4  and  N_81
REMARK    5  A    between atoms: C_5  and  C_6
REMARK    6  A    between atoms: C_5  and  N_81
REMARK    7  A    between atoms: C_6  and  C_7
REMARK    8  A    between atoms: C_7  and  C_8
REMARK    9  A    between atoms: C_9  and  C_10
REMARK   10  A    between atoms: C_9  and  N_81
REMARK   11  A    between atoms: C_10  and  C_11
REMARK   12  A    between atoms: C_11  and  N_12
REMARK   13  A    between atoms: C_32  and  C_34
REMARK   14  A    between atoms: C_38  and  O_40
REMARK   15  A    between atoms: O_40  and  C_41
REMARK                            x       y       z     vdW  Elec       q    Type
REMARK                         _______ _______ _______ _____ _____    ______ ____
ROOT
ATOM      1  N   UNL     1       3.922   3.242   0.316  0.00  0.00    -0.291 N 
ATOM      2  C   UNL     1       3.357   1.919   0.110  0.00  0.00    +0.203 C 
ATOM      3  C   UNL     1       1.884   1.893   0.357  0.00  0.00    +0.234 C 
ATOM      4  O   UNL     1       1.301   0.843   0.189  0.00  0.00    -0.274 OA
ATOM      5  N   UNL     1       1.167   2.947   0.749  0.00  0.00    -0.276 N 
ATOM      6  C   UNL     1       1.760   4.247   1.062  0.00  0.00    +0.167 C 
ATOM      7  C   UNL     1       3.219   4.290   0.738  0.00  0.00    +0.237 C 
ATOM      8  O   UNL     1       3.798   5.348   0.868  0.00  0.00    -0.274 OA
ATOM      9  C   UNL     1       1.554   4.549   2.553  0.00  0.00    +0.069 C 
ATOM     10  C   UNL     1       0.129   4.224   2.924  0.00  0.00    -0.015 A 
ATOM     11  C   UNL     1      -0.614   4.651   4.092  0.00  0.00    +0.003 A 
ATOM     12  C   UNL     1      -0.280   5.454   5.186  0.00  0.00    +0.010 A 
ATOM     13  C   UNL     1      -1.256   5.650   6.132  0.00  0.00    +0.001 A 
ATOM     14  C   UNL     1      -2.515   5.085   6.019  0.00  0.00    +0.002 A 
ATOM     15  C   UNL     1      -2.873   4.287   4.946  0.00  0.00    +0.026 A 
ATOM     16  C   UNL     1      -1.903   4.070   3.970  0.00  0.00    +0.047 A 
ATOM     17  N   UNL     1      -1.917   3.353   2.808  0.00  0.00    -0.356 N 
ATOM     18  H   UNL     1      -2.675   2.850   2.472  0.00  0.00    +0.166 HD
ATOM     19  C   UNL     1      -0.699   3.451   2.189  0.00  0.00    +0.046 A 
ATOM     20  C   UNL     1      -0.300   2.809   0.880  0.00  0.00    +0.154 C 
ENDROOT
BRANCH  20  21
ATOM     21  C   UNL     1      -0.985   3.508  -0.266  0.00  0.00    -0.018 A 
ATOM     22  C   UNL     1      -1.692   2.773  -1.200  0.00  0.00    +0.006 A 
ATOM     23  C   UNL     1      -2.326   3.412  -2.249  0.00  0.00    +0.004 A 
ATOM     24  C   UNL     1      -2.246   4.785  -2.373  0.00  0.00    +0.045 A 
ATOM     25  C   UNL     1      -1.533   5.524  -1.441  0.00  0.00    +0.120 A 
ATOM     26  C   UNL     1      -0.901   4.881  -0.386  0.00  0.00    +0.051 A 
BRANCH  25  27
ATOM     27  O   UNL     1      -1.452   6.875  -1.561  0.00  0.00    -0.495 OA
ATOM     28  C   UNL     1      -2.126   7.469  -2.672  0.00  0.00    +0.277 C 
ENDBRANCH  25  27
ENDBRANCH  20  21
BRANCH   1  29
ATOM     29  C   UNL     1       5.349   3.433   0.042  0.00  0.00    +0.106 C 
BRANCH  29  30
ATOM     30  C   UNL     1       5.537   3.844  -1.420  0.00  0.00    +0.000 C 
BRANCH  30  31
ATOM     31  C   UNL     1       7.027   4.044  -1.706  0.00  0.00    -0.077 C 
BRANCH  31  32
ATOM     32  N   UNL     1       7.194   4.420  -3.125  0.00  0.00    +0.380 N 
ATOM     33  H   UNL     1       6.698   3.738  -3.711  0.00  0.00    -0.082 HD
BRANCH  32  34
ATOM     34  C   UNL     1       6.622   5.762  -3.363  0.00  0.00    -0.079 C 
BRANCH  34  35
ATOM     35  C   UNL     1       7.361   6.814  -2.534  0.00  0.00    -0.019 C 
BRANCH  35  37
ATOM     36  C   UNL     1       7.555   9.256  -2.042  0.00  0.00    +0.004 C 
ATOM     37  C   UNL     1       6.817   8.204  -2.872  0.00  0.00    -0.005 C 
ENDBRANCH  35  37
ENDBRANCH  34  35
ENDBRANCH  32  34
BRANCH  32  38
ATOM     38  C   UNL     1       8.627   4.410  -3.485  0.00  0.00    -0.079 C 
BRANCH  38  39
ATOM     39  C   UNL     1       8.762   4.666  -4.988  0.00  0.00    -0.019 C 
BRANCH  39  40
ATOM     40  C   UNL     1      10.224   4.495  -5.405  0.00  0.00    -0.005 C 
ATOM     41  C   UNL     1      10.358   4.751  -6.908  0.00  0.00    +0.004 C 
ENDBRANCH  39  40
ENDBRANCH  38  39
ENDBRANCH  32  38
ENDBRANCH  31  32
ENDBRANCH  30  31
ENDBRANCH  29  30
ENDBRANCH   1  29
TORSDOF 12
