REMARK  Name = ZINC13613669
REMARK  9 active torsions:
REMARK  status: ('A' for Active; 'I' for Inactive)
REMARK    1  A    between atoms: C_1  and  C_2
REMARK    2  A    between atoms: C_6  and  C_8
REMARK    3  A    between atoms: C_8  and  N_9
REMARK    4  A    between atoms: C_10  and  C_12
REMARK    5  A    between atoms: C_12  and  N_13
REMARK    6  A    between atoms: N_13  and  C_14
REMARK    7  A    between atoms: N_13  and  S_23
REMARK    8  A    between atoms: C_18  and  N_20
REMARK    9  A    between atoms: S_23  and  C_26
REMARK                            x       y       z     vdW  Elec       q    Type
REMARK                         _______ _______ _______ _____ _____    ______ ____
ROOT
ATOM      1  N   UNL     1      -0.141   9.126  -3.010  0.00  0.00    -0.194 N 
ENDROOT
BRANCH   1   2
ATOM      2  C   UNL     1      -1.363   9.792  -2.900  0.00  0.00    +0.054 A 
ATOM      3  C   UNL     1      -1.527  11.045  -3.478  0.00  0.00    +0.025 A 
ATOM      4  C   UNL     1      -2.739  11.699  -3.371  0.00  0.00    +0.004 A 
ATOM      5  C   UNL     1      -3.784  11.114  -2.679  0.00  0.00    +0.033 A 
ATOM      6  C   UNL     1      -3.622   9.870  -2.098  0.00  0.00    +0.128 A 
ATOM      7  C   UNL     1      -2.415   9.208  -2.206  0.00  0.00    +0.057 A 
BRANCH   6   8
ATOM      8  N   UNL     1      -4.743   9.248  -1.359  0.00  0.00    +0.056 N 
ATOM      9  O   UNL     1      -4.601   8.152  -0.846  0.00  0.00    -0.126 OA
ATOM     10  O   UNL     1      -5.808   9.831  -1.264  0.00  0.00    -0.126 OA
ENDBRANCH   6   8
ENDBRANCH   1   2
BRANCH   1  11
ATOM     11  S   UNL     1       1.246   9.841  -2.456  0.00  0.00    +0.075 S 
ATOM     12  O   UNL     1       0.843  10.879  -1.574  0.00  0.00    -0.150 OA
ATOM     13  O   UNL     1       2.111   8.789  -2.050  0.00  0.00    -0.150 OA
BRANCH  11  14
ATOM     14  C   UNL     1       2.016  10.623  -3.835  0.00  0.00    +0.109 A 
ATOM     15  C   UNL     1       2.839   9.893  -4.672  0.00  0.00    +0.029 A 
ATOM     16  C   UNL     1       3.439  10.505  -5.757  0.00  0.00    +0.002 A 
ATOM     17  C   UNL     1       3.224  11.849  -5.998  0.00  0.00    +0.000 A 
ATOM     18  C   UNL     1       2.405  12.580  -5.158  0.00  0.00    +0.002 A 
ATOM     19  C   UNL     1       1.801  11.967  -4.076  0.00  0.00    +0.029 A 
ENDBRANCH  11  14
ENDBRANCH   1  11
BRANCH   1  20
ATOM     20  C   UNL     1      -0.086   7.793  -3.617  0.00  0.00    +0.227 C 
BRANCH  20  22
ATOM     21  N   UNL     1      -0.401   5.446  -2.902  0.00  0.00    -0.310 N 
ATOM     22  C   UNL     1      -0.394   6.752  -2.571  0.00  0.00    +0.232 C 
ATOM     23  O   UNL     1      -0.636   7.090  -1.432  0.00  0.00    -0.274 OA
ATOM     24  H   UNL     1      -0.208   5.176  -3.814  0.00  0.00    +0.149 HD
BRANCH  21  25
ATOM     25  C   UNL     1      -0.701   4.434  -1.886  0.00  0.00    +0.139 C 
BRANCH  25  31
ATOM     26  C   UNL     1      -2.969   0.653  -4.254  0.00  0.00    +0.044 C 
ATOM     27  C   UNL     1      -1.730   1.254  -3.642  0.00  0.00    -0.050 A 
ATOM     28  C   UNL     1      -0.541   0.549  -3.654  0.00  0.00    +0.003 A 
ATOM     29  C   UNL     1       0.597   1.103  -3.099  0.00  0.00    +0.001 A 
ATOM     30  C   UNL     1       0.545   2.360  -2.526  0.00  0.00    +0.005 A 
ATOM     31  C   UNL     1      -0.645   3.063  -2.510  0.00  0.00    -0.030 A 
ATOM     32  C   UNL     1      -1.783   2.509  -3.065  0.00  0.00    +0.008 A 
ENDBRANCH  25  31
ENDBRANCH  21  25
ENDBRANCH  20  22
ENDBRANCH   1  20
TORSDOF 8
