REMARK  Name = ZINC00702470
REMARK  10 active torsions:
REMARK  status: ('A' for Active; 'I' for Inactive)
REMARK    1  A    between atoms: C_1  and  C_2
REMARK    2  A    between atoms: C_2  and  C_39
REMARK    3  A    between atoms: C_6  and  C_26
REMARK    4  A    between atoms: C_13  and  S_17
REMARK    5  A    between atoms: S_17  and  C_18
REMARK    6  A    between atoms: C_18  and  C_19
REMARK    7  A    between atoms: C_30  and  O_34
REMARK    8  A    between atoms: C_31  and  O_32
REMARK    9  A    between atoms: O_32  and  C_33
REMARK   10  A    between atoms: O_34  and  C_35
REMARK                            x       y       z     vdW  Elec       q    Type
REMARK                         _______ _______ _______ _____ _____    ______ ____
ROOT
ATOM      1  C   UNL     1      -1.772   2.677  -5.240  0.00  0.00    +0.011 C 
ATOM      2  C   UNL     1      -3.136   2.657  -4.546  0.00  0.00    -0.023 C 
ATOM      3  C   UNL     1      -3.771   1.274  -4.696  0.00  0.00    +0.058 C 
ATOM      4  C   UNL     1      -2.891   0.238  -4.038  0.00  0.00    +0.017 C 
ATOM      5  C   UNL     1      -2.137   0.549  -2.964  0.00  0.00    +0.024 C 
ATOM      6  C   UNL     1      -1.270  -0.485  -2.292  0.00  0.00    +0.096 C 
ATOM      7  C   UNL     1      -1.028  -1.660  -3.192  0.00  0.00    +0.069 A 
ATOM      8  C   UNL     1       0.029  -2.541  -2.937  0.00  0.00    +0.258 A 
ATOM      9  O   UNL     1       0.769  -2.366  -1.982  0.00  0.00    -0.267 OA
ATOM     10  N   UNL     1       0.215  -3.589  -3.767  0.00  0.00    -0.302 N 
ATOM     11  H   UNL     1       0.966  -4.229  -3.603  0.00  0.00    +0.171 HD
ATOM     12  C   UNL     1      -0.617  -3.776  -4.829  0.00  0.00    +0.171 A 
ATOM     13  N   UNL     1      -1.613  -2.949  -5.074  0.00  0.00    -0.208 NA
ATOM     14  C   UNL     1      -1.842  -1.892  -4.286  0.00  0.00    +0.135 A 
ATOM     15  N   UNL     1      -2.883  -1.027  -4.560  0.00  0.00    -0.302 N 
ATOM     16  C   UNL     1      -2.134   1.853  -2.434  0.00  0.00    +0.162 C 
ATOM     17  O   UNL     1      -1.451   2.098  -1.459  0.00  0.00    -0.292 OA
ATOM     18  C   UNL     1      -2.958   2.949  -3.052  0.00  0.00    +0.086 C 
ATOM     19  C   UNL     1      -4.048   3.714  -5.172  0.00  0.00    +0.011 C 
ATOM     20  H   UNL     1      -3.614  -1.318  -5.127  0.00  0.00    +0.153 HD
ENDROOT
BRANCH   6  21
ATOM     21  C   UNL     1      -1.951  -0.959  -1.034  0.00  0.00    +0.010 A 
ATOM     22  C   UNL     1      -1.479  -0.556   0.202  0.00  0.00    +0.008 A 
ATOM     23  C   UNL     1      -2.102  -0.989   1.357  0.00  0.00    +0.004 A 
ATOM     24  C   UNL     1      -3.200  -1.826   1.283  0.00  0.00    +0.049 A 
ATOM     25  C   UNL     1      -3.682  -2.228   0.048  0.00  0.00    +0.162 A 
ATOM     26  C   UNL     1      -3.051  -1.797  -1.116  0.00  0.00    +0.166 A 
BRANCH  26  27
ATOM     27  O   UNL     1      -3.516  -2.194  -2.330  0.00  0.00    -0.491 OA
ATOM     28  C   UNL     1      -3.254  -3.544  -2.716  0.00  0.00    +0.277 C 
ENDBRANCH  26  27
BRANCH  25  29
ATOM     29  O   UNL     1      -4.765  -3.046  -0.028  0.00  0.00    -0.491 OA
ATOM     30  C   UNL     1      -5.362  -3.448   1.207  0.00  0.00    +0.277 C 
ENDBRANCH  25  29
ENDBRANCH   6  21
BRANCH  12  31
ATOM     31  S   UNL     1      -0.356  -5.152  -5.898  0.00  0.00    -0.083 S 
BRANCH  31  32
ATOM     32  C   UNL     1      -1.707  -4.897  -7.075  0.00  0.00    +0.115 C 
BRANCH  32  33
ATOM     33  C   UNL     1      -1.682  -5.989  -8.113  0.00  0.00    -0.002 A 
ATOM     34  C   UNL     1      -0.953  -5.820  -9.276  0.00  0.00    +0.007 A 
ATOM     35  C   UNL     1      -0.925  -6.824 -10.226  0.00  0.00    +0.000 A 
ATOM     36  C   UNL     1      -1.635  -7.992 -10.020  0.00  0.00    +0.003 A 
ATOM     37  C   UNL     1      -2.368  -8.161  -8.861  0.00  0.00    +0.038 A 
ATOM     38  C   UNL     1      -2.393  -7.158  -7.906  0.00  0.00    +0.127 A 
ATOM     39  F   UNL     1      -3.110  -7.322  -6.773  0.00  0.00    -0.205 F 
ENDBRANCH  32  33
ENDBRANCH  31  32
ENDBRANCH  12  31
TORSDOF 6
