REMARK  Name = ZINC43425547
REMARK  3 active torsions:
REMARK  status: ('A' for Active; 'I' for Inactive)
REMARK    1  A    between atoms: C_4  and  N_11
REMARK    2  A    between atoms: C_5  and  C_7
REMARK    3  A    between atoms: N_8  and  O_9
REMARK                            x       y       z     vdW  Elec       q    Type
REMARK                         _______ _______ _______ _____ _____    ______ ____
ROOT
ATOM      1  C   UNL     1      -0.442   1.073  -0.522  0.00  0.00    +0.001 A 
ATOM      2  C   UNL     1       0.635   1.941  -0.594  0.00  0.00    +0.002 A 
ATOM      3  C   UNL     1       1.913   1.492  -0.326  0.00  0.00    +0.024 A 
ATOM      4  C   UNL     1       2.125   0.164   0.018  0.00  0.00    +0.041 A 
ATOM      5  C   UNL     1       1.037  -0.717   0.091  0.00  0.00    +0.039 A 
ATOM      6  C   UNL     1      -0.248  -0.249  -0.182  0.00  0.00    +0.013 A 
ENDROOT
BRANCH   4   7
ATOM      7  N   UNL     1       3.413  -0.291   0.287  0.00  0.00    -0.322 N 
ATOM      8  C   UNL     1       4.347  -0.723  -0.778  0.00  0.00    +0.133 C 
ATOM      9  C   UNL     1       4.978  -2.071  -0.430  0.00  0.00    +0.179 C 
ATOM     10  O   UNL     1       5.421  -2.119   0.938  0.00  0.00    -0.373 OA
ATOM     11  C   UNL     1       4.356  -1.869   1.828  0.00  0.00    +0.139 C 
ATOM     12  C   UNL     1       3.950  -0.374   1.639  0.00  0.00    +0.102 C 
ATOM     13  C   UNL     1       2.992  -0.128   2.796  0.00  0.00    +0.025 C 
ATOM     14  C   UNL     1       3.471  -1.072   3.929  0.00  0.00    +0.004 C 
ATOM     15  C   UNL     1       4.634  -1.925   3.330  0.00  0.00    +0.033 C 
ENDBRANCH   4   7
BRANCH   5  16
ATOM     16  C   UNL     1       1.251  -2.134   0.456  0.00  0.00    +0.164 C 
ATOM     17  N   UNL     1       0.628  -2.644   1.478  0.00  0.00    -0.071 NA
ATOM     18  N   UNL     1       2.115  -2.918  -0.291  0.00  0.00    -0.340 N 
ATOM     19  H   UNL     1       2.579  -2.537  -1.053  0.00  0.00    +0.144 HD
ATOM     20  H   UNL     1       2.255  -3.847  -0.052  0.00  0.00    +0.144 HD
BRANCH  17  21
ATOM     21  O   UNL     1      -0.165  -1.816   2.309  0.00  0.00    -0.408 OA
ATOM     22  H   UNL     1      -0.648  -2.296   2.996  0.00  0.00    +0.328 HD
ENDBRANCH  17  21
ENDBRANCH   5  16
TORSDOF 3
