REMARK  Name = ZINC06301949
REMARK  8 active torsions:
REMARK  status: ('A' for Active; 'I' for Inactive)
REMARK    1  A    between atoms: C_1  and  C_2
REMARK    2  A    between atoms: C_4  and  C_35
REMARK    3  A    between atoms: C_7  and  C_14
REMARK    4  A    between atoms: C_14  and  C_16
REMARK    5  A    between atoms: C_14  and  N_63
REMARK    6  A    between atoms: N_20  and  C_21
REMARK    7  A    between atoms: C_21  and  C_22
REMARK    8  A    between atoms: C_32  and  C_34
REMARK                            x       y       z     vdW  Elec       q    Type
REMARK                         _______ _______ _______ _____ _____    ______ ____
ROOT
ATOM      1  C   UNL     1       6.081  -0.133  -2.162  0.00  0.00    +0.039 C 
ENDROOT
BRANCH   1   8
ATOM      2  C   UNL     1       2.698  -4.697  -7.761  0.00  0.00    +0.044 C 
ATOM      3  C   UNL     1       3.181  -3.673  -6.766  0.00  0.00    -0.048 A 
ATOM      4  C   UNL     1       2.563  -2.431  -6.704  0.00  0.00    +0.007 A 
ATOM      5  C   UNL     1       2.985  -1.489  -5.810  0.00  0.00    -0.041 A 
ATOM      6  C   UNL     1       4.050  -1.777  -4.949  0.00  0.00    +0.002 A 
ATOM      7  C   UNL     1       4.528  -0.790  -3.979  0.00  0.00    +0.018 A 
ATOM      8  C   UNL     1       5.564  -1.126  -3.171  0.00  0.00    +0.011 A 
ATOM      9  C   UNL     1       6.164  -2.399  -3.276  0.00  0.00    +0.251 A 
ATOM     10  O   UNL     1       7.097  -2.678  -2.543  0.00  0.00    -0.268 OA
ATOM     11  N   UNL     1       5.728  -3.314  -4.160  0.00  0.00    -0.322 N 
ATOM     12  H   UNL     1       6.160  -4.181  -4.203  0.00  0.00    +0.169 HD
ATOM     13  C   UNL     1       4.678  -3.035  -5.010  0.00  0.00    +0.050 A 
ATOM     14  C   UNL     1       4.231  -3.979  -5.928  0.00  0.00    +0.029 A 
ATOM     15  C   UNL     1       2.307  -0.144  -5.750  0.00  0.00    +0.044 C 
ENDBRANCH   1   8
BRANCH   1  22
ATOM     16  C   UNL     1       7.731   0.647  -3.752  0.00  0.00    -0.077 C 
ATOM     17  C   UNL     1       9.234   0.752  -4.019  0.00  0.00    -0.019 C 
ATOM     18  C   UNL     1       9.871   1.672  -2.974  0.00  0.00    -0.003 C 
ATOM     19  C   UNL     1       9.584   1.118  -1.575  0.00  0.00    -0.016 C 
ATOM     20  C   UNL     1       8.070   1.002  -1.379  0.00  0.00    -0.070 C 
ATOM     21  C   UNL     1       7.779   0.429   0.010  0.00  0.00    -0.013 C 
ATOM     22  N   UNL     1       7.522   0.085  -2.401  0.00  0.00    +0.391 N 
ATOM     23  H   UNL     1       8.011  -0.816  -2.336  0.00  0.00    -0.080 HD
ENDBRANCH   1  22
BRANCH   1  24
ATOM     24  C   UNL     1       5.320   1.161  -2.295  0.00  0.00    +0.143 A 
ATOM     25  N   UNL     1       5.430   2.038  -3.263  0.00  0.00    -0.115 NA
ATOM     26  N   UNL     1       4.620   3.008  -3.015  0.00  0.00    -0.023 NA
ATOM     27  N   UNL     1       3.991   2.770  -1.917  0.00  0.00    -0.044 NA
ATOM     28  N   UNL     1       4.393   1.639  -1.444  0.00  0.00    -0.226 N 
BRANCH  28  29
ATOM     29  C   UNL     1       3.931   0.998  -0.210  0.00  0.00    +0.182 C 
BRANCH  29  30
ATOM     30  C   UNL     1       2.664   0.231  -0.487  0.00  0.00    -0.026 A 
ATOM     31  C   UNL     1       1.439   0.866  -0.403  0.00  0.00    +0.005 A 
ATOM     32  C   UNL     1       0.277   0.162  -0.656  0.00  0.00    +0.000 A 
ATOM     33  C   UNL     1       0.339  -1.177  -0.992  0.00  0.00    +0.000 A 
ATOM     34  C   UNL     1       1.564  -1.813  -1.074  0.00  0.00    +0.000 A 
ATOM     35  C   UNL     1       2.726  -1.109  -0.822  0.00  0.00    +0.005 A 
ENDBRANCH  29  30
ENDBRANCH  28  29
ENDBRANCH   1  24
TORSDOF 5
