REMARK  Name = ZINC50699286
REMARK  5 active torsions:
REMARK  status: ('A' for Active; 'I' for Inactive)
REMARK    1  A    between atoms: C_1  and  C_2
REMARK    2  A    between atoms: C_8  and  N_10
REMARK    3  A    between atoms: C_11  and  C_13
REMARK    4  A    between atoms: C_15  and  N_23
REMARK    5  A    between atoms: C_18  and  N_19
REMARK                            x       y       z     vdW  Elec       q    Type
REMARK                         _______ _______ _______ _____ _____    ______ ____
ROOT
ATOM      1  C   UNL     1       0.254   0.647   4.932  0.00  0.00    +0.069 A 
ATOM      2  C   UNL     1      -0.262   1.943   4.980  0.00  0.00    +0.041 A 
ATOM      3  C   UNL     1      -1.115   2.307   6.008  0.00  0.00    +0.061 A 
ATOM      4  C   UNL     1      -1.456   1.380   6.990  0.00  0.00    +0.146 A 
ATOM      5  C   UNL     1      -0.944   0.095   6.942  0.00  0.00    +0.073 A 
ATOM      6  C   UNL     1      -0.098  -0.277   5.918  0.00  0.00    +0.141 A 
ATOM      7  F   UNL     1      -2.289   1.736   7.992  0.00  0.00    -0.203 F 
ENDROOT
BRANCH   1   9
ATOM      8  N   UNL     1       0.785   0.409   2.555  0.00  0.00    -0.308 N 
ATOM      9  C   UNL     1       1.165   0.252   3.838  0.00  0.00    +0.247 C 
ATOM     10  O   UNL     1       2.257  -0.215   4.096  0.00  0.00    -0.270 OA
ATOM     11  H   UNL     1      -0.087   0.782   2.349  0.00  0.00    +0.149 HD
BRANCH   8  18
ATOM     12  C   UNL     1       1.517   2.313   0.499  0.00  0.00    +0.009 C 
ATOM     13  C   UNL     1       1.352   0.820   0.211  0.00  0.00    +0.006 C 
ATOM     14  C   UNL     1       2.295   0.411  -0.921  0.00  0.00    +0.005 C 
ATOM     15  C   UNL     1       2.130  -1.083  -1.209  0.00  0.00    +0.000 C 
ATOM     16  C   UNL     1       2.466  -1.885   0.050  0.00  0.00    +0.002 C 
ATOM     17  C   UNL     1       1.523  -1.476   1.183  0.00  0.00    +0.022 C 
ATOM     18  C   UNL     1       1.688   0.018   1.470  0.00  0.00    +0.076 C 
ENDBRANCH   8  18
ENDBRANCH   1   9
BRANCH   6  19
ATOM     19  N   UNL     1       0.442  -1.655   5.868  0.00  0.00    +0.057 N 
ATOM     20  O   UNL     1       0.238  -2.417   6.783  0.00  0.00    -0.126 OA
ATOM     21  O   UNL     1       1.086  -2.017   4.911  0.00  0.00    -0.126 OA
ENDBRANCH   6  19
BRANCH   3  22
ATOM     22  N   UNL     1      -1.635   3.605   6.060  0.00  0.00    -0.356 N 
ATOM     23  H   UNL     1      -1.397   4.250   5.376  0.00  0.00    +0.142 HD
ATOM     24  H   UNL     1      -2.232   3.859   6.780  0.00  0.00    +0.142 HD
ENDBRANCH   3  22
TORSDOF 4
