REMARK  Name = ZINC19848845
REMARK  7 active torsions:
REMARK  status: ('A' for Active; 'I' for Inactive)
REMARK    1  A    between atoms: C_1  and  C_2
REMARK    2  A    between atoms: C_3  and  C_29
REMARK    3  A    between atoms: C_4  and  C_20
REMARK    4  A    between atoms: C_10  and  C_15
REMARK    5  A    between atoms: C_29  and  O_31
REMARK    6  A    between atoms: O_31  and  C_32
REMARK    7  A    between atoms: C_32  and  C_33
REMARK                            x       y       z     vdW  Elec       q    Type
REMARK                         _______ _______ _______ _____ _____    ______ ____
ROOT
ATOM      1  C   UNL     1      -1.697  -6.416  -1.854  0.00  0.00    +0.061 C 
ATOM      2  C   UNL     1      -1.475  -5.492  -0.684  0.00  0.00    +0.016 C 
ATOM      3  C   UNL     1      -1.991  -4.251  -0.707  0.00  0.00    +0.065 C 
ATOM      4  C   UNL     1      -1.782  -3.300   0.436  0.00  0.00    +0.092 C 
ATOM      5  C   UNL     1      -1.347  -4.035   1.679  0.00  0.00    +0.024 C 
ATOM      6  C   UNL     1      -0.859  -5.291   1.602  0.00  0.00    +0.016 C 
ATOM      7  N   UNL     1      -0.750  -5.922   0.392  0.00  0.00    -0.321 N 
ATOM      8  C   UNL     1      -0.427  -6.034   2.842  0.00  0.00    +0.060 C 
ATOM      9  C   UNL     1       0.088  -5.039   3.884  0.00  0.00    +0.039 C 
ATOM     10  C   UNL     1      -1.029  -4.037   4.195  0.00  0.00    +0.088 C 
ATOM     11  C   UNL     1      -1.462  -3.375   2.915  0.00  0.00    +0.162 C 
ATOM     12  O   UNL     1      -1.918  -2.249   2.950  0.00  0.00    -0.292 OA
ATOM     13  H   UNL     1      -0.072  -6.782   0.291  0.00  0.00    +0.152 HD
ENDROOT
BRANCH   4  14
ATOM     14  C   UNL     1      -0.723  -2.297   0.058  0.00  0.00    -0.032 A 
ATOM     15  C   UNL     1       0.551  -2.727  -0.263  0.00  0.00    +0.008 A 
ATOM     16  C   UNL     1       1.526  -1.810  -0.610  0.00  0.00    +0.050 A 
ATOM     17  C   UNL     1       1.227  -0.458  -0.638  0.00  0.00    +0.166 A 
ATOM     18  C   UNL     1      -0.056  -0.025  -0.315  0.00  0.00    +0.167 A 
ATOM     19  C   UNL     1      -1.028  -0.949   0.032  0.00  0.00    +0.054 A 
ATOM     20  O   UNL     1      -0.096   1.336  -0.416  0.00  0.00    -0.453 OA
ATOM     21  C   UNL     1       1.279   1.762  -0.406  0.00  0.00    +0.466 C 
ATOM     22  O   UNL     1       1.992   0.632  -0.941  0.00  0.00    -0.453 OA
ENDBRANCH   4  14
BRANCH   9  23
ATOM     23  C   UNL     1       0.472  -5.775   5.142  0.00  0.00    -0.006 A 
ATOM     24  C   UNL     1       1.673  -5.827   5.768  0.00  0.00    +0.011 A 
ATOM     25  C   UNL     1       1.795  -6.575   6.924  0.00  0.00    +0.008 A 
ATOM     26  C   UNL     1       0.710  -7.235   7.397  0.00  0.00    +0.045 A 
ATOM     27  S   UNL     1      -0.539  -6.800   6.198  0.00  0.00    -0.101 S 
ENDBRANCH   9  23
BRANCH   3  28
ATOM     28  C   UNL     1      -2.744  -3.833  -1.828  0.00  0.00    +0.338 C 
ATOM     29  O   UNL     1      -2.832  -4.553  -2.805  0.00  0.00    -0.245 OA
BRANCH  28  30
ATOM     30  O   UNL     1      -3.367  -2.635  -1.815  0.00  0.00    -0.457 OA
BRANCH  30  31
ATOM     31  C   UNL     1      -4.110  -2.278  -2.981  0.00  0.00    +0.268 C 
BRANCH  31  32
ATOM     32  C   UNL     1      -4.730  -0.918  -2.784  0.00  0.00    -0.010 A 
ATOM     33  C   UNL     1      -5.993  -0.808  -2.234  0.00  0.00    +0.007 A 
ATOM     34  C   UNL     1      -6.560   0.440  -2.049  0.00  0.00    +0.000 A 
ATOM     35  C   UNL     1      -5.867   1.576  -2.424  0.00  0.00    +0.000 A 
ATOM     36  C   UNL     1      -4.606   1.465  -2.979  0.00  0.00    +0.000 A 
ATOM     37  C   UNL     1      -4.038   0.218  -3.159  0.00  0.00    +0.007 A 
ENDBRANCH  31  32
ENDBRANCH  30  31
ENDBRANCH  28  30
ENDBRANCH   3  28
TORSDOF 6
