REMARK  Name = ZINC08917796
REMARK  12 active torsions:
REMARK  status: ('A' for Active; 'I' for Inactive)
REMARK    1  A    between atoms: C_1  and  C_2
REMARK    2  A    between atoms: C_2  and  C_33
REMARK    3  A    between atoms: C_3  and  C_4
REMARK    4  A    between atoms: C_4  and  C_5
REMARK    5  A    between atoms: C_5  and  C_6
REMARK    6  A    between atoms: C_10  and  C_13
REMARK    7  A    between atoms: C_13  and  C_16
REMARK    8  A    between atoms: N_14  and  O_15
REMARK    9  A    between atoms: C_16  and  C_17
REMARK   10  A    between atoms: C_24  and  O_25
REMARK   11  A    between atoms: O_25  and  C_26
REMARK   12  A    between atoms: C_32  and  N_68
REMARK                            x       y       z     vdW  Elec       q    Type
REMARK                         _______ _______ _______ _____ _____    ______ ____
ROOT
ATOM      1  C   UNL     1       0.483   6.519  -2.384  0.00  0.00    +0.048 C 
ENDROOT
BRANCH   1   2
ATOM      2  C   UNL     1       0.645   6.261  -3.884  0.00  0.00    -0.028 C 
ATOM      3  C   UNL     1       0.465   7.556  -4.633  0.00  0.00    -0.012 A 
ATOM      4  C   UNL     1      -0.259   7.623  -5.805  0.00  0.00    -0.040 A 
ATOM      5  C   UNL     1      -0.395   8.835  -6.466  0.00  0.00    +0.053 A 
ATOM      6  C   UNL     1       0.187   9.983  -5.957  0.00  0.00    +0.170 A 
ATOM      7  C   UNL     1       0.915   9.920  -4.773  0.00  0.00    +0.208 A 
ATOM      8  C   UNL     1       1.052   8.706  -4.115  0.00  0.00    +0.167 A 
ATOM      9  O   UNL     1       1.383  11.170  -4.481  0.00  0.00    -0.449 OA
ATOM     10  C   UNL     1       0.593  12.072  -5.278  0.00  0.00    +0.467 C 
ATOM     11  O   UNL     1       0.198  11.272  -6.408  0.00  0.00    -0.452 OA
ATOM     12  C   UNL     1      -0.921   6.405  -6.396  0.00  0.00    +0.017 C 
ATOM     13  C   UNL     1      -0.329   5.138  -5.780  0.00  0.00    -0.074 C 
ATOM     14  C   UNL     1      -0.126   3.979  -3.661  0.00  0.00    -0.095 C 
ATOM     15  N   UNL     1      -0.372   5.286  -4.312  0.00  0.00    +0.383 N 
ATOM     16  H   UNL     1      -1.300   5.627  -4.037  0.00  0.00    -0.081 HD
BRANCH   8  17
ATOM     17  O   UNL     1       1.763   8.640  -2.958  0.00  0.00    -0.491 OA
ATOM     18  C   UNL     1       3.181   8.512  -3.074  0.00  0.00    +0.277 C 
ENDBRANCH   8  17
ENDBRANCH   1   2
BRANCH   1  19
ATOM     19  C   UNL     1       0.752   5.246  -1.624  0.00  0.00    +0.082 C 
ATOM     20  N   UNL     1      -0.195   4.690  -0.936  0.00  0.00    -0.092 NA
BRANCH  19  24
ATOM     21  C   UNL     1       4.516   3.296  -2.082  0.00  0.00    -0.007 C 
ATOM     22  C   UNL     1       3.757   3.022  -0.778  0.00  0.00    +0.008 C 
ATOM     23  C   UNL     1       2.272   3.297  -1.009  0.00  0.00    +0.037 C 
ATOM     24  C   UNL     1       2.087   4.636  -1.662  0.00  0.00    -0.027 C 
ATOM     25  C   UNL     1       3.054   5.297  -2.262  0.00  0.00    -0.021 C 
ATOM     26  C   UNL     1       4.465   4.798  -2.368  0.00  0.00    +0.031 C 
BRANCH  21  27
ATOM     27  C   UNL     1       5.972   2.849  -1.938  0.00  0.00    +0.008 C 
BRANCH  27  28
ATOM     28  C   UNL     1       6.696   3.029  -3.274  0.00  0.00    +0.027 C 
BRANCH  28  31
ATOM     29  C   UNL     1       7.675   0.898  -4.834  0.00  0.00    +0.038 C 
ATOM     30  C   UNL     1       8.585   1.596  -3.856  0.00  0.00    -0.080 C 
ATOM     31  C   UNL     1       8.130   2.589  -3.132  0.00  0.00    -0.028 C 
ATOM     32  C   UNL     1      10.017   1.151  -3.709  0.00  0.00    +0.038 C 
ENDBRANCH  28  31
ENDBRANCH  27  28
ENDBRANCH  21  27
ENDBRANCH  19  24
BRANCH  20  33
ATOM     33  O   UNL     1      -1.496   5.250  -0.941  0.00  0.00    -0.409 OA
ATOM     34  H   UNL     1      -2.151   4.725  -0.461  0.00  0.00    +0.328 HD
ENDBRANCH  20  33
ENDBRANCH   1  19
TORSDOF 8
