REMARK  Name = ZINC02137828
REMARK  11 active torsions:
REMARK  status: ('A' for Active; 'I' for Inactive)
REMARK    1  A    between atoms: C_1  and  C_2
REMARK    2  A    between atoms: C_2  and  C_3
REMARK    3  A    between atoms: C_3  and  O_4
REMARK    4  A    between atoms: O_4  and  C_5
REMARK    5  A    between atoms: C_9  and  C_14
REMARK    6  A    between atoms: C_10  and  O_11
REMARK    7  A    between atoms: O_11  and  C_12
REMARK    8  A    between atoms: C_12  and  C_13
REMARK    9  A    between atoms: N_20  and  C_35
REMARK   10  A    between atoms: C_23  and  C_34
REMARK   11  A    between atoms: C_38  and  C_41
REMARK                            x       y       z     vdW  Elec       q    Type
REMARK                         _______ _______ _______ _____ _____    ______ ____
ROOT
ATOM      1  C   UNL     1      -3.104  -0.019   0.070  0.00  0.00    +0.072 C 
ATOM      2  C   UNL     1      -4.600  -0.061  -0.275  0.00  0.00    +0.123 C 
ATOM      3  N   UNL     1      -5.235   1.097   0.356  0.00  0.00    -0.265 N 
ATOM      4  C   UNL     1      -6.130   1.179   1.356  0.00  0.00    +0.317 C 
ATOM      5  O   UNL     1      -6.793   0.240   1.750  0.00  0.00    -0.252 OA
ATOM      6  N   UNL     1      -6.210   2.422   1.858  0.00  0.00    -0.192 N 
ATOM      7  C   UNL     1      -5.442   3.290   1.165  0.00  0.00    +0.257 C 
ATOM      8  O   UNL     1      -5.255   4.463   1.410  0.00  0.00    -0.272 OA
ATOM      9  C   UNL     1      -4.864   2.493   0.020  0.00  0.00    +0.153 C 
ATOM     10  C   UNL     1      -3.355   2.521   0.029  0.00  0.00    +0.054 A 
ATOM     11  C   UNL     1      -2.598   1.400   0.035  0.00  0.00    -0.008 A 
ATOM     12  C   UNL     1      -1.213   1.837   0.003  0.00  0.00    +0.004 A 
ATOM     13  C   UNL     1      -0.004   1.135  -0.005  0.00  0.00    +0.010 A 
ATOM     14  C   UNL     1       1.147   1.884  -0.023  0.00  0.00    +0.001 A 
ATOM     15  C   UNL     1       1.123   3.269  -0.027  0.00  0.00    +0.002 A 
ATOM     16  C   UNL     1      -0.059   3.988  -0.015  0.00  0.00    +0.026 A 
ATOM     17  C   UNL     1      -1.244   3.254   0.002  0.00  0.00    +0.047 A 
ATOM     18  N   UNL     1      -2.555   3.631   0.014  0.00  0.00    -0.356 N 
ATOM     19  H   UNL     1      -2.872   4.548   0.013  0.00  0.00    +0.166 HD
ATOM     20  C   UNL     1      -5.436   2.932  -1.330  0.00  0.00    +0.048 C 
ENDROOT
BRANCH   6  21
ATOM     21  C   UNL     1      -6.994   2.775   2.966  0.00  0.00    +0.045 A 
ATOM     22  C   UNL     1      -7.850   1.843   3.538  0.00  0.00    +0.024 A 
ATOM     23  C   UNL     1      -8.617   2.192   4.632  0.00  0.00    +0.005 A 
ATOM     24  C   UNL     1      -8.541   3.471   5.152  0.00  0.00    -0.050 A 
ATOM     25  C   UNL     1      -7.694   4.403   4.581  0.00  0.00    +0.005 A 
ATOM     26  C   UNL     1      -6.920   4.058   3.490  0.00  0.00    +0.024 A 
ATOM     27  C   UNL     1      -9.384   3.851   6.342  0.00  0.00    +0.044 C 
ENDBRANCH   6  21
BRANCH   1  32
ATOM     28  C   UNL     1      -0.881  -2.687  -1.439  0.00  0.00    +0.162 A 
ATOM     29  C   UNL     1      -0.930  -2.352  -2.783  0.00  0.00    +0.049 A 
ATOM     30  C   UNL     1      -1.680  -1.267  -3.198  0.00  0.00    +0.004 A 
ATOM     31  C   UNL     1      -2.387  -0.518  -2.276  0.00  0.00    +0.008 A 
ATOM     32  C   UNL     1      -2.337  -0.843  -0.933  0.00  0.00    +0.007 A 
ATOM     33  C   UNL     1      -1.588  -1.929  -0.510  0.00  0.00    +0.166 A 
BRANCH  28  34
ATOM     34  O   UNL     1      -0.144  -3.753  -1.028  0.00  0.00    -0.488 OA
BRANCH  34  35
ATOM     35  C   UNL     1       0.555  -4.485  -2.037  0.00  0.00    +0.229 C 
BRANCH  35  37
ATOM     36  C   UNL     1       2.071  -6.423  -2.470  0.00  0.00    +0.007 C 
ATOM     37  C   UNL     1       1.323  -5.639  -1.390  0.00  0.00    +0.038 C 
ENDBRANCH  35  37
ENDBRANCH  34  35
ENDBRANCH  28  34
BRANCH  33  38
ATOM     38  O   UNL     1      -1.543  -2.253   0.810  0.00  0.00    -0.488 OA
BRANCH  38  39
ATOM     39  C   UNL     1      -2.534  -3.166   1.287  0.00  0.00    +0.226 C 
ATOM     40  C   UNL     1      -2.325  -3.408   2.784  0.00  0.00    +0.048 C 
ENDBRANCH  38  39
ENDBRANCH  33  38
ENDBRANCH   1  32
TORSDOF 7
