REMARK  Name = ZINC59223888
REMARK  7 active torsions:
REMARK  status: ('A' for Active; 'I' for Inactive)
REMARK    1  A    between atoms: C_1  and  C_2
REMARK    2  A    between atoms: C_2  and  O_3
REMARK    3  A    between atoms: O_3  and  C_4
REMARK    4  A    between atoms: C_5  and  C_12
REMARK    5  A    between atoms: N_18  and  C_19
REMARK    6  A    between atoms: C_22  and  C_26
REMARK    7  A    between atoms: C_23  and  C_25
REMARK                            x       y       z     vdW  Elec       q    Type
REMARK                         _______ _______ _______ _____ _____    ______ ____
ROOT
ATOM      1  C   UNL     1      -1.508  -1.815  -2.484  0.00  0.00    +0.032 C 
ATOM      2  C   UNL     1      -1.492  -2.498  -3.656  0.00  0.00    +0.078 C 
ATOM      3  C   UNL     1      -1.314  -1.995  -5.031  0.00  0.00    +0.256 C 
ATOM      4  O   UNL     1      -1.150  -0.810  -5.259  0.00  0.00    -0.269 OA
ATOM      5  N   UNL     1      -1.340  -2.888  -6.006  0.00  0.00    -0.260 N 
ATOM      6  C   UNL     1      -1.527  -4.225  -5.728  0.00  0.00    +0.166 C 
ATOM      7  N   UNL     1      -1.579  -5.234  -6.568  0.00  0.00    -0.226 NA
ATOM      8  S   UNL     1      -1.674  -4.252  -3.949  0.00  0.00    -0.049 S 
ATOM      9  H   UNL     1      -1.227  -2.600  -6.925  0.00  0.00    +0.157 HD
ENDROOT
BRANCH   1  11
ATOM     10  C   UNL     1      -1.517  -1.940   0.004  0.00  0.00    +0.142 A 
ATOM     11  C   UNL     1      -1.858  -2.505  -1.236  0.00  0.00    +0.020 A 
ATOM     12  C   UNL     1      -2.534  -3.730  -1.275  0.00  0.00    +0.027 A 
ATOM     13  C   UNL     1      -2.859  -4.372  -0.099  0.00  0.00    +0.020 A 
ATOM     14  C   UNL     1      -2.520  -3.810   1.122  0.00  0.00    +0.034 A 
ATOM     15  C   UNL     1      -1.848  -2.603   1.175  0.00  0.00    +0.061 A 
ATOM     16 BR   UNL     1      -1.385  -1.852   2.847  0.00  0.00    -0.046 Br
ATOM     17 BR   UNL     1      -3.772  -6.027  -0.152  0.00  0.00    -0.050 Br
BRANCH  10  18
ATOM     18  O   UNL     1      -0.861  -0.752   0.054  0.00  0.00    -0.491 OA
BRANCH  18  20
ATOM     19  C   UNL     1       1.124   0.625   0.108  0.00  0.00    +0.048 C 
ATOM     20  C   UNL     1       0.567  -0.799   0.046  0.00  0.00    +0.226 C 
ENDBRANCH  18  20
ENDBRANCH  10  18
ENDBRANCH   1  11
BRANCH   7  21
ATOM     21  C   UNL     1      -1.437  -5.015  -7.911  0.00  0.00    +0.067 A 
ATOM     22  C   UNL     1      -2.115  -3.959  -8.525  0.00  0.00    +0.028 A 
ATOM     23  C   UNL     1      -1.968  -3.744  -9.879  0.00  0.00    +0.006 A 
ATOM     24  C   UNL     1      -1.151  -4.571 -10.630  0.00  0.00    -0.047 A 
ATOM     25  C   UNL     1      -0.476  -5.619 -10.028  0.00  0.00    -0.046 A 
ATOM     26  C   UNL     1      -0.610  -5.843  -8.674  0.00  0.00    +0.031 A 
ATOM     27  C   UNL     1       0.411  -6.514 -10.854  0.00  0.00    +0.044 C 
ATOM     28  C   UNL     1      -0.995  -4.330 -12.109  0.00  0.00    +0.044 C 
ENDBRANCH   7  21
TORSDOF 4
