REMARK  Name = ZINC23371618
REMARK  8 active torsions:
REMARK  status: ('A' for Active; 'I' for Inactive)
REMARK    1  A    between atoms: C_1  and  C_2
REMARK    2  A    between atoms: C_5  and  C_38
REMARK    3  A    between atoms: C_10  and  C_12
REMARK    4  A    between atoms: C_12  and  N_13
REMARK    5  A    between atoms: N_16  and  C_19
REMARK    6  A    between atoms: C_19  and  C_21
REMARK    7  A    between atoms: C_19  and  C_22
REMARK    8  A    between atoms: N_27  and  C_28
REMARK                            x       y       z     vdW  Elec       q    Type
REMARK                         _______ _______ _______ _____ _____    ______ ____
ROOT
ATOM      1  C   UNL     1      -8.606   0.679   2.110  0.00  0.00    +0.140 C 
ATOM      2  C   UNL     1      -8.850  -0.831   2.067  0.00  0.00    +0.034 C 
ENDROOT
BRANCH   1   3
ATOM      3  C   UNL     1      -9.230   1.323   0.898  0.00  0.00    +0.237 C 
ATOM      4  O   UNL     1     -10.260   1.953   1.010  0.00  0.00    -0.274 OA
ATOM      5  N   UNL     1      -8.643   1.199  -0.308  0.00  0.00    -0.239 N 
ATOM      6  C   UNL     1      -9.201   1.775  -1.392  0.00  0.00    +0.306 C 
ATOM      7  O   UNL     1     -10.234   2.406  -1.280  0.00  0.00    -0.252 OA
ATOM      8  N   UNL     1      -8.615   1.651  -2.599  0.00  0.00    -0.294 N 
ATOM      9  H   UNL     1      -7.709   0.627  -0.409  0.00  0.00    +0.159 HD
ATOM     10  H   UNL     1      -7.680   1.079  -2.700  0.00  0.00    +0.151 HD
BRANCH   8  11
ATOM     11  C   UNL     1      -9.221   2.276  -3.776  0.00  0.00    +0.037 C 
ATOM     12  C   UNL     1      -8.363   1.985  -5.008  0.00  0.00    +0.029 C 
ATOM     13  C   UNL     1      -8.996   2.639  -6.238  0.00  0.00    -0.008 C 
ATOM     14  C   UNL     1      -9.084   4.151  -6.023  0.00  0.00    +0.007 C 
ATOM     15  C   UNL     1      -9.943   4.443  -4.791  0.00  0.00    -0.008 C 
ATOM     16  C   UNL     1      -9.309   3.789  -3.561  0.00  0.00    +0.029 C 
ATOM     17  C   UNL     1     -11.348   3.875  -5.003  0.00  0.00    +0.007 C 
ATOM     18  C   UNL     1     -11.260   2.363  -5.218  0.00  0.00    -0.008 C 
ATOM     19  C   UNL     1     -10.401   2.072  -6.450  0.00  0.00    +0.007 C 
ATOM     20  C   UNL     1     -10.627   1.709  -3.988  0.00  0.00    +0.029 C 
ENDBRANCH   8  11
ENDBRANCH   1   3
BRANCH   1  24
ATOM     21  N   UNL     1     -10.383   1.114   5.917  0.00  0.00    +0.387 N 
ATOM     22  C   UNL     1     -11.203   1.419   4.736  0.00  0.00    -0.063 C 
ATOM     23  C   UNL     1     -10.584   0.753   3.504  0.00  0.00    +0.066 C 
ATOM     24  N   UNL     1      -9.209   1.238   3.327  0.00  0.00    -0.295 NA
ATOM     25  C   UNL     1      -8.389   0.933   4.508  0.00  0.00    +0.066 C 
ATOM     26  C   UNL     1      -9.007   1.599   5.740  0.00  0.00    -0.063 C 
ATOM     27  H   UNL     1     -10.346   0.020   6.032  0.00  0.00    -0.081 HD
BRANCH  21  28
ATOM     28  C   UNL     1     -10.986   1.673   7.135  0.00  0.00    +0.019 C 
BRANCH  28  36
ATOM     29  C   UNL     1     -13.885   2.832  11.034  0.00  0.00    +0.009 C 
ATOM     30  C   UNL     1     -12.778   1.822  10.725  0.00  0.00    +0.004 C 
ATOM     31  C   UNL     1     -12.068   1.429  12.023  0.00  0.00    +0.009 C 
ATOM     32  C   UNL     1     -10.983   0.394  11.719  0.00  0.00    +0.004 C 
ATOM     33  C   UNL     1      -9.949   1.007  10.769  0.00  0.00    +0.111 C 
ATOM     34  N   UNL     1     -10.645   1.518   9.580  0.00  0.00    -0.303 N 
ATOM     35  C   UNL     1     -11.761   2.456   9.763  0.00  0.00    +0.111 C 
ATOM     36  C   UNL     1     -10.262   1.140   8.344  0.00  0.00    +0.199 C 
ATOM     37  O   UNL     1      -9.336   0.369   8.206  0.00  0.00    -0.278 OA
ATOM     38  C   UNL     1     -11.617  -0.833  11.061  0.00  0.00    +0.009 C 
ENDBRANCH  28  36
ENDBRANCH  21  28
ENDBRANCH   1  24
TORSDOF 5
