REMARK  Name = ZINC00135308
REMARK  7 active torsions:
REMARK  status: ('A' for Active; 'I' for Inactive)
REMARK    1  A    between atoms: C_1  and  C_2
REMARK    2  A    between atoms: C_2  and  C_3
REMARK    3  A    between atoms: C_4  and  C_25
REMARK    4  A    between atoms: C_5  and  C_23
REMARK    5  A    between atoms: C_15  and  N_16
REMARK    6  A    between atoms: N_16  and  C_17
REMARK    7  A    between atoms: C_17  and  C_18
REMARK                            x       y       z     vdW  Elec       q    Type
REMARK                         _______ _______ _______ _____ _____    ______ ____
ROOT
ATOM      1  C   UNL     1       0.748  -0.175   1.378  0.00  0.00    -0.005 A 
ATOM      2  C   UNL     1       2.133  -0.259   1.355  0.00  0.00    -0.023 A 
ATOM      3  C   UNL     1       2.790  -1.024   2.318  0.00  0.00    +0.098 A 
ATOM      4  C   UNL     1       1.990  -1.720   3.332  0.00  0.00    +0.158 A 
ATOM      5  N   UNL     1       2.338  -2.496   4.341  0.00  0.00    -0.226 NA
ATOM      6  C   UNL     1       1.230  -2.908   5.003  0.00  0.00    +0.090 A 
ATOM      7  C   UNL     1       1.029  -3.724   6.122  0.00  0.00    +0.030 A 
ATOM      8  C   UNL     1      -0.238  -3.965   6.570  0.00  0.00    +0.002 A 
ATOM      9  C   UNL     1      -1.334  -3.407   5.927  0.00  0.00    +0.002 A 
ATOM     10  C   UNL     1      -1.160  -2.599   4.823  0.00  0.00    +0.028 A 
ATOM     11  C   UNL     1       0.119  -2.342   4.353  0.00  0.00    +0.075 A 
ATOM     12  N   UNL     1       0.622  -1.596   3.300  0.00  0.00    -0.279 N 
ATOM     13  C   UNL     1       0.017  -0.833   2.342  0.00  0.00    +0.109 A 
ATOM     14  C   UNL     1       2.920   0.470   0.296  0.00  0.00    +0.045 C 
ENDROOT
BRANCH   1  16
ATOM     15  C   UNL     1      -0.005   2.113   0.789  0.00  0.00    +0.009 C 
ATOM     16  C   UNL     1       0.035   0.651   0.339  0.00  0.00    +0.035 C 
ENDBRANCH   1  16
BRANCH  13  17
ATOM     17  N   UNL     1      -1.353  -0.723   2.338  0.00  0.00    -0.323 N 
ATOM     18  H   UNL     1      -1.868  -1.112   1.615  0.00  0.00    +0.148 HD
BRANCH  17  19
ATOM     19  C   UNL     1      -2.034  -0.017   3.426  0.00  0.00    +0.177 C 
BRANCH  19  20
ATOM     20  C   UNL     1      -3.526  -0.131   3.242  0.00  0.00    +0.122 A 
ATOM     21  C   UNL     1      -4.309  -1.104   3.742  0.00  0.00    +0.046 A 
ATOM     22  C   UNL     1      -5.630  -0.820   3.327  0.00  0.00    +0.041 A 
ATOM     23  C   UNL     1      -5.576   0.310   2.598  0.00  0.00    +0.195 A 
ATOM     24  O   UNL     1      -4.300   0.726   2.555  0.00  0.00    -0.466 OA
ENDBRANCH  19  20
ENDBRANCH  17  19
ENDBRANCH  13  17
BRANCH   3  25
ATOM     25  C   UNL     1       4.218  -1.129   2.317  0.00  0.00    +0.103 C 
ATOM     26  N   UNL     1       5.351  -1.212   2.317  0.00  0.00    -0.191 NA
ENDBRANCH   3  25
TORSDOF 5
