REMARK  Name = ZINC33526014
REMARK  8 active torsions:
REMARK  status: ('A' for Active; 'I' for Inactive)
REMARK    1  A    between atoms: C_1  and  C_2
REMARK    2  A    between atoms: C_5  and  N_8
REMARK    3  A    between atoms: C_9  and  C_11
REMARK    4  A    between atoms: C_11  and  C_12
REMARK    5  A    between atoms: N_16  and  C_29
REMARK    6  A    between atoms: N_18  and  N_19
REMARK    7  A    between atoms: C_20  and  C_21
REMARK    8  A    between atoms: C_32  and  O_35
REMARK                            x       y       z     vdW  Elec       q    Type
REMARK                         _______ _______ _______ _____ _____    ______ ____
ROOT
ATOM      1  C   UNL     1      -5.755   2.073   0.059  0.00  0.00    +0.149 C 
ATOM      2  C   UNL     1      -4.658   3.116   0.197  0.00  0.00    +0.239 C 
ATOM      3  O   UNL     1      -4.904   4.290   0.377  0.00  0.00    -0.274 OA
ATOM      4  N   UNL     1      -3.419   2.664   0.106  0.00  0.00    -0.217 N 
ATOM      5  C   UNL     1      -3.133   1.330  -0.100  0.00  0.00    +0.190 C 
ATOM      6  N   UNL     1      -1.952   0.759  -0.208  0.00  0.00    -0.126 NA
ATOM      7  S   UNL     1      -4.743   0.561  -0.194  0.00  0.00    -0.075 S 
ENDROOT
BRANCH   4   8
ATOM      8  C   UNL     1      -2.357   3.573   0.224  0.00  0.00    +0.043 A 
ATOM      9  C   UNL     1      -1.562   3.568   1.363  0.00  0.00    +0.027 A 
ATOM     10  C   UNL     1      -0.514   4.460   1.476  0.00  0.00    +0.047 A 
ATOM     11  C   UNL     1      -0.261   5.367   0.458  0.00  0.00    +0.117 A 
ATOM     12  C   UNL     1      -1.058   5.376  -0.678  0.00  0.00    +0.047 A 
ATOM     13  C   UNL     1      -2.104   4.481  -0.795  0.00  0.00    +0.027 A 
BRANCH  11  14
ATOM     14  O   UNL     1       0.768   6.248   0.572  0.00  0.00    -0.507 OA
ATOM     15  H   UNL     1       0.968   6.968  -0.235  0.00  0.00    +0.292 HD
ENDBRANCH  11  14
ENDBRANCH   4   8
BRANCH   6  16
ATOM     16  N   UNL     1      -0.884   1.482  -0.218  0.00  0.00    -0.155 NA
ATOM     17  C   UNL     1       0.155   1.122   0.485  0.00  0.00    +0.143 C 
BRANCH  17  18
ATOM     18  C   UNL     1       1.421   1.862   0.360  0.00  0.00    -0.005 A 
ATOM     19  C   UNL     1       1.520   2.939  -0.526  0.00  0.00    +0.011 A 
ATOM     20  C   UNL     1       2.708   3.631  -0.635  0.00  0.00    +0.020 A 
ATOM     21  C   UNL     1       3.805   3.255   0.123  0.00  0.00    +0.041 A 
ATOM     22  C   UNL     1       3.715   2.185   0.999  0.00  0.00    +0.020 A 
ATOM     23  C   UNL     1       2.533   1.487   1.122  0.00  0.00    +0.011 A 
ATOM     24 CL   UNL     1       5.298   4.127  -0.025  0.00  0.00    -0.084 Cl
ENDBRANCH  17  18
ENDBRANCH   6  16
BRANCH   1  25
ATOM     25  C   UNL     1      -6.592   1.977   1.336  0.00  0.00    +0.120 C 
BRANCH  25  27
ATOM     26  N   UNL     1      -8.615   0.782   2.110  0.00  0.00    -0.285 N 
ATOM     27  C   UNL     1      -7.739   1.025   1.115  0.00  0.00    +0.219 C 
ATOM     28  O   UNL     1      -7.873   0.476   0.042  0.00  0.00    -0.275 OA
ATOM     29  H   UNL     1      -8.542   1.340   3.055  0.00  0.00    +0.155 HD
BRANCH  26  34
ATOM     30  C   UNL     1     -12.679  -3.116   1.426  0.00  0.00    +0.044 C 
ATOM     31  C   UNL     1     -11.600  -2.080   1.607  0.00  0.00    -0.050 A 
ATOM     32  C   UNL     1     -10.365  -2.259   1.012  0.00  0.00    +0.005 A 
ATOM     33  C   UNL     1      -9.373  -1.312   1.177  0.00  0.00    +0.023 A 
ATOM     34  C   UNL     1      -9.618  -0.179   1.941  0.00  0.00    +0.033 A 
ATOM     35  C   UNL     1     -10.857  -0.004   2.542  0.00  0.00    +0.023 A 
ATOM     36  C   UNL     1     -11.846  -0.953   2.369  0.00  0.00    +0.005 A 
ENDBRANCH  26  34
ENDBRANCH  25  27
ENDBRANCH   1  25
TORSDOF 7
