REMARK  Name = ZINC40561902
REMARK  15 active torsions:
REMARK  status: ('A' for Active; 'I' for Inactive)
REMARK    1  A    between atoms: C_1  and  C_2
REMARK    2  A    between atoms: C_2  and  C_3
REMARK    3  A    between atoms: N_16  and  C_31
REMARK    4  A    between atoms: C_17  and  C_19
REMARK    5  A    between atoms: C_21  and  O_29
REMARK    6  A    between atoms: C_22  and  O_27
REMARK    7  A    between atoms: C_24  and  O_25
REMARK    8  A    between atoms: O_25  and  C_26
REMARK    9  A    between atoms: O_27  and  C_28
REMARK   10  A    between atoms: O_29  and  C_30
REMARK   11  A    between atoms: C_31  and  C_32
REMARK   12  A    between atoms: C_32  and  C_33
REMARK   13  A    between atoms: C_33  and  N_34
REMARK   14  A    between atoms: N_34  and  C_35
REMARK   15  A    between atoms: N_34  and  C_36
REMARK                            x       y       z     vdW  Elec       q    Type
REMARK                         _______ _______ _______ _____ _____    ______ ____
ROOT
ATOM      1  C   UNL     1       1.226  -0.594   1.109  0.00  0.00    -0.047 A 
ATOM      2  C   UNL     1       2.603  -0.761   1.097  0.00  0.00    +0.007 A 
ATOM      3  C   UNL     1       3.272  -1.188   2.222  0.00  0.00    +0.047 A 
ATOM      4  C   UNL     1       2.566  -1.458   3.394  0.00  0.00    +0.139 A 
ATOM      5  C   UNL     1       1.173  -1.279   3.396  0.00  0.00    +0.065 A 
ATOM      6  C   UNL     1       0.512  -0.845   2.248  0.00  0.00    +0.019 A 
ATOM      7  C   UNL     1       0.414  -1.549   4.644  0.00  0.00    +0.199 A 
ATOM      8  O   UNL     1      -0.803  -1.583   4.691  0.00  0.00    -0.287 OA
ATOM      9  C   UNL     1       1.270  -1.770   5.815  0.00  0.00    +0.072 A 
ATOM     10  C   UNL     1       2.620  -1.920   5.681  0.00  0.00    +0.199 A 
ATOM     11  O   UNL     1       3.241  -1.884   4.486  0.00  0.00    -0.450 OA
ATOM     12  C   UNL     1       3.199  -2.116   7.022  0.00  0.00    +0.283 C 
ATOM     13  O   UNL     1       4.380  -2.277   7.254  0.00  0.00    -0.267 OA
ATOM     14  N   UNL     1       2.225  -2.091   7.955  0.00  0.00    -0.284 N 
ATOM     15  C   UNL     1       0.941  -1.875   7.268  0.00  0.00    +0.148 C 
ENDROOT
BRANCH  15  16
ATOM     16  C   UNL     1       0.303  -0.597   7.749  0.00  0.00    +0.023 A 
ATOM     17  C   UNL     1       1.088   0.409   8.281  0.00  0.00    +0.058 A 
ATOM     18  C   UNL     1       0.504   1.584   8.724  0.00  0.00    +0.162 A 
ATOM     19  C   UNL     1      -0.875   1.752   8.634  0.00  0.00    +0.165 A 
ATOM     20  C   UNL     1      -1.660   0.743   8.101  0.00  0.00    +0.095 A 
ATOM     21  C   UNL     1      -1.070  -0.431   7.654  0.00  0.00    +0.129 A 
BRANCH  21  22
ATOM     22  O   UNL     1      -1.840  -1.419   7.126  0.00  0.00    -0.495 OA
ATOM     23  C   UNL     1      -3.247  -1.180   7.058  0.00  0.00    +0.277 C 
ENDBRANCH  21  22
BRANCH  19  24
ATOM     24  O   UNL     1      -1.450   2.905   9.069  0.00  0.00    -0.491 OA
ATOM     25  C   UNL     1      -2.870   3.007   8.946  0.00  0.00    +0.277 C 
ENDBRANCH  19  24
BRANCH  18  26
ATOM     26  O   UNL     1       1.277   2.574   9.247  0.00  0.00    -0.491 OA
ATOM     27  C   UNL     1       2.693   2.384   9.202  0.00  0.00    +0.277 C 
ENDBRANCH  18  26
ENDBRANCH  15  16
BRANCH   1  29
ATOM     28  C   UNL     1       0.450   1.400  -0.145  0.00  0.00    +0.009 C 
ATOM     29  C   UNL     1       0.515  -0.128  -0.136  0.00  0.00    +0.032 C 
ENDBRANCH   1  29
BRANCH  14  30
ATOM     30  C   UNL     1       2.412  -2.253   9.399  0.00  0.00    +0.107 C 
BRANCH  30  31
ATOM     31  C   UNL     1       2.188  -3.717   9.782  0.00  0.00    +0.000 C 
BRANCH  31  32
ATOM     32  C   UNL     1       2.261  -3.864  11.303  0.00  0.00    -0.078 C 
BRANCH  32  33
ATOM     33  N   UNL     1       2.173  -5.285  11.663  0.00  0.00    +0.376 N 
ATOM     34  C   UNL     1       2.384  -5.438  13.109  0.00  0.00    -0.097 C 
ATOM     35  C   UNL     1       0.844  -5.799  11.305  0.00  0.00    -0.097 C 
ATOM     36  H   UNL     1       2.880  -5.803  11.163  0.00  0.00    -0.083 HD
ENDBRANCH  32  33
ENDBRANCH  31  32
ENDBRANCH  30  31
ENDBRANCH  14  30
TORSDOF 9
