REMARK  Name = ZINC20344238
REMARK  6 active torsions:
REMARK  status: ('A' for Active; 'I' for Inactive)
REMARK    1  A    between atoms: C_1  and  C_2
REMARK    2  A    between atoms: C_4  and  O_5
REMARK    3  A    between atoms: N_13  and  C_14
REMARK    4  A    between atoms: C_14  and  N_16
REMARK    5  A    between atoms: N_19  and  C_22
REMARK    6  A    between atoms: C_22  and  C_23
REMARK                            x       y       z     vdW  Elec       q    Type
REMARK                         _______ _______ _______ _____ _____    ______ ____
ROOT
ATOM      1  C   UNL     1      -0.170   1.426  -0.030  0.00  0.00    +0.137 C 
ATOM      2  S   UNL     1      -0.158  -0.286  -0.076  0.00  0.00    -0.018 S 
ENDROOT
BRANCH   1  14
ATOM      3  C   UNL     1      -2.996   4.215  -5.898  0.00  0.00    +0.045 C 
ATOM      4  C   UNL     1      -3.607   4.410  -4.534  0.00  0.00    -0.033 A 
ATOM      5  C   UNL     1      -4.731   5.157  -4.374  0.00  0.00    +0.091 A 
ATOM      6  C   UNL     1      -5.283   5.326  -3.087  0.00  0.00    +0.285 A 
ATOM      7  O   UNL     1      -4.728   4.764  -2.002  0.00  0.00    -0.425 OA
ATOM      8  C   UNL     1      -3.611   4.010  -2.092  0.00  0.00    +0.141 A 
ATOM      9  C   UNL     1      -3.006   3.801  -3.346  0.00  0.00    +0.021 A 
ATOM     10  C   UNL     1      -1.849   3.020  -3.445  0.00  0.00    +0.013 A 
ATOM     11  C   UNL     1      -1.306   2.467  -2.322  0.00  0.00    +0.024 A 
ATOM     12  C   UNL     1      -1.903   2.666  -1.078  0.00  0.00    +0.036 A 
ATOM     13  C   UNL     1      -3.050   3.437  -0.962  0.00  0.00    +0.070 A 
ATOM     14  N   UNL     1      -1.339   2.090   0.060  0.00  0.00    -0.297 N 
ATOM     15  H   UNL     1      -1.849   2.177   1.031  0.00  0.00    +0.154 HD
BRANCH   6  16
ATOM     16  O   UNL     1      -6.291   5.998  -2.958  0.00  0.00    -0.480 OA
ATOM     17  H   UNL     1      -6.734   6.138  -1.961  0.00  0.00    +0.295 HD
ENDBRANCH   6  16
ENDBRANCH   1  14
BRANCH   1  18
ATOM     18  N   UNL     1       0.990   2.109  -0.089  0.00  0.00    -0.310 N 
ATOM     19  C   UNL     1       0.998   3.578  -0.166  0.00  0.00    +0.122 C 
ATOM     20  C   UNL     1       1.937   4.113   0.927  0.00  0.00    +0.103 C 
ATOM     21  N   UNL     1       3.254   3.477   0.789  0.00  0.00    -0.295 NA
ATOM     22  C   UNL     1       3.170   2.026   1.000  0.00  0.00    +0.103 C 
ATOM     23  C   UNL     1       2.282   1.406  -0.084  0.00  0.00    +0.122 C 
BRANCH  21  24
ATOM     24  C   UNL     1       4.231   4.086   1.701  0.00  0.00    +0.121 C 
BRANCH  24  25
ATOM     25  C   UNL     1       4.043   5.581   1.714  0.00  0.00    -0.015 A 
ATOM     26  C   UNL     1       3.353   6.182   2.750  0.00  0.00    +0.006 A 
ATOM     27  C   UNL     1       3.183   7.554   2.764  0.00  0.00    +0.000 A 
ATOM     28  C   UNL     1       3.695   8.325   1.737  0.00  0.00    +0.001 A 
ATOM     29  C   UNL     1       4.380   7.725   0.698  0.00  0.00    +0.020 A 
ATOM     30  C   UNL     1       4.554   6.352   0.685  0.00  0.00    +0.045 A 
ATOM     31 CL   UNL     1       5.414   5.598  -0.620  0.00  0.00    -0.083 Cl
ENDBRANCH  24  25
ENDBRANCH  21  24
ENDBRANCH   1  18
TORSDOF 5
