REMARK  Name = ZINC36601325
REMARK  14 active torsions:
REMARK  status: ('A' for Active; 'I' for Inactive)
REMARK    1  A    between atoms: C_1  and  C_2
REMARK    2  A    between atoms: C_5  and  C_7
REMARK    3  A    between atoms: C_7  and  N_8
REMARK    4  A    between atoms: N_8  and  C_9
REMARK    5  A    between atoms: C_9  and  C_11
REMARK    6  A    between atoms: C_9  and  C_19
REMARK    7  A    between atoms: C_15  and  O_17
REMARK    8  A    between atoms: O_17  and  C_18
REMARK    9  A    between atoms: N_21  and  C_22
REMARK   10  A    between atoms: C_22  and  C_23
REMARK   11  A    between atoms: C_22  and  C_24
REMARK   12  A    between atoms: C_22  and  C_25
REMARK   13  A    between atoms: C_26  and  C_28
REMARK   14  A    between atoms: C_32  and  N_34
REMARK                            x       y       z     vdW  Elec       q    Type
REMARK                         _______ _______ _______ _____ _____    ______ ____
ROOT
ATOM      1  N   UNL     1       2.898  -2.659  -1.384  0.00  0.00    -0.275 N 
ATOM      2  C   UNL     1       1.699  -2.157  -1.029  0.00  0.00    +0.248 C 
ATOM      3  O   UNL     1       1.431  -1.996   0.146  0.00  0.00    -0.270 OA
ENDROOT
BRANCH   2   4
ATOM      4  C   UNL     1       0.709  -1.803  -2.068  0.00  0.00    +0.039 A 
ATOM      5  C   UNL     1       0.842  -2.305  -3.364  0.00  0.00    +0.013 A 
ATOM      6  C   UNL     1      -0.085  -1.971  -4.329  0.00  0.00    +0.003 A 
ATOM      7  C   UNL     1      -1.145  -1.139  -4.015  0.00  0.00    +0.033 A 
ATOM      8  C   UNL     1      -1.283  -0.637  -2.733  0.00  0.00    +0.127 A 
ATOM      9  C   UNL     1      -0.366  -0.969  -1.757  0.00  0.00    +0.045 A 
BRANCH   8  10
ATOM     10  N   UNL     1      -2.420   0.253  -2.407  0.00  0.00    +0.056 N 
ATOM     11  O   UNL     1      -3.227   0.540  -3.260  0.00  0.00    -0.126 OA
ATOM     12  O   UNL     1      -2.541   0.692  -1.287  0.00  0.00    -0.126 OA
ENDBRANCH   8  10
ENDBRANCH   2   4
BRANCH   1  13
ATOM     13  C   UNL     1       3.804  -3.185  -0.360  0.00  0.00    +0.183 C 
BRANCH  13  18
ATOM     14  C   UNL     1       2.051  -7.782   0.753  0.00  0.00    +0.086 C 
ATOM     15  C   UNL     1       2.914  -6.685   0.185  0.00  0.00    +0.102 A 
ATOM     16  C   UNL     1       4.016  -6.859  -0.567  0.00  0.00    +0.045 A 
ATOM     17  C   UNL     1       4.507  -5.570  -0.878  0.00  0.00    +0.046 A 
ATOM     18  C   UNL     1       3.676  -4.686  -0.299  0.00  0.00    +0.122 A 
ATOM     19  O   UNL     1       2.710  -5.366   0.339  0.00  0.00    -0.463 OA
ENDBRANCH  13  18
ENDBRANCH   1  13
BRANCH   1  20
ATOM     20  C   UNL     1       3.296  -2.678  -2.793  0.00  0.00    +0.193 C 
BRANCH  20  21
ATOM     21  C   UNL     1       2.831  -1.412  -3.464  0.00  0.00    -0.015 A 
ATOM     22  C   UNL     1       2.397  -0.344  -2.699  0.00  0.00    +0.006 A 
ATOM     23  C   UNL     1       1.970   0.820  -3.312  0.00  0.00    +0.004 A 
ATOM     24  C   UNL     1       1.974   0.918  -4.690  0.00  0.00    +0.045 A 
ATOM     25  C   UNL     1       2.408  -0.152  -5.459  0.00  0.00    +0.120 A 
ATOM     26  C   UNL     1       2.842  -1.316  -4.842  0.00  0.00    +0.051 A 
BRANCH  25  27
ATOM     27  O   UNL     1       2.412  -0.057  -6.815  0.00  0.00    -0.495 OA
ATOM     28  C   UNL     1       1.957   1.173  -7.381  0.00  0.00    +0.277 C 
ENDBRANCH  25  27
ENDBRANCH  20  21
BRANCH  20  29
ATOM     29  C   UNL     1       4.797  -2.776  -2.890  0.00  0.00    +0.239 C 
ATOM     30  O   UNL     1       5.415  -3.440  -2.086  0.00  0.00    -0.273 OA
ATOM     31  N   UNL     1       5.452  -2.124  -3.872  0.00  0.00    -0.309 N 
ATOM     32  H   UNL     1       4.966  -1.545  -4.478  0.00  0.00    +0.149 HD
BRANCH  31  33
ATOM     33  C   UNL     1       6.900  -2.292  -4.022  0.00  0.00    +0.026 C 
ATOM     34  C   UNL     1       7.215  -3.759  -4.323  0.00  0.00    +0.031 C 
ATOM     35  C   UNL     1       7.398  -1.417  -5.174  0.00  0.00    +0.031 C 
ATOM     36  C   UNL     1       7.599  -1.876  -2.726  0.00  0.00    +0.031 C 
ENDBRANCH  31  33
ENDBRANCH  20  29
ENDBRANCH   1  20
TORSDOF 9
