REMARK  Name = ZINC14983564
REMARK  10 active torsions:
REMARK  status: ('A' for Active; 'I' for Inactive)
REMARK    1  A    between atoms: C_1  and  C_2
REMARK    2  A    between atoms: C_2  and  C_3
REMARK    3  A    between atoms: C_3  and  C_5
REMARK    4  A    between atoms: C_3  and  N_10
REMARK    5  A    between atoms: C_13  and  C_32
REMARK    6  A    between atoms: C_14  and  C_20
REMARK    7  A    between atoms: N_22  and  C_23
REMARK    8  A    between atoms: N_22  and  C_25
REMARK    9  A    between atoms: C_23  and  C_24
REMARK   10  A    between atoms: C_25  and  C_26
REMARK                            x       y       z     vdW  Elec       q    Type
REMARK                         _______ _______ _______ _____ _____    ______ ____
ROOT
ATOM      1  N   UNL     1      -3.163  -3.382   6.165  0.00  0.00    -0.321 N 
ATOM      2  C   UNL     1      -1.793  -3.260   6.274  0.00  0.00    +0.131 A 
ATOM      3  C   UNL     1      -1.065  -2.440   5.361  0.00  0.00    +0.051 A 
ATOM      4  C   UNL     1      -1.538  -1.675   4.287  0.00  0.00    -0.019 A 
ATOM      5  C   UNL     1      -0.664  -0.955   3.531  0.00  0.00    +0.080 A 
ATOM      6  S   UNL     1       0.911  -1.319   4.289  0.00  0.00    -0.064 S 
ATOM      7  C   UNL     1       0.334  -2.397   5.575  0.00  0.00    +0.114 A 
ATOM      8  N   UNL     1       0.903  -3.072   6.553  0.00  0.00    -0.228 NA
ATOM      9  C   UNL     1       0.173  -3.813   7.365  0.00  0.00    +0.224 A 
ATOM     10  N   UNL     1      -1.137  -3.902   7.227  0.00  0.00    -0.220 NA
ATOM     11  C   UNL     1      -3.011  -1.648   3.969  0.00  0.00    +0.046 C 
ATOM     12  H   UNL     1      -3.628  -2.978   5.416  0.00  0.00    +0.148 HD
ENDROOT
BRANCH   5  13
ATOM     13  C   UNL     1      -0.946  -0.097   2.374  0.00  0.00    +0.254 C 
ATOM     14  O   UNL     1      -2.097   0.137   2.056  0.00  0.00    -0.269 OA
ATOM     15  N   UNL     1       0.070   0.432   1.664  0.00  0.00    -0.293 N 
BRANCH  15  16
ATOM     16  C   UNL     1       1.455   0.212   2.090  0.00  0.00    +0.105 C 
ATOM     17  C   UNL     1       1.821   1.225   3.176  0.00  0.00    +0.024 C 
ENDBRANCH  15  16
BRANCH  15  18
ATOM     18  C   UNL     1      -0.209   1.228   0.466  0.00  0.00    +0.143 C 
BRANCH  18  19
ATOM     19  C   UNL     1      -0.363   2.677   0.849  0.00  0.00    -0.027 A 
ATOM     20  C   UNL     1      -1.604   3.194   1.187  0.00  0.00    +0.025 A 
ATOM     21  C   UNL     1      -1.705   4.527   1.537  0.00  0.00    +0.111 A 
ATOM     22  N   UNL     1      -0.641   5.306   1.544  0.00  0.00    -0.263 NA
ATOM     23  C   UNL     1       0.554   4.849   1.224  0.00  0.00    +0.111 A 
ATOM     24  C   UNL     1       0.733   3.526   0.868  0.00  0.00    +0.025 A 
ENDBRANCH  18  19
ENDBRANCH  15  18
ENDBRANCH   5  13
BRANCH   1  25
ATOM     25  C   UNL     1      -3.916  -4.121   7.182  0.00  0.00    +0.108 C 
BRANCH  25  26
ATOM     26  C   UNL     1      -5.339  -3.624   7.213  0.00  0.00    +0.010 A 
ATOM     27  C   UNL     1      -6.143  -3.406   8.282  0.00  0.00    +0.013 A 
ATOM     28  C   UNL     1      -7.428  -2.942   8.070  0.00  0.00    +0.008 A 
ATOM     29  C   UNL     1      -7.846  -2.720   6.800  0.00  0.00    +0.045 A 
ATOM     30  S   UNL     1      -6.399  -3.164   5.853  0.00  0.00    -0.100 S 
ENDBRANCH  25  26
BRANCH  25  32
ATOM     31  C   UNL     1      -2.472  -6.144   6.932  0.00  0.00    +0.006 C 
ATOM     32  C   UNL     1      -3.904  -5.612   6.842  0.00  0.00    +0.024 C 
ENDBRANCH  25  32
ENDBRANCH   1  25
TORSDOF 7
