REMARK  Name = ZINC40341180
REMARK  10 active torsions:
REMARK  status: ('A' for Active; 'I' for Inactive)
REMARK    1  A    between atoms: C_1  and  C_2
REMARK    2  A    between atoms: C_2  and  O_3
REMARK    3  A    between atoms: O_3  and  C_4
REMARK    4  A    between atoms: C_7  and  C_13
REMARK    5  A    between atoms: C_9  and  O_10
REMARK    6  A    between atoms: O_10  and  C_11
REMARK    7  A    between atoms: C_11  and  C_12
REMARK    8  A    between atoms: C_16  and  C_30
REMARK    9  A    between atoms: N_23  and  C_24
REMARK   10  A    between atoms: C_33  and  C_36
REMARK                            x       y       z     vdW  Elec       q    Type
REMARK                         _______ _______ _______ _____ _____    ______ ____
ROOT
ATOM      1  C   UNL     1       1.142  -6.064   1.761  0.00  0.00    +0.142 C 
ATOM      2  C   UNL     1      -0.159  -6.637   2.252  0.00  0.00    +0.035 A 
ATOM      3  C   UNL     1      -1.127  -6.670   3.261  0.00  0.00    +0.099 A 
ATOM      4  N   UNL     1      -2.058  -7.525   2.887  0.00  0.00    -0.173 NA
ATOM      5  N   UNL     1      -1.773  -8.036   1.742  0.00  0.00    -0.272 N 
ATOM      6  H   UNL     1      -2.316  -8.689   1.273  0.00  0.00    +0.189 HD
ATOM      7  C   UNL     1      -0.593  -7.523   1.284  0.00  0.00    +0.126 A 
ATOM      8  C   UNL     1       0.385  -7.536   0.191  0.00  0.00    +0.266 C 
ATOM      9  O   UNL     1       0.294  -8.215  -0.814  0.00  0.00    -0.268 OA
ATOM     10  N   UNL     1       1.399  -6.691   0.458  0.00  0.00    -0.282 N 
ENDROOT
BRANCH   3  11
ATOM     11  C   UNL     1      -1.109  -5.885   4.521  0.00  0.00    +0.002 A 
ATOM     12  C   UNL     1       0.100  -5.611   5.157  0.00  0.00    +0.010 A 
ATOM     13  C   UNL     1       0.110  -4.881   6.328  0.00  0.00    +0.004 A 
ATOM     14  C   UNL     1      -1.076  -4.422   6.871  0.00  0.00    -0.050 A 
ATOM     15  C   UNL     1      -2.279  -4.692   6.244  0.00  0.00    +0.004 A 
ATOM     16  C   UNL     1      -2.301  -5.416   5.069  0.00  0.00    +0.010 A 
ATOM     17  C   UNL     1      -1.058  -3.625   8.150  0.00  0.00    +0.044 C 
ENDBRANCH   3  11
BRANCH   1  21
ATOM     18  C   UNL     1       0.802  -1.825   1.306  0.00  0.00    +0.162 A 
ATOM     19  C   UNL     1       0.261  -2.673   0.353  0.00  0.00    +0.050 A 
ATOM     20  C   UNL     1       0.372  -4.043   0.502  0.00  0.00    +0.009 A 
ATOM     21  C   UNL     1       1.024  -4.570   1.602  0.00  0.00    -0.019 A 
ATOM     22  C   UNL     1       1.566  -3.730   2.557  0.00  0.00    +0.055 A 
ATOM     23  C   UNL     1       1.462  -2.356   2.410  0.00  0.00    +0.162 A 
BRANCH  18  24
ATOM     24  O   UNL     1       0.693  -0.477   1.160  0.00  0.00    -0.489 OA
BRANCH  24  26
ATOM     25  C   UNL     1      -0.019   1.526   0.010  0.00  0.00    +0.048 C 
ATOM     26  C   UNL     1       0.002  -0.004   0.002  0.00  0.00    +0.226 C 
ENDBRANCH  24  26
ENDBRANCH  18  24
BRANCH  23  27
ATOM     27  O   UNL     1       2.000  -1.528   3.345  0.00  0.00    -0.489 OA
BRANCH  27  28
ATOM     28  C   UNL     1       2.664  -2.143   4.451  0.00  0.00    +0.226 C 
ATOM     29  C   UNL     1       3.200  -1.060   5.390  0.00  0.00    +0.048 C 
ENDBRANCH  27  28
ENDBRANCH  23  27
ENDBRANCH   1  21
BRANCH  10  30
ATOM     30  C   UNL     1       2.559  -6.441  -0.402  0.00  0.00    +0.077 C 
ATOM     31  C   UNL     1       2.085  -5.899  -1.752  0.00  0.00    +0.022 C 
ATOM     32  C   UNL     1       3.295  -5.638  -2.650  0.00  0.00    +0.002 C 
ATOM     33  C   UNL     1       4.063  -6.944  -2.865  0.00  0.00    +0.000 C 
ATOM     34  C   UNL     1       4.537  -7.485  -1.515  0.00  0.00    +0.002 C 
ATOM     35  C   UNL     1       3.326  -7.747  -0.617  0.00  0.00    +0.022 C 
ENDBRANCH  10  30
TORSDOF 7
