REMARK  Name = ZINC28161742
REMARK  7 active torsions:
REMARK  status: ('A' for Active; 'I' for Inactive)
REMARK    1  A    between atoms: C_1  and  C_2
REMARK    2  A    between atoms: C_2  and  C_4
REMARK    3  A    between atoms: C_7  and  N_10
REMARK    4  A    between atoms: C_11  and  C_13
REMARK    5  A    between atoms: C_13  and  C_14
REMARK    6  A    between atoms: C_22  and  C_32
REMARK    7  A    between atoms: C_25  and  C_27
REMARK                            x       y       z     vdW  Elec       q    Type
REMARK                         _______ _______ _______ _____ _____    ______ ____
ROOT
ATOM      1  C   UNL     1      -8.467  -2.033   0.389  0.00  0.00    +0.150 C 
ATOM      2  C   UNL     1      -9.795  -2.773   0.497  0.00  0.00    +0.252 C 
ATOM      3  O   UNL     1     -10.212  -3.491  -0.391  0.00  0.00    -0.272 OA
ATOM      4  N   UNL     1     -10.451  -2.581   1.609  0.00  0.00    -0.157 NA
ATOM      5  C   UNL     1     -10.033  -1.806   2.602  0.00  0.00    +0.170 C 
ATOM      6  S   UNL     1      -8.467  -1.175   2.015  0.00  0.00    -0.078 S 
ATOM      7  N   UNL     1     -10.652  -1.551   3.790  0.00  0.00    -0.195 N 
ATOM      8  C   UNL     1     -11.948  -2.104   4.215  0.00  0.00    +0.142 C 
ATOM      9  C   UNL     1     -12.161  -1.493   5.615  0.00  0.00    +0.088 C 
ATOM     10  C   UNL     1     -10.931  -0.640   5.832  0.00  0.00    +0.075 C 
ATOM     11  N   UNL     1     -10.159  -0.729   4.801  0.00  0.00    -0.181 NA
ENDROOT
BRANCH  10  12
ATOM     12  C   UNL     1     -10.656   0.159   7.030  0.00  0.00    +0.035 A 
ATOM     13  C   UNL     1      -9.562   0.958   7.314  0.00  0.00    +0.017 A 
ATOM     14  C   UNL     1      -9.532   1.620   8.519  0.00  0.00    +0.008 A 
ATOM     15  C   UNL     1     -10.562   1.462   9.391  0.00  0.00    +0.046 A 
ATOM     16  S   UNL     1     -11.641   0.348   8.507  0.00  0.00    -0.095 S 
ENDBRANCH  10  12
BRANCH   8  17
ATOM     17  C   UNL     1     -11.882  -3.608   4.294  0.00  0.00    +0.012 A 
ATOM     18  C   UNL     1     -12.821  -4.522   3.950  0.00  0.00    +0.013 A 
ATOM     19  C   UNL     1     -12.538  -5.866   4.109  0.00  0.00    +0.008 A 
ATOM     20  C   UNL     1     -11.330  -6.229   4.605  0.00  0.00    +0.045 A 
ATOM     21  S   UNL     1     -10.544  -4.646   4.858  0.00  0.00    -0.100 S 
ENDBRANCH   8  17
BRANCH   1  22
ATOM     22  C   UNL     1      -7.293  -3.007   0.271  0.00  0.00    +0.120 C 
BRANCH  22  24
ATOM     23  N   UNL     1      -4.834  -2.885   0.033  0.00  0.00    -0.285 N 
ATOM     24  C   UNL     1      -6.007  -2.231   0.150  0.00  0.00    +0.219 C 
ATOM     25  O   UNL     1      -6.027  -1.018   0.157  0.00  0.00    -0.275 OA
ATOM     26  H   UNL     1      -4.822  -3.980  -0.060  0.00  0.00    +0.155 HD
BRANCH  23  30
ATOM     27  C   UNL     1      -1.258  -0.757   0.028  0.00  0.00    +0.017 A 
ATOM     28  C   UNL     1      -1.385  -1.920  -0.742  0.00  0.00    +0.013 A 
ATOM     29  C   UNL     1      -2.563  -2.621  -0.733  0.00  0.00    +0.024 A 
ATOM     30  C   UNL     1      -3.637  -2.172   0.032  0.00  0.00    +0.033 A 
ATOM     31  C   UNL     1      -3.517  -1.014   0.795  0.00  0.00    +0.024 A 
ATOM     32  C   UNL     1      -2.341  -0.310   0.796  0.00  0.00    +0.013 A 
BRANCH  27  34
ATOM     33  C   UNL     1       1.167  -0.490  -0.801  0.00  0.00    +0.091 C 
ATOM     34  C   UNL     1       0.004  -0.006   0.026  0.00  0.00    +0.160 C 
ATOM     35  O   UNL     1       0.110   1.003   0.691  0.00  0.00    -0.292 OA
ENDBRANCH  27  34
ENDBRANCH  23  30
ENDBRANCH  22  24
ENDBRANCH   1  22
TORSDOF 6
