REMARK  Name = ZINC38789035
REMARK  6 active torsions:
REMARK  status: ('A' for Active; 'I' for Inactive)
REMARK    1  A    between atoms: C_1  and  O_2
REMARK    2  A    between atoms: O_2  and  C_3
REMARK    3  A    between atoms: C_6  and  C_26
REMARK    4  A    between atoms: C_8  and  N_9
REMARK    5  A    between atoms: N_9  and  C_10
REMARK    6  A    between atoms: C_10  and  C_11
REMARK                            x       y       z     vdW  Elec       q    Type
REMARK                         _______ _______ _______ _____ _____    ______ ____
ROOT
ATOM      1  N   UNL     1       0.096  -2.775   0.081  0.00  0.00    -0.340 N 
ATOM      2  H   UNL     1      -0.349  -2.337  -0.661  0.00  0.00    +0.146 HD
ENDROOT
BRANCH   1   8
ATOM      3  C   UNL     1       0.626  -0.619   1.042  0.00  0.00    +0.141 A 
ATOM      4  C   UNL     1       1.201   0.139   2.050  0.00  0.00    +0.048 A 
ATOM      5  C   UNL     1       1.836  -0.481   3.107  0.00  0.00    +0.012 A 
ATOM      6  C   UNL     1       1.899  -1.872   3.165  0.00  0.00    -0.016 A 
ATOM      7  C   UNL     1       1.322  -2.636   2.153  0.00  0.00    +0.035 A 
ATOM      8  C   UNL     1       0.682  -2.011   1.096  0.00  0.00    +0.070 A 
BRANCH   6   9
ATOM      9  C   UNL     1       2.582  -2.538   4.302  0.00  0.00    -0.018 A 
ATOM     10  C   UNL     1       2.651  -3.928   4.358  0.00  0.00    +0.008 A 
ATOM     11  C   UNL     1       3.288  -4.542   5.417  0.00  0.00    +0.001 A 
ATOM     12  C   UNL     1       3.856  -3.780   6.422  0.00  0.00    +0.000 A 
ATOM     13  C   UNL     1       3.789  -2.400   6.372  0.00  0.00    +0.001 A 
ATOM     14  C   UNL     1       3.161  -1.775   5.314  0.00  0.00    +0.008 A 
ENDBRANCH   6   9
BRANCH   3  16
ATOM     15  C   UNL     1      -0.017   1.425   0.010  0.00  0.00    +0.277 C 
ATOM     16  O   UNL     1       0.002  -0.004   0.002  0.00  0.00    -0.493 OA
ENDBRANCH   3  16
ENDBRANCH   1   8
BRANCH   1  17
ATOM     17  C   UNL     1       0.154  -4.238   0.139  0.00  0.00    +0.118 C 
BRANCH  17  18
ATOM     18  C   UNL     1      -0.556  -4.825  -1.083  0.00  0.00    +0.115 C 
ATOM     19  C   UNL     1      -0.286  -6.317  -1.104  0.00  0.00    -0.003 C 
ATOM     20  C   UNL     1      -1.363  -7.147  -1.083  0.00  0.00    -0.003 A 
ATOM     21  C   UNL     1      -1.188  -8.601  -1.103  0.00  0.00    +0.059 A 
ATOM     22  C   UNL     1      -2.284  -9.403  -1.081  0.00  0.00    +0.167 A 
ATOM     23  C   UNL     1      -3.586  -8.859  -1.040  0.00  0.00    +0.168 A 
ATOM     24  C   UNL     1      -3.804  -7.497  -1.020  0.00  0.00    +0.073 A 
ATOM     25  C   UNL     1      -2.731  -6.598  -1.040  0.00  0.00    +0.044 A 
ATOM     26  N   UNL     1      -2.964  -5.284  -1.020  0.00  0.00    -0.284 N 
ATOM     27  C   UNL     1      -2.000  -4.381  -1.038  0.00  0.00    +0.226 C 
ATOM     28  O   UNL     1      -2.274  -3.196  -1.018  0.00  0.00    -0.275 OA
ATOM     29  O   UNL     1      -4.478  -9.892  -1.027  0.00  0.00    -0.453 OA
ATOM     30  C   UNL     1      -3.745 -11.044  -1.480  0.00  0.00    +0.466 C 
ATOM     31  O   UNL     1      -2.387 -10.766  -1.094  0.00  0.00    -0.453 OA
ATOM     32  H   UNL     1      -3.884  -4.978  -0.991  0.00  0.00    +0.155 HD
ENDBRANCH  17  18
ENDBRANCH   1  17
TORSDOF 5
