REMARK  Name = ZINC01273521
REMARK  8 active torsions:
REMARK  status: ('A' for Active; 'I' for Inactive)
REMARK    1  A    between atoms: C_1  and  C_2
REMARK    2  A    between atoms: C_5  and  S_8
REMARK    3  A    between atoms: S_8  and  C_9
REMARK    4  A    between atoms: C_9  and  C_10
REMARK    5  A    between atoms: C_17  and  N_39
REMARK    6  A    between atoms: C_18  and  C_37
REMARK    7  A    between atoms: N_26  and  C_29
REMARK    8  A    between atoms: C_29  and  C_30
REMARK                            x       y       z     vdW  Elec       q    Type
REMARK                         _______ _______ _______ _____ _____    ______ ____
ROOT
ATOM      1  C   UNL     1       1.453   8.854   3.797  0.00  0.00    +0.055 A 
ATOM      2  C   UNL     1       1.775   9.981   3.145  0.00  0.00    +0.062 A 
ATOM      3  C   UNL     1       2.027  10.986   4.107  0.00  0.00    +0.245 A 
ATOM      4  N   UNL     1       1.859  10.465   5.287  0.00  0.00    -0.135 NA
ATOM      5  N   UNL     1       1.495   9.119   5.123  0.00  0.00    -0.277 N 
ATOM      6  H   UNL     1       1.301   8.470   5.858  0.00  0.00    +0.189 HD
ATOM      7  O   UNL     1       2.379  12.251   3.751  0.00  0.00    -0.421 OA
ATOM      8  C   UNL     1       2.229  12.604   2.459  0.00  0.00    +0.201 C 
ATOM      9  C   UNL     1       1.996  11.734   1.451  0.00  0.00    +0.110 C 
ATOM     10  C   UNL     1       1.880  10.251   1.670  0.00  0.00    +0.145 C 
ATOM     11  C   UNL     1       3.033   9.519   1.062  0.00  0.00    -0.001 A 
ATOM     12  C   UNL     1       4.389   9.583   1.305  0.00  0.00    +0.007 A 
ATOM     13  C   UNL     1       5.205   8.751   0.546  0.00  0.00    +0.000 A 
ATOM     14  C   UNL     1       4.680   7.902  -0.407  0.00  0.00    +0.002 A 
ATOM     15  C   UNL     1       3.319   7.836  -0.660  0.00  0.00    +0.024 A 
ATOM     16  C   UNL     1       2.487   8.661   0.099  0.00  0.00    +0.041 A 
ATOM     17  N   UNL     1       1.111   8.796   0.060  0.00  0.00    -0.265 N 
ATOM     18  C   UNL     1       0.666   9.708   0.950  0.00  0.00    +0.241 C 
ATOM     19  O   UNL     1      -0.488  10.030   1.136  0.00  0.00    -0.274 OA
ENDROOT
BRANCH   8  20
ATOM     20  N   UNL     1       2.318  13.937   2.145  0.00  0.00    -0.328 N 
ATOM     21  H   UNL     1       2.485  14.589   2.843  0.00  0.00    +0.145 HD
ATOM     22  H   UNL     1       2.215  14.227   1.225  0.00  0.00    +0.145 HD
ENDBRANCH   8  20
BRANCH   9  23
ATOM     23  C   UNL     1       1.854  12.245   0.121  0.00  0.00    +0.102 C 
ATOM     24  N   UNL     1       1.741  12.650  -0.934  0.00  0.00    -0.191 NA
ENDBRANCH   9  23
BRANCH   1  25
ATOM     25  C   UNL     1       1.107   7.530   3.165  0.00  0.00    +0.129 C 
BRANCH  25  26
ATOM     26  S   UNL     1       2.580   6.472   3.132  0.00  0.00    -0.119 S 
BRANCH  26  31
ATOM     27  C   UNL     1       3.006   4.386   8.780  0.00  0.00    +0.044 C 
ATOM     28  C   UNL     1       2.900   4.907   7.370  0.00  0.00    -0.050 A 
ATOM     29  C   UNL     1       3.932   4.691   6.476  0.00  0.00    +0.004 A 
ATOM     30  C   UNL     1       3.838   5.167   5.183  0.00  0.00    +0.015 A 
ATOM     31  C   UNL     1       2.704   5.863   4.781  0.00  0.00    +0.008 A 
ATOM     32  C   UNL     1       1.672   6.083   5.685  0.00  0.00    +0.015 A 
ATOM     33  C   UNL     1       1.770   5.599   6.974  0.00  0.00    +0.004 A 
ENDBRANCH  26  31
ENDBRANCH  25  26
ENDBRANCH   1  25
BRANCH  17  34
ATOM     34  C   UNL     1       0.239   8.038  -0.842  0.00  0.00    +0.148 C 
BRANCH  34  35
ATOM     35  C   UNL     1      -0.394   6.897  -0.087  0.00  0.00    -0.030 A 
ATOM     36  C   UNL     1       0.090   5.612  -0.243  0.00  0.00    +0.006 A 
ATOM     37  C   UNL     1      -0.486   4.567   0.453  0.00  0.00    +0.020 A 
ATOM     38  C   UNL     1      -1.556   4.805   1.298  0.00  0.00    +0.041 A 
ATOM     39  C   UNL     1      -2.043   6.091   1.450  0.00  0.00    +0.020 A 
ATOM     40  C   UNL     1      -1.462   7.136   0.757  0.00  0.00    +0.006 A 
ATOM     41 CL   UNL     1      -2.284   3.491   2.168  0.00  0.00    -0.084 Cl
ENDBRANCH  34  35
ENDBRANCH  17  34
TORSDOF 7
