REMARK  Name = ZINC20464738
REMARK  8 active torsions:
REMARK  status: ('A' for Active; 'I' for Inactive)
REMARK    1  A    between atoms: C_1  and  C_2
REMARK    2  A    between atoms: C_20  and  C_21
REMARK    3  A    between atoms: N_23  and  C_24
REMARK    4  A    between atoms: C_24  and  C_25
REMARK    5  A    between atoms: C_28  and  O_31
REMARK    6  A    between atoms: O_31  and  C_32
REMARK    7  A    between atoms: C_32  and  C_33
REMARK    8  A    between atoms: C_32  and  C_34
REMARK                            x       y       z     vdW  Elec       q    Type
REMARK                         _______ _______ _______ _____ _____    ______ ____
ROOT
ATOM      1  C   UNL     1      -2.969   0.137  -0.075  0.00  0.00    +0.048 C 
ATOM      2  C   UNL     1      -2.642   1.608  -0.103  0.00  0.00    +0.008 A 
ATOM      3  C   UNL     1      -3.541   2.675   0.131  0.00  0.00    +0.038 A 
ATOM      4  C   UNL     1      -2.796   3.858   0.001  0.00  0.00    +0.137 A 
ATOM      5  C   UNL     1      -3.423   5.088   0.183  0.00  0.00    +0.050 A 
ATOM      6  C   UNL     1      -4.763   5.156   0.492  0.00  0.00    +0.050 A 
ATOM      7  C   UNL     1      -5.524   3.997   0.628  0.00  0.00    +0.133 A 
ATOM      8  C   UNL     1      -4.917   2.749   0.440  0.00  0.00    +0.070 A 
ATOM      9  C   UNL     1      -5.730   1.532   0.562  0.00  0.00    +0.171 C 
ATOM     10  O   UNL     1      -5.316   0.451   0.198  0.00  0.00    -0.292 OA
ATOM     11  C   UNL     1      -7.113   1.695   1.166  0.00  0.00    +0.127 C 
ATOM     12  C   UNL     1      -7.700   3.000   0.609  0.00  0.00    +0.118 C 
ATOM     13  O   UNL     1      -6.838   4.087   0.941  0.00  0.00    -0.485 OA
ATOM     14  C   UNL     1      -7.825   2.889  -0.911  0.00  0.00    +0.048 C 
ATOM     15  C   UNL     1      -8.416   4.187  -1.469  0.00  0.00    +0.004 C 
ATOM     16  C   UNL     1      -9.799   4.421  -0.858  0.00  0.00    +0.000 C 
ATOM     17  C   UNL     1      -9.674   4.530   0.663  0.00  0.00    +0.004 C 
ATOM     18  C   UNL     1      -9.082   3.233   1.221  0.00  0.00    +0.048 C 
ATOM     19  O   UNL     1      -1.526   3.507  -0.289  0.00  0.00    -0.450 OA
ATOM     20  C   UNL     1      -1.428   2.163  -0.357  0.00  0.00    +0.193 A 
ENDROOT
BRANCH  20  21
ATOM     21  C   UNL     1      -0.197   1.414  -0.653  0.00  0.00    +0.280 C 
ATOM     22  O   UNL     1      -0.217   0.198  -0.685  0.00  0.00    -0.267 OA
ATOM     23  N   UNL     1       0.952   2.075  -0.896  0.00  0.00    -0.305 N 
ATOM     24  H   UNL     1       0.971   3.175  -0.867  0.00  0.00    +0.149 HD
BRANCH  23  25
ATOM     25  C   UNL     1       2.177   1.330  -1.197  0.00  0.00    +0.140 C 
BRANCH  25  26
ATOM     26  C   UNL     1       3.310   2.297  -1.426  0.00  0.00    -0.030 A 
ATOM     27  C   UNL     1       3.566   2.770  -2.700  0.00  0.00    +0.009 A 
ATOM     28  C   UNL     1       4.601   3.661  -2.912  0.00  0.00    +0.046 A 
ATOM     29  C   UNL     1       5.390   4.072  -1.847  0.00  0.00    +0.121 A 
ATOM     30  C   UNL     1       5.134   3.591  -0.571  0.00  0.00    +0.046 A 
ATOM     31  C   UNL     1       4.095   2.705  -0.364  0.00  0.00    +0.009 A 
BRANCH  29  32
ATOM     32  O   UNL     1       6.411   4.944  -2.054  0.00  0.00    -0.489 OA
BRANCH  32  33
ATOM     33  C   UNL     1       7.129   5.388  -0.901  0.00  0.00    +0.167 C 
ATOM     34  C   UNL     1       8.524   5.857  -1.317  0.00  0.00    +0.051 C 
ATOM     35  C   UNL     1       6.375   6.548  -0.246  0.00  0.00    +0.051 C 
ENDBRANCH  32  33
ENDBRANCH  29  32
ENDBRANCH  25  26
ENDBRANCH  23  25
ENDBRANCH  20  21
TORSDOF 5
