REMARK  Name = ZINC02738459
REMARK  8 active torsions:
REMARK  status: ('A' for Active; 'I' for Inactive)
REMARK    1  A    between atoms: C_1  and  C_2
REMARK    2  A    between atoms: C_2  and  C_3
REMARK    3  A    between atoms: C_10  and  N_17
REMARK    4  A    between atoms: C_11  and  C_12
REMARK    5  A    between atoms: C_12  and  O_14
REMARK    6  A    between atoms: O_14  and  C_15
REMARK    7  A    between atoms: C_15  and  C_16
REMARK    8  A    between atoms: C_18  and  C_20
REMARK                            x       y       z     vdW  Elec       q    Type
REMARK                         _______ _______ _______ _____ _____    ______ ____
ROOT
ATOM      1  N   UNL     1      -7.064  -2.189  -2.455  0.00  0.00    -0.279 N 
ATOM      2  C   UNL     1      -7.621  -1.440  -3.428  0.00  0.00    +0.230 C 
ATOM      3  O   UNL     1      -7.017  -0.492  -3.883  0.00  0.00    -0.274 OA
ATOM      4  H   UNL     1      -7.547  -2.947  -2.091  0.00  0.00    +0.155 HD
ENDROOT
BRANCH   2   5
ATOM      5  C   UNL     1      -8.993  -1.780  -3.949  0.00  0.00    +0.142 C 
ATOM      6  C   UNL     1      -8.984  -3.180  -4.499  0.00  0.00    +0.011 A 
ATOM      7  C   UNL     1      -9.034  -4.253  -3.626  0.00  0.00    +0.008 A 
ATOM      8  C   UNL     1      -9.026  -5.546  -4.113  0.00  0.00    +0.001 A 
ATOM      9  C   UNL     1      -8.968  -5.772  -5.476  0.00  0.00    +0.004 A 
ATOM     10  C   UNL     1      -8.918  -4.706  -6.351  0.00  0.00    +0.046 A 
ATOM     11  C   UNL     1      -8.926  -3.404  -5.865  0.00  0.00    +0.133 A 
ATOM     12  O   UNL     1      -8.877  -2.370  -6.739  0.00  0.00    -0.455 OA
ATOM     13  C   UNL     1      -9.299  -1.140  -6.360  0.00  0.00    +0.133 A 
ATOM     14  C   UNL     1      -9.377  -0.795  -5.020  0.00  0.00    +0.011 A 
ATOM     15  C   UNL     1      -9.811   0.468  -4.657  0.00  0.00    +0.008 A 
ATOM     16  C   UNL     1     -10.167   1.385  -5.627  0.00  0.00    +0.001 A 
ATOM     17  C   UNL     1     -10.092   1.044  -6.965  0.00  0.00    +0.004 A 
ATOM     18  C   UNL     1      -9.659  -0.215  -7.333  0.00  0.00    +0.046 A 
ENDBRANCH   2   5
BRANCH   1  25
ATOM     19  C   UNL     1      -1.433  -0.534   0.013  0.00  0.00    -0.006 C 
ATOM     20  C   UNL     1      -1.416  -2.061   0.124  0.00  0.00    +0.008 C 
ATOM     21  C   UNL     1      -2.832  -2.580   0.383  0.00  0.00    +0.037 C 
ATOM     22  C   UNL     1      -3.765  -1.997  -0.668  0.00  0.00    -0.021 A 
ATOM     23  C   UNL     1      -3.416  -0.912  -1.391  0.00  0.00    -0.004 A 
ATOM     24  S   UNL     1      -4.797  -0.620  -2.458  0.00  0.00    -0.077 S 
ATOM     25  C   UNL     1      -5.802  -1.876  -1.976  0.00  0.00    +0.086 A 
ATOM     26  C   UNL     1      -5.078  -2.529  -0.989  0.00  0.00    +0.091 A 
ATOM     27  C   UNL     1      -2.138  -0.136  -1.292  0.00  0.00    +0.046 C 
BRANCH  19  29
ATOM     28  C   UNL     1      -0.019   1.526   0.010  0.00  0.00    +0.004 C 
ATOM     29  C   UNL     1       0.002  -0.004   0.002  0.00  0.00    +0.000 C 
ENDBRANCH  19  29
BRANCH  26  30
ATOM     30  C   UNL     1      -5.616  -3.704  -0.300  0.00  0.00    +0.342 C 
ATOM     31  O   UNL     1      -6.270  -3.566   0.716  0.00  0.00    -0.245 OA
BRANCH  30  32
ATOM     32  O   UNL     1      -5.385  -4.938  -0.791  0.00  0.00    -0.461 OA
BRANCH  32  33
ATOM     33  C   UNL     1      -5.939  -6.039  -0.068  0.00  0.00    +0.229 C 
ATOM     34  C   UNL     1      -5.574  -7.348  -0.772  0.00  0.00    +0.048 C 
ENDBRANCH  32  33
ENDBRANCH  30  32
ENDBRANCH  26  30
ENDBRANCH   1  25
TORSDOF 6
