REMARK  Name = ZINC34984142
REMARK  6 active torsions:
REMARK  status: ('A' for Active; 'I' for Inactive)
REMARK    1  A    between atoms: C_1  and  C_2
REMARK    2  A    between atoms: C_2  and  C_32
REMARK    3  A    between atoms: C_8  and  C_11
REMARK    4  A    between atoms: C_11  and  N_12
REMARK    5  A    between atoms: C_23  and  C_25
REMARK    6  A    between atoms: C_28  and  N_31
REMARK                            x       y       z     vdW  Elec       q    Type
REMARK                         _______ _______ _______ _____ _____    ______ ____
ROOT
ATOM      1  N   UNL     1       1.269  -1.921   2.835  0.00  0.00    +0.382 N 
ATOM      2  C   UNL     1      -0.193  -1.974   2.719  0.00  0.00    -0.078 C 
ATOM      3  C   UNL     1      -0.693  -3.356   3.149  0.00  0.00    -0.012 C 
ATOM      4  C   UNL     1      -0.283  -3.611   4.602  0.00  0.00    -0.030 C 
ATOM      5  C   UNL     1       1.237  -3.479   4.726  0.00  0.00    -0.012 C 
ATOM      6  C   UNL     1       1.665  -2.093   4.238  0.00  0.00    -0.078 C 
ATOM      7  C   UNL     1      -0.961  -2.583   5.511  0.00  0.00    +0.026 C 
ATOM      8  C   UNL     1      -0.523  -2.820   6.959  0.00  0.00    +0.108 C 
ATOM      9  N   UNL     1      -0.801  -4.218   7.315  0.00  0.00    -0.296 N 
ATOM     10  C   UNL     1      -0.269  -5.285   6.456  0.00  0.00    +0.108 C 
ATOM     11  C   UNL     1      -0.709  -5.021   5.013  0.00  0.00    +0.026 C 
ATOM     12  C   UNL     1      -1.530  -4.517   8.409  0.00  0.00    +0.265 C 
ATOM     13  O   UNL     1      -1.962  -3.626   9.113  0.00  0.00    -0.268 OA
ATOM     14  H   UNL     1       1.675  -2.659   2.279  0.00  0.00    -0.081 HD
ENDROOT
BRANCH  12  15
ATOM     15  C   UNL     1      -1.803  -5.929   8.752  0.00  0.00    +0.126 A 
ATOM     16  C   UNL     1      -2.900  -6.244   9.556  0.00  0.00    +0.035 A 
ATOM     17  C   UNL     1      -3.146  -7.567   9.870  0.00  0.00    +0.026 A 
ATOM     18  C   UNL     1      -2.283  -8.540   9.368  0.00  0.00    +0.043 A 
ATOM     19  C   UNL     1      -1.208  -8.150   8.571  0.00  0.00    +0.134 A 
ATOM     20  N   UNL     1      -1.006  -6.884   8.287  0.00  0.00    -0.249 NA
BRANCH  18  21
ATOM     21  N   UNL     1      -2.493  -9.884   9.659  0.00  0.00    -0.357 N 
ATOM     22  H   UNL     1      -3.243 -10.149  10.214  0.00  0.00    +0.142 HD
ATOM     23  H   UNL     1      -1.889 -10.556   9.307  0.00  0.00    +0.142 HD
ENDBRANCH  18  21
ENDBRANCH  12  15
BRANCH   1  24
ATOM     24  C   UNL     1       1.750  -0.622   2.348  0.00  0.00    -0.039 C 
BRANCH  24  32
ATOM     25  C   UNL     1      -1.678   2.348   0.523  0.00  0.00    +0.056 C 
ATOM     26  C   UNL     1      -1.886   0.840   0.373  0.00  0.00    +0.109 C 
ATOM     27  C   UNL     1      -1.530   0.377  -1.060  0.00  0.00    +0.086 C 
ATOM     28  C   UNL     1      -0.076  -0.026  -0.907  0.00  0.00    -0.002 A 
ATOM     29  C   UNL     1       0.919  -0.265  -1.829  0.00  0.00    +0.007 A 
ATOM     30  C   UNL     1       2.186  -0.619  -1.402  0.00  0.00    +0.001 A 
ATOM     31  C   UNL     1       2.449  -0.731  -0.049  0.00  0.00    +0.005 A 
ATOM     32  C   UNL     1       1.453  -0.496   0.876  0.00  0.00    -0.022 A 
ATOM     33  C   UNL     1       0.173  -0.142   0.454  0.00  0.00    +0.126 A 
ATOM     34  O   UNL     1      -0.947   0.113   1.185  0.00  0.00    -0.485 OA
ATOM     35  C   UNL     1      -3.323   0.454   0.731  0.00  0.00    +0.056 C 
ENDBRANCH  24  32
ENDBRANCH   1  24
TORSDOF 4
