REMARK  Name = ZINC63165717
REMARK  13 active torsions:
REMARK  status: ('A' for Active; 'I' for Inactive)
REMARK    1  A    between atoms: C_1  and  C_2
REMARK    2  A    between atoms: C_6  and  N_9
REMARK    3  A    between atoms: C_7  and  C_8
REMARK    4  A    between atoms: C_10  and  C_12
REMARK    5  A    between atoms: C_12  and  O_13
REMARK    6  A    between atoms: O_13  and  C_14
REMARK    7  A    between atoms: C_14  and  C_16
REMARK    8  A    between atoms: C_16  and  C_18
REMARK    9  A    between atoms: C_16  and  N_28
REMARK   10  A    between atoms: C_18  and  C_19
REMARK   11  A    between atoms: C_29  and  O_31
REMARK   12  A    between atoms: O_31  and  C_32
REMARK   13  A    between atoms: C_32  and  C_33
REMARK                            x       y       z     vdW  Elec       q    Type
REMARK                         _______ _______ _______ _____ _____    ______ ____
ROOT
ATOM      1  C   UNL     1      -0.382  -8.610   4.271  0.00  0.00    +0.189 C 
ENDROOT
BRANCH   1   2
ATOM      2  N   UNL     1      -0.474  -9.277   5.572  0.00  0.00    -0.268 N 
ATOM      3  C   UNL     1      -0.064 -10.554   5.704  0.00  0.00    +0.401 C 
ATOM      4  O   UNL     1       0.382 -11.152   4.745  0.00  0.00    -0.226 OA
ATOM      5  H   UNL     1      -0.830  -8.800   6.338  0.00  0.00    +0.153 HD
BRANCH   3   6
ATOM      6  O   UNL     1      -0.148 -11.168   6.900  0.00  0.00    -0.446 OA
BRANCH   6   7
ATOM      7  C   UNL     1       0.304 -12.522   6.968  0.00  0.00    +0.269 C 
BRANCH   7   8
ATOM      8  C   UNL     1       0.134 -13.038   8.373  0.00  0.00    -0.010 A 
ATOM      9  C   UNL     1       1.155 -12.889   9.293  0.00  0.00    +0.007 A 
ATOM     10  C   UNL     1       0.999 -13.363  10.582  0.00  0.00    +0.000 A 
ATOM     11  C   UNL     1      -0.178 -13.986  10.951  0.00  0.00    +0.000 A 
ATOM     12  C   UNL     1      -1.199 -14.135  10.032  0.00  0.00    +0.000 A 
ATOM     13  C   UNL     1      -1.045 -13.657   8.744  0.00  0.00    +0.007 A 
ENDBRANCH   7   8
ENDBRANCH   6   7
ENDBRANCH   3   6
ENDBRANCH   1   2
BRANCH   1  14
ATOM     14  C   UNL     1      -0.297  -7.119   4.476  0.00  0.00    +0.329 C 
ATOM     15  O   UNL     1      -0.312  -6.661   5.595  0.00  0.00    -0.249 OA
BRANCH  14  16
ATOM     16  O   UNL     1      -0.205  -6.300   3.417  0.00  0.00    -0.454 OA
BRANCH  16  17
ATOM     17  C   UNL     1      -0.129  -4.898   3.686  0.00  0.00    +0.328 C 
BRANCH  17  19
ATOM     18  N   UNL     1       0.052  -2.797   2.393  0.00  0.00    -0.282 N 
ATOM     19  C   UNL     1      -0.031  -4.143   2.385  0.00  0.00    +0.255 C 
ATOM     20  O   UNL     1      -0.028  -4.745   1.333  0.00  0.00    -0.272 OA
ATOM     21  H   UNL     1       0.130  -2.321   3.234  0.00  0.00    +0.155 HD
BRANCH  18  27
ATOM     22  C   UNL     1       1.206   1.236  -0.172  0.00  0.00    +0.044 C 
ATOM     23  C   UNL     1       0.577  -0.131  -0.084  0.00  0.00    -0.046 A 
ATOM     24  C   UNL     1      -0.027  -0.686  -1.198  0.00  0.00    +0.004 A 
ATOM     25  C   UNL     1      -0.605  -1.940  -1.122  0.00  0.00    +0.002 A 
ATOM     26  C   UNL     1      -0.580  -2.642   0.067  0.00  0.00    +0.023 A 
ATOM     27  C   UNL     1       0.026  -2.088   1.187  0.00  0.00    +0.037 A 
ATOM     28  C   UNL     1       0.610  -0.831   1.106  0.00  0.00    -0.026 A 
ATOM     29  C   UNL     1       1.274  -0.228   2.317  0.00  0.00    +0.046 C 
ENDBRANCH  18  27
ENDBRANCH  17  19
ENDBRANCH  16  17
ENDBRANCH  14  16
ENDBRANCH   1  14
BRANCH   1  30
ATOM     30  C   UNL     1      -1.623  -8.940   3.440  0.00  0.00    +0.067 C 
BRANCH  30  31
ATOM     31  C   UNL     1      -1.643 -10.415   3.130  0.00  0.00    -0.039 C 
ATOM     32  C   UNL     1      -2.295 -11.381   3.816  0.00  0.00    -0.001 A 
ATOM     33  C   UNL     1      -3.148 -11.350   5.010  0.00  0.00    +0.010 A 
ATOM     34  C   UNL     1      -3.671 -12.508   5.474  0.00  0.00    +0.001 A 
ATOM     35  C   UNL     1      -3.419 -13.734   4.844  0.00  0.00    +0.002 A 
ATOM     36  C   UNL     1      -2.646 -13.843   3.743  0.00  0.00    +0.026 A 
ATOM     37  C   UNL     1      -2.045 -12.689   3.169  0.00  0.00    +0.043 A 
ATOM     38  N   UNL     1      -1.268 -12.537   2.124  0.00  0.00    -0.380 N 
ATOM     39  C   UNL     1      -0.942 -11.113   1.986  0.00  0.00    +0.144 C 
ATOM     40  H   UNL     1      -0.963 -13.247   1.538  0.00  0.00    +0.160 HD
ENDBRANCH  30  31
ENDBRANCH   1  30
TORSDOF 11
