REMARK  Name = ZINC12098632
REMARK  8 active torsions:
REMARK  status: ('A' for Active; 'I' for Inactive)
REMARK    1  A    between atoms: C_1  and  N_2
REMARK    2  A    between atoms: N_2  and  C_3
REMARK    3  A    between atoms: C_3  and  C_5
REMARK    4  A    between atoms: C_3  and  C_13
REMARK    5  A    between atoms: C_5  and  C_6
REMARK    6  A    between atoms: C_18  and  C_19
REMARK    7  A    between atoms: C_18  and  N_64
REMARK    8  A    between atoms: C_29  and  C_31
REMARK                            x       y       z     vdW  Elec       q    Type
REMARK                         _______ _______ _______ _____ _____    ______ ____
ROOT
ATOM      1  C   UNL     1       2.963   5.949  -5.426  0.00  0.00    +0.083 C 
ENDROOT
BRANCH   1   2
ATOM      2  C   UNL     1       2.844   5.813  -3.907  0.00  0.00    +0.006 C 
ATOM      3  C   UNL     1       1.513   6.409  -3.442  0.00  0.00    -0.013 C 
ATOM      4  C   UNL     1       1.374   6.217  -1.930  0.00  0.00    -0.078 C 
ATOM      5  C   UNL     1       2.716   4.200  -2.005  0.00  0.00    -0.078 C 
ATOM      6  C   UNL     1       2.895   4.332  -3.519  0.00  0.00    -0.013 C 
ATOM      7  N   UNL     1       1.405   4.770  -1.626  0.00  0.00    +0.382 N 
ATOM      8  H   UNL     1       0.669   4.300  -2.165  0.00  0.00    -0.081 HD
BRANCH   7   9
ATOM      9  C   UNL     1       1.159   4.553  -0.185  0.00  0.00    -0.041 C 
BRANCH   9  10
ATOM     10  C   UNL     1       0.979   3.077   0.059  0.00  0.00    -0.036 A 
ATOM     11  C   UNL     1      -0.271   2.550   0.171  0.00  0.00    +0.004 A 
ATOM     12  C   UNL     1      -0.458   1.187   0.396  0.00  0.00    +0.002 A 
ATOM     13  C   UNL     1       0.605   0.344   0.509  0.00  0.00    +0.030 A 
ATOM     14  C   UNL     1       1.911   0.851   0.399  0.00  0.00    +0.089 A 
ATOM     15  C   UNL     1       2.101   2.238   0.171  0.00  0.00    +0.091 A 
ATOM     16  N   UNL     1       3.342   2.726   0.065  0.00  0.00    -0.252 NA
ATOM     17  C   UNL     1       4.371   1.917   0.173  0.00  0.00    +0.131 A 
ATOM     18  C   UNL     1       4.184   0.551   0.399  0.00  0.00    +0.131 A 
ATOM     19  N   UNL     1       2.975   0.048   0.506  0.00  0.00    -0.252 NA
ENDBRANCH   9  10
ENDBRANCH   7   9
ENDBRANCH   1   2
BRANCH   1  21
ATOM     20  C   UNL     1       1.893   7.837  -6.741  0.00  0.00    +0.132 C 
ATOM     21  N   UNL     1       2.907   7.365  -5.796  0.00  0.00    -0.294 N 
ATOM     22  C   UNL     1       3.790   8.235  -5.265  0.00  0.00    +0.282 C 
ATOM     23  O   UNL     1       4.692   7.830  -4.556  0.00  0.00    -0.267 OA
BRANCH  22  24
ATOM     24  C   UNL     1       3.663   9.669  -5.543  0.00  0.00    +0.189 A 
ATOM     25  C   UNL     1       4.544  10.641  -5.163  0.00  0.00    +0.054 A 
ATOM     26  C   UNL     1       4.032  11.858  -5.638  0.00  0.00    +0.042 A 
ATOM     27  C   UNL     1       2.875  11.580  -6.279  0.00  0.00    +0.196 A 
ATOM     28  O   UNL     1       2.660  10.259  -6.224  0.00  0.00    -0.458 OA
ENDBRANCH  22  24
ENDBRANCH   1  21
BRANCH   1  29
ATOM     29  C   UNL     1       4.293   5.353  -5.890  0.00  0.00    +0.059 C 
BRANCH  29  30
ATOM     30  C   UNL     1       4.367   5.397  -7.394  0.00  0.00    -0.027 A 
ATOM     31  C   UNL     1       5.075   6.404  -8.023  0.00  0.00    +0.005 A 
ATOM     32  C   UNL     1       5.146   6.443  -9.402  0.00  0.00    +0.000 A 
ATOM     33  C   UNL     1       4.501   5.479 -10.155  0.00  0.00    +0.001 A 
ATOM     34  C   UNL     1       3.789   4.474  -9.529  0.00  0.00    +0.020 A 
ATOM     35  C   UNL     1       3.721   4.433  -8.147  0.00  0.00    +0.044 A 
ATOM     36 CL   UNL     1       2.826   3.171  -7.359  0.00  0.00    -0.083 Cl
ENDBRANCH  29  30
ENDBRANCH   1  29
TORSDOF 7
