REMARK  Name = ZINC13128257
REMARK  8 active torsions:
REMARK  status: ('A' for Active; 'I' for Inactive)
REMARK    1  A    between atoms: C_4  and  C_7
REMARK    2  A    between atoms: C_7  and  C_9
REMARK    3  A    between atoms: C_7  and  N_14
REMARK    4  A    between atoms: C_15  and  C_17
REMARK    5  A    between atoms: C_17  and  S_18
REMARK    6  A    between atoms: S_18  and  C_19
REMARK    7  A    between atoms: C_22  and  C_27
REMARK    8  A    between atoms: N_23  and  C_24
REMARK                            x       y       z     vdW  Elec       q    Type
REMARK                         _______ _______ _______ _____ _____    ______ ____
ROOT
ATOM      1  N   UNL     1       1.553  10.781   0.502  0.00  0.00    -0.303 N 
ATOM      2  C   UNL     1       2.305   9.684   0.286  0.00  0.00    +0.224 C 
ATOM      3  O   UNL     1       3.499   9.794   0.104  0.00  0.00    -0.275 OA
ATOM      4  H   UNL     1       0.598  10.694   0.648  0.00  0.00    +0.150 HD
ENDROOT
BRANCH   1   5
ATOM      5  C   UNL     1       2.177  12.107   0.517  0.00  0.00    +0.140 C 
BRANCH   5   9
ATOM      6  C   UNL     1      -0.736  15.065  -0.487  0.00  0.00    +0.000 A 
ATOM      7  C   UNL     1       0.551  15.166  -0.983  0.00  0.00    +0.000 A 
ATOM      8  C   UNL     1       1.494  14.208  -0.658  0.00  0.00    +0.006 A 
ATOM      9  C   UNL     1       1.150  13.150   0.163  0.00  0.00    -0.022 A 
ATOM     10  C   UNL     1      -0.138  13.047   0.654  0.00  0.00    +0.006 A 
ATOM     11  C   UNL     1      -1.080  14.007   0.333  0.00  0.00    +0.000 A 
ENDBRANCH   5   9
BRANCH   5  12
ATOM     12  C   UNL     1       2.726  12.388   1.893  0.00  0.00    +0.014 A 
ATOM     13  C   UNL     1       3.891  12.986   2.241  0.00  0.00    +0.013 A 
ATOM     14  C   UNL     1       4.189  13.143   3.582  0.00  0.00    +0.008 A 
ATOM     15  C   UNL     1       3.312  12.685   4.508  0.00  0.00    +0.045 A 
ATOM     16  S   UNL     1       2.013  12.013   3.486  0.00  0.00    -0.099 S 
ENDBRANCH   5  12
ENDBRANCH   1   5
BRANCH   2  17
ATOM     17  C   UNL     1       1.662   8.321   0.271  0.00  0.00    +0.173 C 
BRANCH  17  18
ATOM     18  S   UNL     1       2.925   7.062  -0.042  0.00  0.00    -0.077 S 
BRANCH  18  19
ATOM     19  C   UNL     1       1.925   5.612  -0.008  0.00  0.00    +0.193 A 
ATOM     20  N   UNL     1       0.628   5.563   0.197  0.00  0.00    -0.122 NA
ATOM     21  N   UNL     1       0.220   4.345   0.157  0.00  0.00    -0.128 NA
ATOM     22  C   UNL     1       1.231   3.542  -0.077  0.00  0.00    +0.167 A 
ATOM     23  N   UNL     1       2.355   4.327  -0.184  0.00  0.00    -0.299 N 
BRANCH  22  24
ATOM     24  C   UNL     1       1.174   2.069  -0.195  0.00  0.00    +0.037 A 
ATOM     25  C   UNL     1      -0.044   1.421  -0.436  0.00  0.00    +0.014 A 
ATOM     26  C   UNL     1      -0.043   0.042  -0.539  0.00  0.00    +0.020 A 
ATOM     27  C   UNL     1       1.149  -0.647  -0.401  0.00  0.00    +0.111 A 
ATOM     28  N   UNL     1       2.281  -0.010  -0.175  0.00  0.00    -0.263 NA
ATOM     29  C   UNL     1       2.332   1.302  -0.069  0.00  0.00    +0.122 A 
ENDBRANCH  22  24
BRANCH  23  30
ATOM     30  C   UNL     1       3.727   3.880  -0.437  0.00  0.00    +0.091 C 
ATOM     31  C   UNL     1       4.536   4.644  -1.487  0.00  0.00    +0.027 C 
ATOM     32  C   UNL     1       4.021   3.236  -1.793  0.00  0.00    +0.027 C 
ENDBRANCH  23  30
ENDBRANCH  18  19
ENDBRANCH  17  18
ENDBRANCH   2  17
TORSDOF 8
