REMARK  Name = ZINC56902205
REMARK  10 active torsions:
REMARK  status: ('A' for Active; 'I' for Inactive)
REMARK    1  A    between atoms: C_1  and  N_2
REMARK    2  A    between atoms: N_2  and  C_3
REMARK    3  A    between atoms: N_2  and  C_4
REMARK    4  A    between atoms: C_4  and  C_5
REMARK    5  A    between atoms: C_5  and  N_6
REMARK    6  A    between atoms: C_12  and  O_16
REMARK    7  A    between atoms: O_16  and  C_17
REMARK    8  A    between atoms: C_21  and  C_23
REMARK    9  A    between atoms: N_28  and  S_30
REMARK   10  A    between atoms: S_30  and  C_33
REMARK                            x       y       z     vdW  Elec       q    Type
REMARK                         _______ _______ _______ _____ _____    ______ ____
ROOT
ATOM      1  N   UNL     1      -2.816  -2.150   0.101  0.00  0.00    -0.252 N 
ATOM      2  C   UNL     1      -3.718  -2.028  -0.944  0.00  0.00    +0.168 A 
ATOM      3  N   UNL     1      -3.528  -1.526  -2.141  0.00  0.00    -0.224 NA
ATOM      4  C   UNL     1      -4.508  -1.471  -3.071  0.00  0.00    +0.081 A 
ATOM      5  C   UNL     1      -4.434  -0.959  -4.386  0.00  0.00    +0.032 A 
ATOM      6  C   UNL     1      -5.530  -0.977  -5.209  0.00  0.00    +0.048 A 
ATOM      7  C   UNL     1      -6.748  -1.498  -4.784  0.00  0.00    +0.131 A 
ATOM      8  C   UNL     1      -6.854  -2.009  -3.499  0.00  0.00    +0.063 A 
ATOM      9  C   UNL     1      -5.759  -1.992  -2.671  0.00  0.00    +0.044 A 
ATOM     10  S   UNL     1      -5.434  -2.523  -1.007  0.00  0.00    -0.052 S 
ATOM     11  C   UNL     1      -3.239  -2.567   1.311  0.00  0.00    +0.226 C 
ATOM     12  O   UNL     1      -2.435  -2.776   2.195  0.00  0.00    -0.275 OA
ENDROOT
BRANCH  11  13
ATOM     13  C   UNL     1      -4.709  -2.775   1.565  0.00  0.00    +0.091 C 
ATOM     14  C   UNL     1      -5.106  -4.192   1.145  0.00  0.00    +0.015 C 
ATOM     15  C   UNL     1      -6.606  -4.393   1.372  0.00  0.00    +0.018 C 
ATOM     16  C   UNL     1      -6.920  -4.225   2.862  0.00  0.00    +0.109 C 
ATOM     17  N   UNL     1      -6.411  -2.920   3.308  0.00  0.00    -0.181 NA
ATOM     18  C   UNL     1      -5.002  -2.587   3.057  0.00  0.00    +0.121 C 
BRANCH  17  19
ATOM     19  S   UNL     1      -7.407  -1.845   4.079  0.00  0.00    +0.029 S 
ATOM     20  O   UNL     1      -6.840  -0.570   3.811  0.00  0.00    -0.158 OA
ATOM     21  O   UNL     1      -8.713  -2.168   3.621  0.00  0.00    -0.158 OA
ATOM     22  C   UNL     1      -7.247  -2.243   5.841  0.00  0.00    +0.215 C 
ENDBRANCH  17  19
ENDBRANCH  11  13
BRANCH   1  23
ATOM     23  C   UNL     1      -1.403  -1.825  -0.110  0.00  0.00    +0.097 C 
BRANCH  23  24
ATOM     24  C   UNL     1      -1.170  -0.343   0.192  0.00  0.00    -0.060 C 
BRANCH  24  26
ATOM     25  C   UNL     1       0.422   1.447   0.077  0.00  0.00    -0.097 C 
ATOM     26  N   UNL     1       0.228   0.002  -0.097  0.00  0.00    +0.377 N 
ATOM     27  C   UNL     1       1.112  -0.726   0.823  0.00  0.00    -0.097 C 
ATOM     28  H   UNL     1       0.448  -0.255  -1.048  0.00  0.00    -0.083 HD
ENDBRANCH  24  26
ENDBRANCH  23  24
ENDBRANCH   1  23
BRANCH   7  29
ATOM     29  O   UNL     1      -7.822  -1.504  -5.618  0.00  0.00    -0.406 OA
BRANCH  29  30
ATOM     30  C   UNL     1      -7.632  -0.959  -6.925  0.00  0.00    +0.575 C 
ATOM     31  F   UNL     1      -6.635  -1.681  -7.590  0.00  0.00    -0.133 F 
ATOM     32  F   UNL     1      -8.829  -1.045  -7.645  0.00  0.00    -0.133 F 
ATOM     33  F   UNL     1      -7.246   0.381  -6.819  0.00  0.00    -0.133 F 
ENDBRANCH  29  30
ENDBRANCH   7  29
TORSDOF 7
