REMARK  Name = ZINC12888942
REMARK  7 active torsions:
REMARK  status: ('A' for Active; 'I' for Inactive)
REMARK    1  A    between atoms: C_1  and  C_2
REMARK    2  A    between atoms: C_2  and  N_58
REMARK    3  A    between atoms: C_15  and  C_17
REMARK    4  A    between atoms: C_18  and  O_34
REMARK    5  A    between atoms: N_23  and  C_26
REMARK    6  A    between atoms: C_29  and  C_33
REMARK    7  A    between atoms: C_31  and  C_32
REMARK                            x       y       z     vdW  Elec       q    Type
REMARK                         _______ _______ _______ _____ _____    ______ ____
ROOT
ATOM      1  C   UNL     1       2.736   0.194   0.961  0.00  0.00    +0.069 A 
ATOM      2  C   UNL     1       3.087  -1.045   0.515  0.00  0.00    +0.201 A 
ATOM      3  N   UNL     1       3.257  -2.064   1.419  0.00  0.00    -0.278 N 
ATOM      4  H   UNL     1       3.507  -2.948   1.106  0.00  0.00    +0.173 HD
ATOM      5  C   UNL     1       3.079  -1.846   2.734  0.00  0.00    +0.337 A 
ATOM      6  O   UNL     1       3.234  -2.761   3.520  0.00  0.00    -0.246 OA
ATOM      7  N   UNL     1       2.732  -0.629   3.193  0.00  0.00    -0.229 N 
ATOM      8  C   UNL     1       2.561   0.400   2.341  0.00  0.00    +0.267 A 
ATOM      9  O   UNL     1       2.252   1.501   2.763  0.00  0.00    -0.267 OA
ENDROOT
BRANCH   1  22
ATOM     10  C   UNL     1       3.072   3.668  -0.407  0.00  0.00    -0.073 C 
ATOM     11  C   UNL     1       1.699   4.216   0.004  0.00  0.00    +0.019 C 
ATOM     12  C   UNL     1       0.721   3.067   0.010  0.00  0.00    -0.022 A 
ATOM     13  C   UNL     1      -0.724   3.094   0.024  0.00  0.00    +0.003 A 
ATOM     14  C   UNL     1      -1.657   4.136   0.037  0.00  0.00    +0.010 A 
ATOM     15  C   UNL     1      -2.983   3.783   0.035  0.00  0.00    +0.001 A 
ATOM     16  C   UNL     1      -3.393   2.459   0.031  0.00  0.00    +0.002 A 
ATOM     17  C   UNL     1      -2.493   1.408   0.021  0.00  0.00    +0.026 A 
ATOM     18  C   UNL     1      -1.139   1.736   0.016  0.00  0.00    +0.047 A 
ATOM     19  N   UNL     1      -0.011   0.966   0.007  0.00  0.00    -0.359 N 
ATOM     20  H   UNL     1       0.002  -0.004   0.002  0.00  0.00    +0.166 HD
ATOM     21  C   UNL     1       1.097   1.768   0.001  0.00  0.00    +0.011 A 
ATOM     22  C   UNL     1       2.542   1.329  -0.011  0.00  0.00    +0.021 C 
ATOM     23  N   UNL     1       3.375   2.478   0.420  0.00  0.00    +0.388 N 
ATOM     24  H   UNL     1       3.163   2.692   1.401  0.00  0.00    -0.080 HD
BRANCH  23  26
ATOM     25  C   UNL     1       5.634   3.243   0.956  0.00  0.00    -0.017 C 
ATOM     26  C   UNL     1       4.807   2.134   0.302  0.00  0.00    -0.081 C 
ENDBRANCH  23  26
ENDBRANCH   1  22
BRANCH   7  27
ATOM     27  C   UNL     1       2.553  -0.431   4.569  0.00  0.00    +0.057 A 
ATOM     28  C   UNL     1       3.624  -0.042   5.361  0.00  0.00    +0.027 A 
ATOM     29  C   UNL     1       3.445   0.154   6.716  0.00  0.00    +0.005 A 
ATOM     30  C   UNL     1       2.199  -0.038   7.285  0.00  0.00    -0.050 A 
ATOM     31  C   UNL     1       1.129  -0.425   6.499  0.00  0.00    +0.008 A 
ATOM     32  C   UNL     1       1.302  -0.617   5.141  0.00  0.00    -0.026 A 
ATOM     33  C   UNL     1       0.134  -1.033   4.284  0.00  0.00    +0.046 C 
ATOM     34  C   UNL     1       2.006   0.176   8.764  0.00  0.00    +0.044 C 
ENDBRANCH   7  27
BRANCH   2  35
ATOM     35  O   UNL     1       3.266  -1.268  -0.804  0.00  0.00    -0.493 OA
ATOM     36  H   UNL     1       3.513  -2.178  -1.019  0.00  0.00    +0.294 HD
ENDBRANCH   2  35
TORSDOF 4
