REMARK  Name = ZINC06843602
REMARK  9 active torsions:
REMARK  status: ('A' for Active; 'I' for Inactive)
REMARK    1  A    between atoms: C_1  and  C_2
REMARK    2  A    between atoms: C_2  and  C_3
REMARK    3  A    between atoms: C_9  and  C_14
REMARK    4  A    between atoms: N_17  and  C_18
REMARK    5  A    between atoms: C_18  and  C_19
REMARK    6  A    between atoms: C_22  and  C_25
REMARK    7  A    between atoms: C_25  and  O_27
REMARK    8  A    between atoms: O_27  and  C_28
REMARK    9  A    between atoms: C_28  and  C_29
REMARK                            x       y       z     vdW  Elec       q    Type
REMARK                         _______ _______ _______ _____ _____    ______ ____
ROOT
ATOM      1  C   UNL     1      -1.192   2.716   1.265  0.00  0.00    +0.191 C 
ATOM      2  C   UNL     1      -1.160   1.782   0.046  0.00  0.00    +0.159 C 
ATOM      3  N   UNL     1      -2.431   1.037   0.023  0.00  0.00    -0.249 N 
ATOM      4  C   UNL     1      -3.610   1.745   0.317  0.00  0.00    +0.080 A 
ATOM      5  C   UNL     1      -4.845   1.184   0.034  0.00  0.00    +0.030 A 
ATOM      6  C   UNL     1      -6.002   1.883   0.327  0.00  0.00    -0.048 A 
ATOM      7  C   UNL     1      -5.926   3.141   0.896  0.00  0.00    +0.007 A 
ATOM      8  C   UNL     1      -4.696   3.707   1.173  0.00  0.00    +0.048 A 
ATOM      9  C   UNL     1      -3.530   3.014   0.882  0.00  0.00    +0.142 A 
ATOM     10  O   UNL     1      -2.325   3.580   1.154  0.00  0.00    -0.485 OA
ATOM     11  C   UNL     1      -7.346   1.273   0.026  0.00  0.00    +0.044 C 
ATOM     12  C   UNL     1      -2.462  -0.279  -0.265  0.00  0.00    +0.307 C 
ATOM     13  O   UNL     1      -3.505  -0.897  -0.172  0.00  0.00    -0.252 OA
ATOM     14  N   UNL     1      -1.337  -0.910  -0.656  0.00  0.00    -0.299 N 
ATOM     15  H   UNL     1      -0.491  -0.435  -0.661  0.00  0.00    +0.150 HD
ENDROOT
BRANCH   1  17
ATOM     16  C   UNL     1       0.102   4.399   2.581  0.00  0.00    +0.007 C 
ATOM     17  C   UNL     1       0.089   3.551   1.308  0.00  0.00    +0.043 C 
ENDBRANCH   1  17
BRANCH  14  18
ATOM     18  C   UNL     1      -1.392  -2.314  -1.073  0.00  0.00    +0.109 C 
BRANCH  18  19
ATOM     19  C   UNL     1       0.011  -2.784  -1.464  0.00  0.00    +0.006 C 
ATOM     20  C   UNL     1       0.481  -2.013  -2.699  0.00  0.00    +0.006 C 
ATOM     21  C   UNL     1       1.884  -2.484  -3.090  0.00  0.00    +0.015 C 
ATOM     22  C   UNL     1       1.850  -3.981  -3.405  0.00  0.00    +0.098 C 
ATOM     23  C   UNL     1       1.379  -4.752  -2.171  0.00  0.00    +0.015 C 
ATOM     24  C   UNL     1      -0.024  -4.281  -1.780  0.00  0.00    +0.006 C 
BRANCH  22  25
ATOM     25  C   UNL     1       3.231  -4.445  -3.791  0.00  0.00    +0.310 C 
ATOM     26  O   UNL     1       3.782  -5.304  -3.144  0.00  0.00    -0.251 OA
BRANCH  25  27
ATOM     27  O   UNL     1       3.849  -3.903  -4.852  0.00  0.00    -0.465 OA
BRANCH  27  28
ATOM     28  C   UNL     1       5.177  -4.398  -5.165  0.00  0.00    +0.229 C 
ATOM     29  C   UNL     1       5.717  -3.669  -6.397  0.00  0.00    +0.048 C 
ENDBRANCH  27  28
ENDBRANCH  25  27
ENDBRANCH  22  25
ENDBRANCH  18  19
ENDBRANCH  14  18
TORSDOF 6
