REMARK  Name = ZINC39415639
REMARK  5 active torsions:
REMARK  status: ('A' for Active; 'I' for Inactive)
REMARK    1  A    between atoms: C_4  and  C_7
REMARK    2  A    between atoms: C_11  and  S_21
REMARK    3  A    between atoms: N_13  and  C_14
REMARK    4  A    between atoms: S_21  and  C_22
REMARK    5  A    between atoms: C_22  and  C_23
REMARK                            x       y       z     vdW  Elec       q    Type
REMARK                         _______ _______ _______ _____ _____    ______ ____
ROOT
ATOM      1  C   UNL     1       3.703  -0.702  -0.030  0.00  0.00    +0.218 C 
ATOM      2  N   UNL     1       4.749   0.114   0.588  0.00  0.00    -0.286 N 
ATOM      3  N   UNL     1       5.242  -0.441   1.567  0.00  0.00    -0.180 NA
ATOM      4  C   UNL     1       4.633  -1.749   1.816  0.00  0.00    +0.273 C 
ATOM      5  N   UNL     1       3.613  -1.938   0.767  0.00  0.00    -0.273 N 
ATOM      6  H   UNL     1       5.020   0.987   0.264  0.00  0.00    +0.185 HD
ENDROOT
BRANCH   5   7
ATOM      7  C   UNL     1       2.762  -3.030   0.575  0.00  0.00    +0.034 A 
ATOM      8  C   UNL     1       1.943  -3.085  -0.545  0.00  0.00    +0.026 A 
ATOM      9  C   UNL     1       1.103  -4.165  -0.733  0.00  0.00    +0.040 A 
ATOM     10  C   UNL     1       1.077  -5.193   0.195  0.00  0.00    +0.124 A 
ATOM     11  C   UNL     1       1.893  -5.140   1.312  0.00  0.00    +0.040 A 
ATOM     12  C   UNL     1       2.738  -4.064   1.502  0.00  0.00    +0.026 A 
ATOM     13  F   UNL     1       0.255  -6.248   0.009  0.00  0.00    -0.205 F 
ENDBRANCH   5   7
BRANCH   1  17
ATOM     14  C   UNL     1      -0.026   1.380   0.062  0.00  0.00    +0.000 A 
ATOM     15  C   UNL     1       0.606   1.042   1.244  0.00  0.00    +0.000 A 
ATOM     16  C   UNL     1       1.813   0.368   1.214  0.00  0.00    +0.007 A 
ATOM     17  C   UNL     1       2.387   0.032   0.002  0.00  0.00    -0.006 A 
ATOM     18  C   UNL     1       1.754   0.369  -1.179  0.00  0.00    +0.007 A 
ATOM     19  C   UNL     1       0.548   1.044  -1.149  0.00  0.00    +0.000 A 
ENDBRANCH   1  17
BRANCH   4  20
ATOM     20  S   UNL     1       5.890  -3.053   1.704  0.00  0.00    -0.106 S 
BRANCH  20  21
ATOM     21  C   UNL     1       6.551  -2.883   0.024  0.00  0.00    +0.147 C 
BRANCH  21  22
ATOM     22  C   UNL     1       7.620  -3.921  -0.203  0.00  0.00    +0.120 A 
ATOM     23  N   UNL     1       8.244  -3.953  -1.410  0.00  0.00    -0.309 N 
ATOM     24  H   UNL     1       8.002  -3.318  -2.103  0.00  0.00    +0.170 HD
ATOM     25  C   UNL     1       9.207  -4.878  -1.635  0.00  0.00    +0.266 A 
ATOM     26  O   UNL     1       9.787  -4.932  -2.707  0.00  0.00    -0.267 OA
ATOM     27  C   UNL     1       9.518  -5.767  -0.606  0.00  0.00    +0.102 A 
ATOM     28  C   UNL     1       8.857  -5.713   0.634  0.00  0.00    +0.085 A 
ATOM     29  N   UNL     1       7.901  -4.736   0.763  0.00  0.00    -0.232 NA
ATOM     30  C   UNL     1       9.267  -6.664   1.578  0.00  0.00    +0.036 A 
ATOM     31  C   UNL     1      10.237  -7.552   1.272  0.00  0.00    +0.048 A 
ATOM     32  S   UNL     1      10.658  -7.111  -0.406  0.00  0.00    -0.090 S 
ENDBRANCH  21  22
ENDBRANCH  20  21
ENDBRANCH   4  20
TORSDOF 5
