REMARK  Name = ZINC39467471
REMARK  7 active torsions:
REMARK  status: ('A' for Active; 'I' for Inactive)
REMARK    1  A    between atoms: C_1  and  C_2
REMARK    2  A    between atoms: C_2  and  O_3
REMARK    3  A    between atoms: O_3  and  C_4
REMARK    4  A    between atoms: P_13  and  C_29
REMARK    5  A    between atoms: C_21  and  C_22
REMARK    6  A    between atoms: C_22  and  C_23
REMARK    7  A    between atoms: C_34  and  O_35
REMARK                            x       y       z     vdW  Elec       q    Type
REMARK                         _______ _______ _______ _____ _____    ______ ____
ROOT
ATOM      1  C   UNL     1       0.777  -1.810  -1.336  0.00  0.00    +0.120 C 
ATOM      2  C   UNL     1       0.264  -2.642  -0.424  0.00  0.00    +0.023 C 
ATOM      3  C   UNL     1       0.403  -4.128  -0.619  0.00  0.00    +0.019 C 
ATOM      4  C   UNL     1       0.290  -4.857   0.714  0.00  0.00    -0.002 C 
ATOM      5  C   UNL     1       1.458  -4.488   1.637  0.00  0.00    -0.020 C 
ATOM      6  C   UNL     1       1.276  -5.288   2.933  0.00  0.00    +0.157 C 
ATOM      7  O   UNL     1       2.321  -4.945   3.861  0.00  0.00    -0.316 OA
ATOM      8  P   UNL     1       3.855  -4.992   3.321  0.00  0.00    +0.291 P 
ATOM      9  O   UNL     1       4.357  -6.384   3.321  0.00  0.00    -0.269 OA
ATOM     10  N   UNL     1       3.789  -4.407   1.779  0.00  0.00    -0.288 NA
ATOM     11  N   UNL     1       2.732  -4.804   0.988  0.00  0.00    +0.398 N 
ATOM     12  C   UNL     1       2.866  -4.054  -0.271  0.00  0.00    -0.046 C 
ATOM     13  C   UNL     1       1.769  -4.437  -1.238  0.00  0.00    +0.005 C 
ATOM     14  C   UNL     1       1.937  -3.604  -2.487  0.00  0.00    -0.017 C 
ATOM     15  C   UNL     1       1.454  -2.366  -2.524  0.00  0.00    -0.005 C 
ATOM     16  H   UNL     1       4.472  -3.806   1.442  0.00  0.00    +0.111 HD
ATOM     17  H   UNL     1       2.788  -5.797   0.814  0.00  0.00    -0.055 HD
ENDROOT
BRANCH   8  18
ATOM     18  C   UNL     1       4.917  -3.942   4.351  0.00  0.00    +0.091 A 
ATOM     19  C   UNL     1       5.094  -2.610   4.029  0.00  0.00    +0.018 A 
ATOM     20  C   UNL     1       5.903  -1.810   4.814  0.00  0.00    +0.001 A 
ATOM     21  C   UNL     1       6.538  -2.339   5.922  0.00  0.00    +0.004 A 
ATOM     22  C   UNL     1       6.365  -3.670   6.248  0.00  0.00    +0.046 A 
ATOM     23  C   UNL     1       5.549  -4.475   5.465  0.00  0.00    +0.131 A 
BRANCH  23  24
ATOM     24  O   UNL     1       5.372  -5.783   5.787  0.00  0.00    -0.506 OA
ATOM     25  H   UNL     1       6.018  -6.378   5.382  0.00  0.00    +0.292 HD
ENDBRANCH  23  24
ENDBRANCH   8  18
BRANCH   1  26
ATOM     26  O   UNL     1       0.671  -0.465  -1.174  0.00  0.00    -0.492 OA
BRANCH  26  28
ATOM     27  C   UNL     1      -0.019   1.526   0.010  0.00  0.00    +0.048 C 
ATOM     28  C   UNL     1       0.002  -0.004   0.002  0.00  0.00    +0.225 C 
ENDBRANCH  26  28
ENDBRANCH   1  26
BRANCH  15  29
ATOM     29  C   UNL     1       1.600  -1.531  -3.770  0.00  0.00    +0.073 C 
BRANCH  29  30
ATOM     30  C   UNL     1       0.351  -1.652  -4.605  0.00  0.00    -0.043 A 
ATOM     31  C   UNL     1       0.249  -2.649  -5.557  0.00  0.00    +0.004 A 
ATOM     32  C   UNL     1      -0.896  -2.760  -6.323  0.00  0.00    +0.000 A 
ATOM     33  C   UNL     1      -1.940  -1.874  -6.136  0.00  0.00    +0.000 A 
ATOM     34  C   UNL     1      -1.839  -0.877  -5.184  0.00  0.00    +0.000 A 
ATOM     35  C   UNL     1      -0.696  -0.769  -4.415  0.00  0.00    +0.004 A 
ENDBRANCH  29  30
ENDBRANCH  15  29
TORSDOF 6
