REMARK  Name = ZINC45256598
REMARK  11 active torsions:
REMARK  status: ('A' for Active; 'I' for Inactive)
REMARK    1  A    between atoms: C_1  and  C_2
REMARK    2  A    between atoms: C_2  and  O_3
REMARK    3  A    between atoms: O_3  and  C_4
REMARK    4  A    between atoms: C_4  and  C_6
REMARK    5  A    between atoms: C_7  and  N_17
REMARK    6  A    between atoms: C_9  and  C_11
REMARK    7  A    between atoms: C_18  and  C_20
REMARK    8  A    between atoms: C_20  and  O_21
REMARK    9  A    between atoms: O_21  and  C_22
REMARK   10  A    between atoms: C_22  and  C_24
REMARK   11  A    between atoms: C_24  and  N_25
REMARK                            x       y       z     vdW  Elec       q    Type
REMARK                         _______ _______ _______ _____ _____    ______ ____
ROOT
ATOM      1  N   UNL     1       1.176  -4.697  -2.015  0.00  0.00    -0.282 N 
ATOM      2  C   UNL     1       1.296  -5.976  -2.421  0.00  0.00    +0.255 C 
ATOM      3  O   UNL     1       1.881  -6.233  -3.451  0.00  0.00    -0.272 OA
ATOM      4  H   UNL     1       0.765  -4.495  -1.160  0.00  0.00    +0.155 HD
ENDROOT
BRANCH   1   6
ATOM      5  C   UNL     1       0.986  -2.431  -2.866  0.00  0.00    +0.118 A 
ATOM      6  C   UNL     1       1.645  -3.661  -2.825  0.00  0.00    +0.055 A 
ATOM      7  C   UNL     1       2.766  -3.826  -3.600  0.00  0.00    +0.040 A 
ATOM      8  C   UNL     1       3.193  -2.772  -4.386  0.00  0.00    +0.022 A 
ATOM      9  S   UNL     1       1.979  -1.513  -4.031  0.00  0.00    -0.080 S 
BRANCH   8  10
ATOM     10  C   UNL     1       4.357  -2.706  -5.295  0.00  0.00    -0.011 A 
ATOM     11  C   UNL     1       5.191  -3.814  -5.447  0.00  0.00    +0.009 A 
ATOM     12  C   UNL     1       6.276  -3.746  -6.297  0.00  0.00    +0.001 A 
ATOM     13  C   UNL     1       6.537  -2.583  -6.998  0.00  0.00    +0.000 A 
ATOM     14  C   UNL     1       5.714  -1.480  -6.852  0.00  0.00    +0.001 A 
ATOM     15  C   UNL     1       4.623  -1.537  -6.010  0.00  0.00    +0.009 A 
ENDBRANCH   8  10
BRANCH   5  16
ATOM     16  C   UNL     1      -0.173  -2.021  -2.169  0.00  0.00    +0.348 C 
ATOM     17  O   UNL     1      -0.728  -2.789  -1.404  0.00  0.00    -0.244 OA
BRANCH  16  18
ATOM     18  O   UNL     1      -0.665  -0.777  -2.350  0.00  0.00    -0.461 OA
BRANCH  18  20
ATOM     19  C   UNL     1      -2.245   1.008  -1.948  0.00  0.00    +0.048 C 
ATOM     20  C   UNL     1      -1.839  -0.429  -1.614  0.00  0.00    +0.229 C 
ENDBRANCH  18  20
ENDBRANCH  16  18
ENDBRANCH   5  16
ENDBRANCH   1   6
BRANCH   2  21
ATOM     21  C   UNL     1       0.702  -7.088  -1.594  0.00  0.00    +0.328 C 
BRANCH  21  22
ATOM     22  O   UNL     1       0.959  -8.342  -2.228  0.00  0.00    -0.454 OA
BRANCH  22  23
ATOM     23  C   UNL     1       0.493  -9.441  -1.615  0.00  0.00    +0.326 C 
ATOM     24  O   UNL     1      -0.113  -9.342  -0.574  0.00  0.00    -0.249 OA
BRANCH  23  25
ATOM     25  C   UNL     1       0.725 -10.800  -2.224  0.00  0.00    +0.234 C 
BRANCH  25  26
ATOM     26  N   UNL     1       0.124 -11.828  -1.370  0.00  0.00    -0.255 N 
ATOM     27  C   UNL     1       0.866 -12.420  -0.339  0.00  0.00    +0.079 A 
ATOM     28  C   UNL     1       2.046 -11.846   0.104  0.00  0.00    +0.027 A 
ATOM     29  C   UNL     1       2.763 -12.447   1.122  0.00  0.00    +0.002 A 
ATOM     30  C   UNL     1       2.306 -13.618   1.698  0.00  0.00    +0.004 A 
ATOM     31  C   UNL     1       1.128 -14.196   1.260  0.00  0.00    +0.047 A 
ATOM     32  C   UNL     1       0.404 -13.600   0.242  0.00  0.00    +0.143 A 
ATOM     33  O   UNL     1      -0.757 -14.153  -0.199  0.00  0.00    -0.481 OA
ATOM     34  C   UNL     1      -1.769 -13.249  -0.651  0.00  0.00    +0.325 C 
ATOM     35  C   UNL     1      -1.157 -12.214  -1.561  0.00  0.00    +0.258 C 
ATOM     36  O   UNL     1      -1.810 -11.734  -2.464  0.00  0.00    -0.271 OA
ENDBRANCH  25  26
ENDBRANCH  23  25
ENDBRANCH  22  23
ENDBRANCH  21  22
ENDBRANCH   2  21
TORSDOF 10
