REMARK  Name = ZINC15770723
REMARK  9 active torsions:
REMARK  status: ('A' for Active; 'I' for Inactive)
REMARK    1  A    between atoms: C_2  and  C_3
REMARK    2  A    between atoms: C_3  and  C_5
REMARK    3  A    between atoms: C_3  and  N_17
REMARK    4  A    between atoms: C_5  and  C_7
REMARK    5  A    between atoms: C_5  and  O_16
REMARK    6  A    between atoms: C_11  and  N_13
REMARK    7  A    between atoms: C_18  and  C_35
REMARK    8  A    between atoms: C_20  and  C_29
REMARK    9  A    between atoms: C_22  and  C_23
REMARK                            x       y       z     vdW  Elec       q    Type
REMARK                         _______ _______ _______ _____ _____    ______ ____
ROOT
ATOM      1  N   UNL     1       0.724   7.480   0.478  0.00  0.00    -0.330 N 
ATOM      2  C   UNL     1       0.620   6.864   1.648  0.00  0.00    +0.051 A 
ATOM      3  C   UNL     1       1.087   7.465   2.813  0.00  0.00    +0.035 A 
ATOM      4  C   UNL     1       1.659   8.736   2.740  0.00  0.00    -0.014 A 
ATOM      5  C   UNL     1       1.745   9.355   1.491  0.00  0.00    +0.035 A 
ATOM      6  C   UNL     1       1.261   8.687   0.370  0.00  0.00    +0.051 A 
ENDROOT
BRANCH   6   7
ATOM      7  C   UNL     1       1.347   9.335  -0.962  0.00  0.00    -0.001 A 
ATOM      8  C   UNL     1       0.211   9.439  -1.763  0.00  0.00    +0.010 A 
ATOM      9  C   UNL     1       0.295  10.048  -2.999  0.00  0.00    +0.001 A 
ATOM     10  C   UNL     1       1.506  10.543  -3.448  0.00  0.00    +0.000 A 
ATOM     11  C   UNL     1       2.638  10.437  -2.659  0.00  0.00    +0.001 A 
ATOM     12  C   UNL     1       2.564   9.836  -1.419  0.00  0.00    +0.010 A 
ENDBRANCH   6   7
BRANCH   4  13
ATOM     13  C   UNL     1       2.164   9.414   3.960  0.00  0.00    -0.018 A 
ATOM     14  C   UNL     1       2.737  10.681   3.870  0.00  0.00    +0.008 A 
ATOM     15  C   UNL     1       3.199  11.309   5.009  0.00  0.00    +0.001 A 
ATOM     16  C   UNL     1       3.104  10.679   6.237  0.00  0.00    +0.000 A 
ATOM     17  C   UNL     1       2.541   9.419   6.331  0.00  0.00    +0.001 A 
ATOM     18  C   UNL     1       2.071   8.784   5.199  0.00  0.00    +0.008 A 
ENDBRANCH   4  13
BRANCH   2  19
ATOM     19  C   UNL     1       0.005   5.515   1.714  0.00  0.00    -0.001 A 
ATOM     20  C   UNL     1       0.166   4.621   0.658  0.00  0.00    +0.010 A 
ATOM     21  C   UNL     1      -0.403   3.365   0.728  0.00  0.00    +0.001 A 
ATOM     22  C   UNL     1      -1.143   2.999   1.838  0.00  0.00    +0.000 A 
ATOM     23  C   UNL     1      -1.310   3.885   2.887  0.00  0.00    +0.001 A 
ATOM     24  C   UNL     1      -0.740   5.141   2.831  0.00  0.00    +0.010 A 
ENDBRANCH   2  19
BRANCH   1  25
ATOM     25  C   UNL     1       0.226   6.811  -0.726  0.00  0.00    +0.143 C 
BRANCH  25  27
ATOM     26  C   UNL     1      -1.519   5.197  -1.284  0.00  0.00    +0.006 C 
ATOM     27  C   UNL     1      -0.892   5.871  -0.353  0.00  0.00    -0.007 C 
ENDBRANCH  25  27
BRANCH  25  28
ATOM     28  C   UNL     1       1.362   6.020  -1.377  0.00  0.00    +0.171 C 
BRANCH  28  29
ATOM     29  C   UNL     1       0.787   4.868  -2.161  0.00  0.00    -0.015 A 
ATOM     30  C   UNL     1       0.797   3.594  -1.626  0.00  0.00    +0.006 A 
ATOM     31  C   UNL     1       0.266   2.538  -2.343  0.00  0.00    +0.003 A 
ATOM     32  C   UNL     1      -0.266   2.756  -3.600  0.00  0.00    +0.033 A 
ATOM     33  C   UNL     1      -0.277   4.030  -4.135  0.00  0.00    +0.127 A 
ATOM     34  C   UNL     1       0.250   5.087  -3.416  0.00  0.00    +0.039 A 
BRANCH  33  35
ATOM     35  N   UNL     1      -0.853   4.264  -5.479  0.00  0.00    +0.056 N 
ATOM     36  O   UNL     1      -1.317   3.334  -6.113  0.00  0.00    -0.126 OA
ATOM     37  O   UNL     1      -0.862   5.387  -5.950  0.00  0.00    -0.126 OA
ENDBRANCH  33  35
ENDBRANCH  28  29
BRANCH  28  38
ATOM     38  O   UNL     1       2.234   5.517  -0.362  0.00  0.00    -0.385 OA
ATOM     39  H   UNL     1       1.919   4.706   0.061  0.00  0.00    +0.210 HD
ENDBRANCH  28  38
ENDBRANCH  25  28
ENDBRANCH   1  25
TORSDOF 9
