REMARK  Name = ZINC13298838
REMARK  12 active torsions:
REMARK  status: ('A' for Active; 'I' for Inactive)
REMARK    1  A    between atoms: C_1  and  O_2
REMARK    2  A    between atoms: O_2  and  C_3
REMARK    3  A    between atoms: C_5  and  C_14
REMARK    4  A    between atoms: C_6  and  N_11
REMARK    5  A    between atoms: C_8  and  O_9
REMARK    6  A    between atoms: O_9  and  C_10
REMARK    7  A    between atoms: C_14  and  C_15
REMARK    8  A    between atoms: C_15  and  N_16
REMARK    9  A    between atoms: N_16  and  C_17
REMARK   10  A    between atoms: C_20  and  S_25
REMARK   11  A    between atoms: C_22  and  C_23
REMARK   12  A    between atoms: S_25  and  N_28
REMARK                            x       y       z     vdW  Elec       q    Type
REMARK                         _______ _______ _______ _____ _____    ______ ____
ROOT
ATOM      1  C   UNL     1       4.612  -1.617  -2.858  0.00  0.00    +0.041 A 
ATOM      2  C   UNL     1       3.614  -2.314  -2.188  0.00  0.00    +0.025 A 
ATOM      3  C   UNL     1       3.145  -1.852  -0.975  0.00  0.00    +0.030 A 
ATOM      4  C   UNL     1       3.655  -0.688  -0.422  0.00  0.00    +0.106 A 
ATOM      5  C   UNL     1       4.645   0.016  -1.071  0.00  0.00    +0.045 A 
ATOM      6  C   UNL     1       5.135  -0.441  -2.298  0.00  0.00    +0.086 A 
ENDROOT
BRANCH   6   7
ATOM      7  C   UNL     1       6.193   0.307  -2.998  0.00  0.00    +0.388 C 
ATOM      8  O   UNL     1       6.689  -0.146  -4.011  0.00  0.00    -0.241 OA
ATOM      9  O   UNL     1       6.611   1.494  -2.516  0.00  0.00    -0.241 OA
ENDBRANCH   6   7
BRANCH   4  10
ATOM     10  S   UNL     1       3.039  -0.110   1.125  0.00  0.00    +0.061 S 
ATOM     11  O   UNL     1       4.062   0.696   1.694  0.00  0.00    -0.153 OA
ATOM     12  O   UNL     1       2.498  -1.240   1.795  0.00  0.00    -0.153 OA
BRANCH  10  13
ATOM     13  N   UNL     1       1.768   0.900   0.799  0.00  0.00    -0.177 NA
ATOM     14  C   UNL     1       0.399   0.374   0.703  0.00  0.00    +0.109 C 
ATOM     15  C   UNL     1      -0.203   0.810  -0.637  0.00  0.00    +0.017 C 
ATOM     16  C   UNL     1      -0.104   2.332  -0.765  0.00  0.00    +0.003 C 
ATOM     17  C   UNL     1       1.367   2.753  -0.738  0.00  0.00    +0.017 C 
ATOM     18  C   UNL     1       1.987   2.339   0.601  0.00  0.00    +0.109 C 
ENDBRANCH  10  13
ENDBRANCH   4  10
BRANCH   1  19
ATOM     19  N   UNL     1       5.090  -2.083  -4.076  0.00  0.00    -0.343 N 
ATOM     20  H   UNL     1       5.844  -1.644  -4.501  0.00  0.00    +0.146 HD
BRANCH  19  21
ATOM     21  C   UNL     1       4.455  -3.235  -4.720  0.00  0.00    +0.106 C 
BRANCH  21  22
ATOM     22  C   UNL     1       5.168  -3.539  -6.039  0.00  0.00    +0.056 C 
BRANCH  22  25
ATOM     23  C   UNL     1       4.465  -7.077  -7.163  0.00  0.00    +0.162 A 
ATOM     24  C   UNL     1       5.066  -5.985  -6.559  0.00  0.00    +0.055 A 
ATOM     25  C   UNL     1       4.515  -4.725  -6.701  0.00  0.00    -0.012 A 
ATOM     26  C   UNL     1       3.369  -4.550  -7.455  0.00  0.00    +0.133 A 
ATOM     27  C   UNL     1       2.766  -5.634  -8.064  0.00  0.00    +0.082 A 
ATOM     28  C   UNL     1       3.311  -6.901  -7.921  0.00  0.00    +0.164 A 
BRANCH  26  29
ATOM     29  N   UNL     1       2.786  -3.198  -7.609  0.00  0.00    +0.057 N 
ATOM     30  O   UNL     1       1.838  -3.025  -8.354  0.00  0.00    -0.126 OA
ATOM     31  O   UNL     1       3.254  -2.259  -6.990  0.00  0.00    -0.126 OA
ENDBRANCH  26  29
BRANCH  23  33
ATOM     32  C   UNL     1       6.188  -8.423  -6.228  0.00  0.00    +0.277 C 
ATOM     33  O   UNL     1       5.003  -8.317  -7.020  0.00  0.00    -0.491 OA
ENDBRANCH  23  33
BRANCH  28  34
ATOM     34  O   UNL     1       2.719  -7.969  -8.520  0.00  0.00    -0.491 OA
ATOM     35  C   UNL     1       1.537  -7.713  -9.281  0.00  0.00    +0.277 C 
ENDBRANCH  28  34
ENDBRANCH  22  25
ENDBRANCH  21  22
ENDBRANCH  19  21
ENDBRANCH   1  19
TORSDOF 10
