REMARK  Name = ZINC36548989
REMARK  11 active torsions:
REMARK  status: ('A' for Active; 'I' for Inactive)
REMARK    1  A    between atoms: C_1  and  C_2
REMARK    2  A    between atoms: C_5  and  C_8
REMARK    3  A    between atoms: C_8  and  C_10
REMARK    4  A    between atoms: C_8  and  N_24
REMARK    5  A    between atoms: N_12  and  C_13
REMARK    6  A    between atoms: C_13  and  S_14
REMARK    7  A    between atoms: S_14  and  C_17
REMARK    8  A    between atoms: C_20  and  C_23
REMARK    9  A    between atoms: N_24  and  C_25
REMARK   10  A    between atoms: C_32  and  C_34
REMARK   11  A    between atoms: C_34  and  C_36
REMARK                            x       y       z     vdW  Elec       q    Type
REMARK                         _______ _______ _______ _____ _____    ______ ____
ROOT
ATOM      1  C   UNL     1      -0.693  -2.605   1.462  0.00  0.00    +0.198 C 
ENDROOT
BRANCH   1   6
ATOM      2  C   UNL     1      -4.584   1.640   1.948  0.00  0.00    +0.044 C 
ATOM      3  C   UNL     1      -3.569   0.533   1.821  0.00  0.00    -0.050 A 
ATOM      4  C   UNL     1      -2.673   0.534   0.769  0.00  0.00    +0.004 A 
ATOM      5  C   UNL     1      -1.743  -0.481   0.652  0.00  0.00    +0.006 A 
ATOM      6  C   UNL     1      -1.707  -1.497   1.589  0.00  0.00    -0.018 A 
ATOM      7  C   UNL     1      -2.603  -1.498   2.642  0.00  0.00    +0.006 A 
ATOM      8  C   UNL     1      -3.531  -0.480   2.761  0.00  0.00    +0.004 A 
ENDBRANCH   1   6
BRANCH   1   9
ATOM      9  C   UNL     1       0.504  -2.291   2.321  0.00  0.00    +0.240 C 
ATOM     10  O   UNL     1       0.775  -3.001   3.267  0.00  0.00    -0.273 OA
ATOM     11  N   UNL     1       1.274  -1.221   2.040  0.00  0.00    -0.294 N 
ATOM     12  H   UNL     1       1.058  -0.653   1.283  0.00  0.00    +0.150 HD
BRANCH  11  13
ATOM     13  C   UNL     1       2.438  -0.916   2.875  0.00  0.00    +0.278 C 
BRANCH  13  14
ATOM     14  S   UNL     1       3.925  -1.639   2.129  0.00  0.00    +0.013 S 
ATOM     15  O   UNL     1       5.072  -1.298   2.895  0.00  0.00    -0.168 OA
ATOM     16  O   UNL     1       3.678  -2.988   1.755  0.00  0.00    -0.168 OA
BRANCH  14  17
ATOM     17  C   UNL     1       4.130  -0.780   0.605  0.00  0.00    +0.090 A 
ATOM     18  C   UNL     1       3.530  -1.259  -0.545  0.00  0.00    +0.027 A 
ATOM     19  C   UNL     1       3.691  -0.584  -1.741  0.00  0.00    +0.005 A 
ATOM     20  C   UNL     1       4.452   0.569  -1.787  0.00  0.00    -0.050 A 
ATOM     21  C   UNL     1       5.051   1.048  -0.638  0.00  0.00    +0.005 A 
ATOM     22  C   UNL     1       4.886   0.376   0.559  0.00  0.00    +0.027 A 
ATOM     23  C   UNL     1       4.628   1.303  -3.091  0.00  0.00    +0.044 C 
ENDBRANCH  14  17
ENDBRANCH  13  14
ENDBRANCH  11  13
ENDBRANCH   1   9
BRANCH   1  24
ATOM     24  N   UNL     1      -1.292  -3.868   1.900  0.00  0.00    -0.250 N 
ATOM     25  C   UNL     1      -2.346  -4.380   1.236  0.00  0.00    +0.247 C 
ATOM     26  O   UNL     1      -2.737  -3.850   0.213  0.00  0.00    -0.270 OA
BRANCH  24  27
ATOM     27  C   UNL     1      -0.768  -4.542   3.009  0.00  0.00    +0.056 A 
ATOM     28  C   UNL     1      -1.198  -4.216   4.288  0.00  0.00    +0.025 A 
ATOM     29  C   UNL     1      -0.680  -4.883   5.381  0.00  0.00    +0.002 A 
ATOM     30  C   UNL     1       0.266  -5.876   5.202  0.00  0.00    +0.002 A 
ATOM     31  C   UNL     1       0.697  -6.204   3.930  0.00  0.00    +0.022 A 
ATOM     32  C   UNL     1       0.178  -5.544   2.831  0.00  0.00    +0.062 A 
ATOM     33 CL   UNL     1       0.714  -5.961   1.234  0.00  0.00    -0.082 Cl
ENDBRANCH  24  27
BRANCH  25  34
ATOM     34  C   UNL     1      -3.025  -5.581   1.748  0.00  0.00    +0.005 C 
ATOM     35  C   UNL     1      -4.152  -6.001   1.179  0.00  0.00    +0.017 C 
ATOM     36  C   UNL     1      -2.444  -6.335   2.916  0.00  0.00    +0.048 C 
ENDBRANCH  25  34
ENDBRANCH   1  24
TORSDOF 8
