REMARK  Name = ZINC09957003
REMARK  9 active torsions:
REMARK  status: ('A' for Active; 'I' for Inactive)
REMARK    1  A    between atoms: C_1  and  C_2
REMARK    2  A    between atoms: C_10  and  O_36
REMARK    3  A    between atoms: C_21  and  C_22
REMARK    4  A    between atoms: C_24  and  O_32
REMARK    5  A    between atoms: C_25  and  O_30
REMARK    6  A    between atoms: C_26  and  O_28
REMARK    7  A    between atoms: O_28  and  C_29
REMARK    8  A    between atoms: O_30  and  C_31
REMARK    9  A    between atoms: O_32  and  C_33
REMARK                            x       y       z     vdW  Elec       q    Type
REMARK                         _______ _______ _______ _____ _____    ______ ____
ROOT
ATOM      1  C   UNL     1       5.021   0.748  -2.168  0.00  0.00    +0.020 C 
ATOM      2  C   UNL     1       4.951   0.080  -0.796  0.00  0.00    +0.034 C 
ATOM      3  C   UNL     1       3.613  -0.595  -0.608  0.00  0.00    +0.015 C 
ATOM      4  C   UNL     1       2.525   0.485  -0.544  0.00  0.00    +0.009 C 
ATOM      5  C   UNL     1       2.774   1.480   0.586  0.00  0.00    +0.023 C 
ATOM      6  C   UNL     1       1.689   2.524   0.584  0.00  0.00    -0.041 A 
ATOM      7  C   UNL     1       0.407   2.115   0.936  0.00  0.00    +0.008 A 
ATOM      8  C   UNL     1      -0.635   3.015   0.971  0.00  0.00    +0.046 A 
ATOM      9  C   UNL     1      -0.407   4.344   0.642  0.00  0.00    +0.117 A 
ATOM     10  C   UNL     1       0.867   4.752   0.287  0.00  0.00    +0.049 A 
ATOM     11  C   UNL     1       1.916   3.842   0.258  0.00  0.00    -0.040 A 
ATOM     12  C   UNL     1       3.277   4.352  -0.136  0.00  0.00    +0.036 C 
ATOM     13  C   UNL     1       4.160   3.187  -0.600  0.00  0.00    +0.009 C 
ATOM     14  C   UNL     1       4.159   2.128   0.491  0.00  0.00    +0.001 C 
ATOM     15  C   UNL     1       5.190   1.057   0.372  0.00  0.00    +0.010 C 
ATOM     16  C   UNL     1       6.652   1.431   0.096  0.00  0.00    +0.043 C 
ATOM     17  C   UNL     1       7.242   0.065  -0.274  0.00  0.00    -0.004 C 
ATOM     18  C   UNL     1       8.555  -0.266  -0.224  0.00  0.00    +0.015 C 
ATOM     19  C   UNL     1       6.179  -0.795  -0.676  0.00  0.00    +0.165 C 
ATOM     20  O   UNL     1       6.232  -1.981  -0.900  0.00  0.00    -0.292 OA
ENDROOT
BRANCH  18  21
ATOM     21  C   UNL     1       9.006  -1.556  -0.760  0.00  0.00    -0.018 A 
ATOM     22  C   UNL     1       9.976  -2.300  -0.076  0.00  0.00    +0.057 A 
ATOM     23  C   UNL     1      10.395  -3.515  -0.581  0.00  0.00    +0.166 A 
ATOM     24  C   UNL     1       9.862  -3.997  -1.775  0.00  0.00    +0.204 A 
ATOM     25  C   UNL     1       8.901  -3.257  -2.461  0.00  0.00    +0.166 A 
ATOM     26  C   UNL     1       8.473  -2.043  -1.960  0.00  0.00    +0.057 A 
BRANCH  25  27
ATOM     27  O   UNL     1       8.384  -3.731  -3.626  0.00  0.00    -0.491 OA
ATOM     28  C   UNL     1       7.403  -2.922  -4.277  0.00  0.00    +0.277 C 
ENDBRANCH  25  27
BRANCH  24  29
ATOM     29  O   UNL     1      10.280  -5.191  -2.271  0.00  0.00    -0.488 OA
ATOM     30  C   UNL     1      11.400  -5.168  -3.158  0.00  0.00    +0.277 C 
ENDBRANCH  24  29
BRANCH  23  31
ATOM     31  O   UNL     1      11.332  -4.241   0.086  0.00  0.00    -0.491 OA
ATOM     32  C   UNL     1      11.836  -3.687   1.303  0.00  0.00    +0.277 C 
ENDBRANCH  23  31
ENDBRANCH  18  21
BRANCH   9  33
ATOM     33  O   UNL     1      -1.428   5.240   0.670  0.00  0.00    -0.507 OA
ATOM     34  H   UNL     1      -1.903   5.321  -0.168  0.00  0.00    +0.292 HD
ENDBRANCH   9  33
TORSDOF 5
