REMARK  Name = ZINC43259374
REMARK  6 active torsions:
REMARK  status: ('A' for Active; 'I' for Inactive)
REMARK    1  A    between atoms: C_1  and  C_2
REMARK    2  A    between atoms: C_2  and  C_3
REMARK    3  A    between atoms: C_3  and  C_5
REMARK    4  A    between atoms: C_3  and  N_21
REMARK    5  A    between atoms: C_5  and  C_7
REMARK    6  A    between atoms: C_5  and  N_13
REMARK                            x       y       z     vdW  Elec       q    Type
REMARK                         _______ _______ _______ _____ _____    ______ ____
ROOT
ATOM      1  C   UNL     1      -1.413  -2.059   0.130  0.00  0.00    +0.079 C 
ENDROOT
BRANCH   1   2
ATOM      2  N   UNL     1      -0.636  -2.449   1.314  0.00  0.00    -0.297 NA
ATOM      3  C   UNL     1      -1.166  -1.810   2.525  0.00  0.00    +0.085 C 
ATOM      4  C   UNL     1      -0.538  -2.440   3.768  0.00  0.00    +0.015 C 
ATOM      5  C   UNL     1       0.885  -1.901   3.949  0.00  0.00    +0.001 C 
ATOM      6  C   UNL     1       1.797  -2.559   2.910  0.00  0.00    +0.000 C 
ATOM      7  C   UNL     1       1.485  -4.053   2.834  0.00  0.00    +0.001 C 
ATOM      8  C   UNL     1       0.864  -4.379   1.476  0.00  0.00    +0.015 C 
ATOM      9  C   UNL     1      -0.595  -3.911   1.460  0.00  0.00    +0.085 C 
ENDBRANCH   1   2
BRANCH   1  10
ATOM     10  C   UNL     1      -0.780  -2.649  -1.103  0.00  0.00    +0.006 A 
ATOM     11  C   UNL     1      -1.376  -3.194  -2.191  0.00  0.00    +0.014 A 
ATOM     12  C   UNL     1      -0.586  -3.679  -3.217  0.00  0.00    +0.023 A 
ATOM     13  C   UNL     1       0.763  -3.596  -3.103  0.00  0.00    +0.055 A 
ATOM     14  S   UNL     1       0.951  -2.806  -1.513  0.00  0.00    -0.085 S 
ATOM     15 BR   UNL     1       2.098  -4.163  -4.316  0.00  0.00    -0.043 Br
ENDBRANCH   1  10
BRANCH   1  16
ATOM     16  C   UNL     1      -1.433  -0.534   0.013  0.00  0.00    -0.053 C 
BRANCH  16  17
ATOM     17  N   UNL     1      -2.107  -0.147  -1.234  0.00  0.00    +0.381 N 
ATOM     18  H   UNL     1      -1.610  -0.539  -2.020  0.00  0.00    -0.090 HD
ATOM     19  H   UNL     1      -3.054  -0.496  -1.227  0.00  0.00    -0.090 HD
ATOM     20  H   UNL     1      -2.120   0.859  -1.311  0.00  0.00    -0.090 HD
ENDBRANCH  16  17
BRANCH  16  22
ATOM     21  C   UNL     1      -0.019   1.526   0.010  0.00  0.00    +0.002 C 
ATOM     22  C   UNL     1       0.002  -0.004   0.002  0.00  0.00    -0.018 C 
ENDBRANCH  16  22
ENDBRANCH   1  16
TORSDOF 5
