REMARK  Name = ZINC16931512
REMARK  12 active torsions:
REMARK  status: ('A' for Active; 'I' for Inactive)
REMARK    1  A    between atoms: C_1  and  C_2
REMARK    2  A    between atoms: C_2  and  C_3
REMARK    3  A    between atoms: C_3  and  C_5
REMARK    4  A    between atoms: C_3  and  O_7
REMARK    5  A    between atoms: O_7  and  C_8
REMARK    6  A    between atoms: C_12  and  C_14
REMARK    7  A    between atoms: N_18  and  C_22
REMARK    8  A    between atoms: C_22  and  C_24
REMARK    9  A    between atoms: C_22  and  C_28
REMARK   10  A    between atoms: C_24  and  C_25
REMARK   11  A    between atoms: C_25  and  S_26
REMARK   12  A    between atoms: S_26  and  C_27
REMARK                            x       y       z     vdW  Elec       q    Type
REMARK                         _______ _______ _______ _____ _____    ______ ____
ROOT
ATOM      1  C   UNL     1      -0.032   5.317  -0.051  0.00  0.00    +0.028 C 
ATOM      2  C   UNL     1       1.087   6.032   0.225  0.00  0.00    +0.077 C 
ATOM      3  C   UNL     1       1.291   7.497   0.236  0.00  0.00    +0.259 C 
ATOM      4  O   UNL     1       0.389   8.270  -0.027  0.00  0.00    -0.269 OA
ATOM      5  N   UNL     1       2.504   7.923   0.547  0.00  0.00    -0.241 N 
ATOM      6  C   UNL     1       3.500   7.062   0.837  0.00  0.00    +0.121 C 
ATOM      7  S   UNL     1       5.122   7.416   1.258  0.00  0.00    -0.027 S 
ATOM      8  S   UNL     1       2.718   5.464   0.685  0.00  0.00    -0.061 S 
ENDROOT
BRANCH   1  13
ATOM      9  C   UNL     1       1.361   1.848  -0.383  0.00  0.00    +0.122 A 
ATOM     10  C   UNL     1       0.194   1.104  -0.504  0.00  0.00    +0.046 A 
ATOM     11  C   UNL     1      -1.039   1.729  -0.471  0.00  0.00    +0.004 A 
ATOM     12  C   UNL     1      -1.120   3.098  -0.324  0.00  0.00    +0.008 A 
ATOM     13  C   UNL     1       0.049   3.858  -0.208  0.00  0.00    -0.020 A 
ATOM     14  C   UNL     1       1.295   3.222  -0.241  0.00  0.00    +0.053 A 
BRANCH   9  15
ATOM     15  O   UNL     1       2.569   1.226  -0.410  0.00  0.00    -0.477 OA
BRANCH  15  16
ATOM     16  C   UNL     1       2.564  -0.191  -0.596  0.00  0.00    +0.285 C 
BRANCH  16  17
ATOM     17  C   UNL     1       3.769  -0.791   0.083  0.00  0.00    +0.396 C 
ATOM     18  O   UNL     1       4.551  -0.078   0.666  0.00  0.00    -0.242 OA
ATOM     19  O   UNL     1       3.974  -2.117   0.039  0.00  0.00    -0.242 OA
ENDBRANCH  16  17
BRANCH  16  21
ATOM     20  C   UNL     1       1.328  -0.010  -2.760  0.00  0.00    +0.008 C 
ATOM     21  C   UNL     1       2.611  -0.509  -2.092  0.00  0.00    +0.053 C 
ENDBRANCH  16  21
ENDBRANCH  15  16
ENDBRANCH   9  15
ENDBRANCH   1  13
BRANCH   5  22
ATOM     22  C   UNL     1       2.771   9.363   0.575  0.00  0.00    +0.196 C 
BRANCH  22  23
ATOM     23  C   UNL     1       3.853   9.693  -0.420  0.00  0.00    +0.376 C 
ATOM     24  O   UNL     1       4.350   8.815  -1.085  0.00  0.00    -0.244 OA
ATOM     25  O   UNL     1       4.265  10.962  -0.568  0.00  0.00    -0.244 OA
ENDBRANCH  22  23
BRANCH  22  26
ATOM     26  C   UNL     1       3.227   9.769   1.978  0.00  0.00    +0.045 C 
BRANCH  26  27
ATOM     27  C   UNL     1       2.083   9.550   2.970  0.00  0.00    +0.071 C 
BRANCH  27  28
ATOM     28  S   UNL     1       2.624  10.032   4.633  0.00  0.00    -0.164 S 
ATOM     29  C   UNL     1       1.173   9.716   5.675  0.00  0.00    +0.084 C 
ENDBRANCH  27  28
ENDBRANCH  26  27
ENDBRANCH  22  26
ENDBRANCH   5  22
TORSDOF 10
