REMARK  Name = ZINC08694764
REMARK  2 active torsions:
REMARK  status: ('A' for Active; 'I' for Inactive)
REMARK    1  A    between atoms: C_6  and  C_7
REMARK    2  A    between atoms: N_8  and  N_9
REMARK                            x       y       z     vdW  Elec       q    Type
REMARK                         _______ _______ _______ _____ _____    ______ ____
ROOT
ATOM      1  N   UNL     1       1.188   2.010   0.002  0.00  0.00    -0.205 N 
ATOM      2  C   UNL     1       1.169   3.391   0.009  0.00  0.00    +0.241 A 
ATOM      3  N   UNL     1       0.009   4.040   0.018  0.00  0.00    -0.180 NA
ATOM      4  C   UNL     1      -0.009   5.370   0.030  0.00  0.00    +0.224 A 
ATOM      5  N   UNL     1       1.133   6.050   0.023  0.00  0.00    -0.181 NA
ATOM      6  C   UNL     1       2.294   5.401   0.009  0.00  0.00    +0.224 A 
ATOM      7  N   UNL     1       2.312   4.072   0.002  0.00  0.00    -0.180 NA
ATOM      8  N   UNL     1       3.479   6.107   0.001  0.00  0.00    -0.299 N 
ATOM      9  C   UNL     1       3.526   7.045  -1.129  0.00  0.00    +0.108 C 
ATOM     10  C   UNL     1       4.784   7.910  -1.024  0.00  0.00    +0.019 C 
ATOM     11  C   UNL     1       6.021   7.007  -1.034  0.00  0.00    +0.003 C 
ATOM     12  C   UNL     1       5.924   6.009   0.123  0.00  0.00    +0.019 C 
ATOM     13  C   UNL     1       4.633   5.199  -0.015  0.00  0.00    +0.108 C 
ATOM     14  N   UNL     1      -1.213   6.043   0.045  0.00  0.00    -0.299 N 
ATOM     15  C   UNL     1      -1.285   6.967   1.185  0.00  0.00    +0.108 C 
ATOM     16  C   UNL     1      -2.566   7.799   1.088  0.00  0.00    +0.019 C 
ATOM     17  C   UNL     1      -3.778   6.863   1.088  0.00  0.00    +0.003 C 
ATOM     18  C   UNL     1      -3.654   5.880  -0.079  0.00  0.00    +0.019 C 
ATOM     19  C   UNL     1      -2.342   5.104   0.051  0.00  0.00    +0.108 C 
ATOM     20  H   UNL     1       2.035   1.537  -0.009  0.00  0.00    +0.177 HD
ENDROOT
BRANCH   1  22
ATOM     21  C   UNL     1       0.002  -0.004   0.002  0.00  0.00    +0.138 C 
ATOM     22  N   UNL     1      -0.015   1.294   0.009  0.00  0.00    -0.188 NA
BRANCH  21  28
ATOM     23  C   UNL     1      -2.485  -0.080   0.031  0.00  0.00    +0.012 A 
ATOM     24  C   UNL     1      -3.667  -0.790   0.035  0.00  0.00    +0.040 A 
ATOM     25  C   UNL     1      -3.646  -2.176   0.027  0.00  0.00    +0.137 A 
ATOM     26  C   UNL     1      -2.438  -2.856   0.011  0.00  0.00    +0.054 A 
ATOM     27  C   UNL     1      -1.249  -2.156   0.002  0.00  0.00    +0.027 A 
ATOM     28  C   UNL     1      -1.265  -0.759   0.010  0.00  0.00    -0.004 A 
ATOM     29 BR   UNL     1      -2.419  -4.747   0.000  0.00  0.00    -0.047 Br
ATOM     30  F   UNL     1      -4.807  -2.866   0.035  0.00  0.00    -0.204 F 
ENDBRANCH  21  28
ENDBRANCH   1  22
TORSDOF 2
