REMARK  Name = ZINC09234035
REMARK  14 active torsions:
REMARK  status: ('A' for Active; 'I' for Inactive)
REMARK    1  A    between atoms: C_1  and  C_2
REMARK    2  A    between atoms: C_2  and  C_3
REMARK    3  A    between atoms: C_3  and  O_4
REMARK    4  A    between atoms: O_4  and  C_5
REMARK    5  A    between atoms: C_8  and  C_14
REMARK    6  A    between atoms: C_10  and  O_11
REMARK    7  A    between atoms: O_11  and  C_12
REMARK    8  A    between atoms: C_12  and  C_13
REMARK    9  A    between atoms: C_23  and  C_31
REMARK   10  A    between atoms: C_25  and  C_26
REMARK   11  A    between atoms: C_25  and  C_28
REMARK   12  A    between atoms: C_33  and  O_35
REMARK   13  A    between atoms: O_35  and  C_36
REMARK   14  A    between atoms: C_36  and  C_37
REMARK                            x       y       z     vdW  Elec       q    Type
REMARK                         _______ _______ _______ _____ _____    ______ ____
ROOT
ATOM      1  C   UNL     1       1.532   0.033   6.141  0.00  0.00    +0.067 C 
ATOM      2  C   UNL     1       1.442  -1.486   6.300  0.00  0.00    +0.044 C 
ATOM      3  C   UNL     1       0.026  -1.954   6.526  0.00  0.00    +0.120 C 
ATOM      4  N   UNL     1      -0.521  -2.599   5.328  0.00  0.00    -0.263 N 
ATOM      5  C   UNL     1       0.274  -3.684   4.724  0.00  0.00    +0.138 C 
ATOM      6  C   UNL     1       1.638  -3.116   4.421  0.00  0.00    -0.007 C 
ATOM      7  C   UNL     1       2.136  -2.122   5.129  0.00  0.00    -0.045 C 
ATOM      8  C   UNL     1       3.465  -1.566   4.758  0.00  0.00    +0.164 C 
ATOM      9  C   UNL     1       3.843  -0.362   5.256  0.00  0.00    +0.065 C 
ATOM     10  C   UNL     1       3.002   0.451   6.193  0.00  0.00    +0.188 C 
ATOM     11  N   UNL     1       5.059   0.138   4.882  0.00  0.00    -0.304 NA
ATOM     12  C   UNL     1      -1.701  -2.216   4.801  0.00  0.00    +0.403 C 
ATOM     13  O   UNL     1      -2.336  -1.319   5.320  0.00  0.00    -0.226 OA
ATOM     14  H   UNL     1       5.355   0.997   5.222  0.00  0.00    +0.186 HD
ENDROOT
BRANCH   1  18
ATOM     15  C   UNL     1      -0.159   1.183   2.385  0.00  0.00    +0.162 A 
ATOM     16  C   UNL     1      -0.931   1.218   3.535  0.00  0.00    +0.050 A 
ATOM     17  C   UNL     1      -0.381   0.846   4.748  0.00  0.00    +0.008 A 
ATOM     18  C   UNL     1       0.938   0.438   4.817  0.00  0.00    -0.037 A 
ATOM     19  C   UNL     1       1.713   0.401   3.673  0.00  0.00    +0.053 A 
ATOM     20  C   UNL     1       1.167   0.767   2.453  0.00  0.00    +0.162 A 
BRANCH  15  21
ATOM     21  O   UNL     1      -0.698   1.550   1.192  0.00  0.00    -0.488 OA
BRANCH  21  22
ATOM     22  C   UNL     1      -2.067   1.960   1.196  0.00  0.00    +0.229 C 
BRANCH  22  24
ATOM     23  C   UNL     1      -3.958   2.771  -0.220  0.00  0.00    +0.007 C 
ATOM     24  C   UNL     1      -2.493   2.331  -0.226  0.00  0.00    +0.038 C 
ENDBRANCH  22  24
ENDBRANCH  21  22
ENDBRANCH  15  21
BRANCH  20  25
ATOM     25  O   UNL     1       1.927   0.726   1.326  0.00  0.00    -0.489 OA
BRANCH  25  26
ATOM     26  C   UNL     1       3.280   0.289   1.472  0.00  0.00    +0.226 C 
ATOM     27  C   UNL     1       3.972   0.308   0.107  0.00  0.00    +0.048 C 
ENDBRANCH  25  26
ENDBRANCH  20  25
ENDBRANCH   1  18
BRANCH  10  28
ATOM     28  C   UNL     1       3.110   1.872   5.826  0.00  0.00    +0.091 C 
ATOM     29  N   UNL     1       3.194   2.969   5.542  0.00  0.00    -0.195 NA
ENDBRANCH  10  28
BRANCH  10  30
ATOM     30  C   UNL     1       3.504   0.272   7.566  0.00  0.00    +0.091 C 
ATOM     31  N   UNL     1       3.891   0.134   8.625  0.00  0.00    -0.195 NA
ENDBRANCH  10  30
BRANCH   8  32
ATOM     32  C   UNL     1       4.336  -2.294   3.885  0.00  0.00    +0.076 C 
ATOM     33  N   UNL     1       5.027  -2.872   3.192  0.00  0.00    -0.196 NA
ENDBRANCH   8  32
BRANCH  12  34
ATOM     34  O   UNL     1      -2.177  -2.828   3.700  0.00  0.00    -0.451 OA
BRANCH  34  35
ATOM     35  C   UNL     1      -3.454  -2.364   3.188  0.00  0.00    +0.230 C 
ATOM     36  C   UNL     1      -3.828  -3.171   1.943  0.00  0.00    +0.048 C 
ENDBRANCH  34  35
ENDBRANCH  12  34
TORSDOF 11
