REMARK  Name = ZINC08817382
REMARK  8 active torsions:
REMARK  status: ('A' for Active; 'I' for Inactive)
REMARK    1  A    between atoms: C_1  and  N_2
REMARK    2  A    between atoms: N_2  and  C_3
REMARK    3  A    between atoms: N_2  and  C_4
REMARK    4  A    between atoms: C_7  and  C_10
REMARK    5  A    between atoms: N_11  and  N_12
REMARK    6  A    between atoms: C_13  and  C_15
REMARK    7  A    between atoms: C_15  and  N_76
REMARK    8  A    between atoms: C_22  and  C_32
REMARK                            x       y       z     vdW  Elec       q    Type
REMARK                         _______ _______ _______ _____ _____    ______ ____
ROOT
ATOM      1  C   UNL     1      -3.036  -1.714  -1.751  0.00  0.00    -0.055 C 
ATOM      2  C   UNL     1      -4.399  -2.278  -2.171  0.00  0.00    +0.103 C 
ATOM      3  N   UNL     1      -5.325  -2.129  -1.038  0.00  0.00    -0.347 N 
ATOM      4  C   UNL     1      -6.684  -2.219  -0.995  0.00  0.00    +0.049 A 
ATOM      5  C   UNL     1      -7.634  -2.444  -1.989  0.00  0.00    +0.027 A 
ATOM      6  C   UNL     1      -8.961  -2.483  -1.600  0.00  0.00    +0.006 A 
ATOM      7  C   UNL     1      -9.348  -2.310  -0.281  0.00  0.00    -0.044 A 
ATOM      8  C   UNL     1      -8.438  -2.086   0.722  0.00  0.00    +0.014 A 
ATOM      9  C   UNL     1      -7.088  -2.037   0.361  0.00  0.00    +0.003 A 
ATOM     10  C   UNL     1      -5.880  -1.821   1.110  0.00  0.00    -0.020 A 
ATOM     11  C   UNL     1      -4.866  -1.871   0.223  0.00  0.00    +0.009 A 
ATOM     12  C   UNL     1      -3.426  -1.678   0.642  0.00  0.00    -0.020 C 
ATOM     13  C   UNL     1      -3.203  -2.439   1.938  0.00  0.00    -0.009 C 
ATOM     14  C   UNL     1      -4.329  -2.392   2.942  0.00  0.00    +0.003 C 
ATOM     15  C   UNL     1      -5.563  -1.586   2.561  0.00  0.00    +0.037 C 
ATOM     16  N   UNL     1      -2.619  -2.278  -0.451  0.00  0.00    +0.392 N 
ATOM     17  H   UNL     1      -2.773  -3.293  -0.461  0.00  0.00    -0.080 HD
ENDROOT
BRANCH   7  18
ATOM     18  C   UNL     1     -10.814  -2.369   0.063  0.00  0.00    +0.019 C 
ATOM     19  C   UNL     1     -11.373  -3.739  -0.325  0.00  0.00    +0.008 C 
ATOM     20  C   UNL     1     -12.862  -3.799   0.025  0.00  0.00    +0.001 C 
ATOM     21  C   UNL     1     -13.610  -2.707  -0.742  0.00  0.00    +0.000 C 
ATOM     22  C   UNL     1     -13.050  -1.337  -0.354  0.00  0.00    +0.001 C 
ATOM     23  C   UNL     1     -11.562  -1.277  -0.704  0.00  0.00    +0.008 C 
ENDBRANCH   7  18
BRANCH  16  24
ATOM     24  C   UNL     1      -1.182  -2.013  -0.222  0.00  0.00    +0.021 C 
BRANCH  24  26
ATOM     25  N   UNL     1       0.962  -2.670  -1.266  0.00  0.00    -0.209 N 
ATOM     26  C   UNL     1      -0.374  -2.829  -1.199  0.00  0.00    +0.216 C 
ATOM     27  O   UNL     1      -0.928  -3.628  -1.925  0.00  0.00    -0.276 OA
ATOM     28  H   UNL     1       1.405  -2.031  -0.686  0.00  0.00    +0.177 HD
BRANCH  25  30
ATOM     29  C   UNL     1       3.000  -3.276  -2.240  0.00  0.00    +0.138 C 
ATOM     30  N   UNL     1       1.713  -3.428  -2.175  0.00  0.00    -0.188 NA
BRANCH  29  34
ATOM     31  C   UNL     1       5.274  -5.574  -4.991  0.00  0.00    +0.029 A 
ATOM     32  C   UNL     1       5.910  -4.658  -4.160  0.00  0.00    +0.024 A 
ATOM     33  C   UNL     1       5.176  -3.910  -3.266  0.00  0.00    +0.011 A 
ATOM     34  C   UNL     1       3.789  -4.073  -3.195  0.00  0.00    -0.005 A 
ATOM     35  C   UNL     1       3.154  -4.998  -4.028  0.00  0.00    +0.011 A 
ATOM     36  C   UNL     1       3.895  -5.739  -4.923  0.00  0.00    +0.024 A 
BRANCH  31  38
ATOM     37  C   UNL     1       7.453  -6.069  -6.059  0.00  0.00    +0.129 C 
ATOM     38  N   UNL     1       6.021  -6.329  -5.895  0.00  0.00    -0.336 N 
ATOM     39  C   UNL     1       5.374  -7.384  -6.679  0.00  0.00    +0.129 C 
ENDBRANCH  31  38
ENDBRANCH  29  34
ENDBRANCH  25  30
ENDBRANCH  24  26
ENDBRANCH  16  24
TORSDOF 6
