REMARK  Name = ZINC39884085
REMARK  4 active torsions:
REMARK  status: ('A' for Active; 'I' for Inactive)
REMARK    1  A    between atoms: C_3  and  O_37
REMARK    2  A    between atoms: C_6  and  C_7
REMARK    3  A    between atoms: N_11  and  C_15
REMARK    4  A    between atoms: C_15  and  C_16
REMARK                            x       y       z     vdW  Elec       q    Type
REMARK                         _______ _______ _______ _____ _____    ______ ____
ROOT
ATOM      1  C   UNL     1      -1.293  -0.774   0.011  0.00  0.00    +0.072 C 
ATOM      2  C   UNL     1      -1.297  -1.743   1.159  0.00  0.00    +0.033 A 
ATOM      3  C   UNL     1      -1.034  -3.068   1.166  0.00  0.00    +0.091 A 
ATOM      4  N   UNL     1      -1.143  -3.676   2.392  0.00  0.00    -0.288 N 
ATOM      5  C   UNL     1      -1.476  -2.949   3.476  0.00  0.00    +0.292 A 
ATOM      6  O   UNL     1      -1.611  -3.326   4.627  0.00  0.00    -0.259 OA
ATOM      7  S   UNL     1      -1.661  -1.395   2.860  0.00  0.00    -0.030 S 
ATOM      8  S   UNL     1      -0.566  -3.923  -0.332  0.00  0.00    -0.093 S 
ATOM      9  C   UNL     1      -0.205  -2.510  -1.406  0.00  0.00    +0.152 C 
ATOM     10  C   UNL     1      -1.431  -1.550  -1.275  0.00  0.00    +0.110 C 
ATOM     11  C   UNL     1      -1.356  -0.821  -2.580  0.00  0.00    +0.235 C 
ATOM     12  O   UNL     1      -1.708   0.314  -2.799  0.00  0.00    -0.274 OA
ATOM     13  N   UNL     1      -0.811  -1.693  -3.468  0.00  0.00    -0.162 N 
ATOM     14  C   UNL     1      -0.245  -2.813  -2.879  0.00  0.00    +0.244 C 
ATOM     15  O   UNL     1       0.127  -3.826  -3.421  0.00  0.00    -0.273 OA
ATOM     16  C   UNL     1      -0.803  -1.482  -4.799  0.00  0.00    +0.313 C 
ATOM     17  O   UNL     1      -1.300  -0.472  -5.257  0.00  0.00    -0.252 OA
ATOM     18  N   UNL     1      -0.245  -2.392  -5.622  0.00  0.00    -0.313 N 
ATOM     19  H   UNL     1       0.151  -3.198  -5.257  0.00  0.00    +0.147 HD
ATOM     20  H   UNL     1      -0.239  -2.240  -6.580  0.00  0.00    +0.147 HD
ENDROOT
BRANCH   1  26
ATOM     21  C   UNL     1       0.024   1.305  -0.444  0.00  0.00    +0.008 A 
ATOM     22  C   UNL     1       1.210   2.013  -0.452  0.00  0.00    +0.045 A 
ATOM     23  C   UNL     1       2.380   1.410  -0.013  0.00  0.00    +0.117 A 
ATOM     24  C   UNL     1       2.355   0.096   0.433  0.00  0.00    +0.045 A 
ATOM     25  C   UNL     1       1.167  -0.607   0.440  0.00  0.00    +0.008 A 
ATOM     26  C   UNL     1       0.002  -0.004   0.002  0.00  0.00    -0.038 A 
BRANCH  23  27
ATOM     27  O   UNL     1       3.548   2.104  -0.021  0.00  0.00    -0.507 OA
ATOM     28  H   UNL     1       3.724   2.587   0.798  0.00  0.00    +0.292 HD
ENDBRANCH  23  27
ENDBRANCH   1  26
BRANCH   4  29
ATOM     29  C   UNL     1      -0.898  -5.114   2.522  0.00  0.00    +0.222 C 
BRANCH  29  30
ATOM     30  C   UNL     1       0.561  -5.351   2.816  0.00  0.00    +0.235 C 
ATOM     31  O   UNL     1       1.321  -4.410   2.909  0.00  0.00    -0.274 OA
ATOM     32  N   UNL     1       1.021  -6.607   2.977  0.00  0.00    -0.300 N 
ATOM     33  C   UNL     1       0.114  -7.757   2.861  0.00  0.00    +0.108 C 
ATOM     34  C   UNL     1       0.691  -8.740   1.838  0.00  0.00    +0.019 C 
ATOM     35  C   UNL     1       2.122  -9.106   2.239  0.00  0.00    +0.003 C 
ATOM     36  C   UNL     1       2.991  -7.846   2.242  0.00  0.00    +0.019 C 
ATOM     37  C   UNL     1       2.441  -6.854   3.264  0.00  0.00    +0.108 C 
ENDBRANCH  29  30
ENDBRANCH   4  29
TORSDOF 4
