REMARK  Name = ZINC45353430
REMARK  11 active torsions:
REMARK  status: ('A' for Active; 'I' for Inactive)
REMARK    1  A    between atoms: C_1  and  C_2
REMARK    2  A    between atoms: C_2  and  C_3
REMARK    3  A    between atoms: C_3  and  C_4
REMARK    4  A    between atoms: C_4  and  C_5
REMARK    5  A    between atoms: C_5  and  C_27
REMARK    6  A    between atoms: N_8  and  C_12
REMARK    7  A    between atoms: C_12  and  C_13
REMARK    8  A    between atoms: N_15  and  C_16
REMARK    9  A    between atoms: N_15  and  C_17
REMARK   10  A    between atoms: C_17  and  C_19
REMARK   11  A    between atoms: C_17  and  C_20
REMARK                            x       y       z     vdW  Elec       q    Type
REMARK                         _______ _______ _______ _____ _____    ______ ____
ROOT
ATOM      1  C   UNL     1       1.316  -1.977   2.435  0.00  0.00    +0.138 C 
ATOM      2  C   UNL     1       0.672  -1.631   3.763  0.00  0.00    +0.251 C 
ATOM      3  O   UNL     1      -0.445  -1.924   4.133  0.00  0.00    -0.272 OA
ATOM      4  N   UNL     1       1.599  -0.932   4.447  0.00  0.00    -0.215 N 
ATOM      5  C   UNL     1       2.728  -0.790   3.743  0.00  0.00    +0.310 C 
ATOM      6  O   UNL     1       3.708  -0.197   4.150  0.00  0.00    -0.252 OA
ATOM      7  N   UNL     1       2.658  -1.376   2.534  0.00  0.00    -0.281 N 
ATOM      8  H   UNL     1       3.354  -1.399   1.860  0.00  0.00    +0.152 HD
ENDROOT
BRANCH   1   9
ATOM      9  C   UNL     1       1.415  -3.471   2.263  0.00  0.00    -0.015 A 
ATOM     10  C   UNL     1       0.413  -4.159   1.606  0.00  0.00    +0.009 A 
ATOM     11  C   UNL     1       0.503  -5.529   1.447  0.00  0.00    +0.039 A 
ATOM     12  C   UNL     1       1.599  -6.212   1.947  0.00  0.00    +0.123 A 
ATOM     13  C   UNL     1       2.602  -5.522   2.606  0.00  0.00    +0.039 A 
ATOM     14  C   UNL     1       2.512  -4.152   2.759  0.00  0.00    +0.009 A 
ATOM     15  F   UNL     1       1.688  -7.551   1.793  0.00  0.00    -0.205 F 
ENDBRANCH   1   9
BRANCH   1  16
ATOM     16  C   UNL     1       0.532  -1.355   1.278  0.00  0.00    +0.040 C 
BRANCH  16  17
ATOM     17  C   UNL     1       0.507   0.167   1.439  0.00  0.00    +0.003 C 
BRANCH  17  19
ATOM     18  C   UNL     1      -0.302   2.310   0.443  0.00  0.00    +0.004 C 
ATOM     19  C   UNL     1      -0.277   0.789   0.282  0.00  0.00    -0.003 C 
ENDBRANCH  17  19
ENDBRANCH  16  17
ENDBRANCH   1  16
BRANCH   4  20
ATOM     20  C   UNL     1       1.396  -0.394   5.794  0.00  0.00    +0.213 C 
BRANCH  20  21
ATOM     21  C   UNL     1       1.826  -1.418   6.814  0.00  0.00    +0.234 C 
ATOM     22  O   UNL     1       2.259  -2.491   6.451  0.00  0.00    -0.274 OA
ATOM     23  N   UNL     1       1.728  -1.141   8.129  0.00  0.00    -0.296 N 
ATOM     24  C   UNL     1       1.205   0.156   8.568  0.00  0.00    +0.132 C 
BRANCH  23  25
ATOM     25  C   UNL     1       2.146  -2.135   9.120  0.00  0.00    +0.103 C 
ATOM     26  C   UNL     1       0.938  -2.557   9.960  0.00  0.00    +0.033 C 
BRANCH  25  27
ATOM     27  C   UNL     1       3.199  -1.538  10.019  0.00  0.00    -0.027 A 
ATOM     28  C   UNL     1       3.296  -1.947  11.335  0.00  0.00    +0.008 A 
ATOM     29  C   UNL     1       4.261  -1.401  12.160  0.00  0.00    +0.038 A 
ATOM     30  C   UNL     1       5.131  -0.444  11.667  0.00  0.00    +0.123 A 
ATOM     31  C   UNL     1       5.032  -0.035  10.348  0.00  0.00    +0.038 A 
ATOM     32  C   UNL     1       4.070  -0.586   9.524  0.00  0.00    +0.008 A 
ATOM     33  F   UNL     1       6.074   0.092  12.472  0.00  0.00    -0.205 F 
ENDBRANCH  25  27
ENDBRANCH  23  25
ENDBRANCH  20  21
ENDBRANCH   4  20
TORSDOF 8
