REMARK  Name = ZINC06210400
REMARK  4 active torsions:
REMARK  status: ('A' for Active; 'I' for Inactive)
REMARK    1  A    between atoms: C_1  and  C_2
REMARK    2  A    between atoms: C_3  and  C_15
REMARK    3  A    between atoms: N_5  and  C_7
REMARK    4  A    between atoms: N_16  and  N_17
REMARK                            x       y       z     vdW  Elec       q    Type
REMARK                         _______ _______ _______ _____ _____    ______ ____
ROOT
ATOM      1  C   UNL     1      -0.018   1.503   0.010  0.00  0.00    +0.068 C 
ATOM      2  C   UNL     1       0.002  -0.004   0.002  0.00  0.00    +0.070 A 
ATOM      3  C   UNL     1       0.008  -0.826  -1.146  0.00  0.00    +0.054 A 
ATOM      4  C   UNL     1       0.028  -2.136  -0.712  0.00  0.00    +0.142 A 
ATOM      5  N   UNL     1       0.034  -2.112   0.639  0.00  0.00    -0.221 N 
ATOM      6  N   UNL     1       0.023  -0.776   1.056  0.00  0.00    -0.170 NA
ATOM      7 CL   UNL     1       0.042  -3.552  -1.716  0.00  0.00    -0.061 Cl
ENDROOT
BRANCH   5   8
ATOM      8  C   UNL     1       0.053  -3.233   1.480  0.00  0.00    +0.067 A 
ATOM      9  C   UNL     1      -0.618  -4.391   1.109  0.00  0.00    +0.030 A 
ATOM     10  C   UNL     1      -0.598  -5.495   1.939  0.00  0.00    +0.040 A 
ATOM     11  C   UNL     1       0.090  -5.448   3.139  0.00  0.00    +0.124 A 
ATOM     12  C   UNL     1       0.760  -4.294   3.511  0.00  0.00    +0.040 A 
ATOM     13  C   UNL     1       0.748  -3.190   2.681  0.00  0.00    +0.030 A 
ATOM     14  F   UNL     1       0.109  -6.529   3.949  0.00  0.00    -0.205 F 
ENDBRANCH   5   8
BRANCH   3  15
ATOM     15  C   UNL     1      -0.006  -0.369  -2.549  0.00  0.00    +0.143 C 
ATOM     16  N   UNL     1       0.002  -1.237  -3.514  0.00  0.00    -0.187 NA
BRANCH  16  17
ATOM     17  N   UNL     1      -0.011  -0.803  -4.846  0.00  0.00    -0.207 N 
ATOM     18  C   UNL     1      -0.003  -1.725  -5.871  0.00  0.00    +0.214 A 
ATOM     19  N   UNL     1      -0.009  -1.419  -7.203  0.00  0.00    -0.325 N 
ATOM     20  H   UNL     1      -0.019  -0.529  -7.588  0.00  0.00    +0.169 HD
ATOM     21  C   UNL     1       0.004  -2.616  -7.899  0.00  0.00    +0.067 A 
ATOM     22  C   UNL     1       0.005  -2.944  -9.246  0.00  0.00    +0.028 A 
ATOM     23  C   UNL     1       0.019  -4.269  -9.630  0.00  0.00    +0.002 A 
ATOM     24  C   UNL     1       0.032  -5.277  -8.677  0.00  0.00    +0.002 A 
ATOM     25  C   UNL     1       0.031  -4.969  -7.335  0.00  0.00    +0.030 A 
ATOM     26  C   UNL     1       0.017  -3.632  -6.929  0.00  0.00    +0.091 A 
ATOM     27  N   UNL     1       0.017  -3.026  -5.714  0.00  0.00    -0.213 NA
ATOM     28  H   UNL     1      -0.026   0.145  -5.047  0.00  0.00    +0.177 HD
ENDBRANCH  16  17
ENDBRANCH   3  15
TORSDOF 3
