REMARK  Name = ZINC22372278
REMARK  12 active torsions:
REMARK  status: ('A' for Active; 'I' for Inactive)
REMARK    1  A    between atoms: C_1  and  C_2
REMARK    2  A    between atoms: C_2  and  C_4
REMARK    3  A    between atoms: C_2  and  N_14
REMARK    4  A    between atoms: C_4  and  C_5
REMARK    5  A    between atoms: C_5  and  C_6
REMARK    6  A    between atoms: C_5  and  C_7
REMARK    7  A    between atoms: C_5  and  C_8
REMARK    8  A    between atoms: C_15  and  C_17
REMARK    9  A    between atoms: C_17  and  N_18
REMARK   10  A    between atoms: N_18  and  C_19
REMARK   11  A    between atoms: N_18  and  S_29
REMARK   12  A    between atoms: S_29  and  C_32
REMARK                            x       y       z     vdW  Elec       q    Type
REMARK                         _______ _______ _______ _____ _____    ______ ____
ROOT
ATOM      1  N   UNL     1       3.981  -0.839   0.670  0.00  0.00    -0.194 N 
ENDROOT
BRANCH   1   2
ATOM      2  C   UNL     1       2.712  -0.296   0.443  0.00  0.00    +0.055 A 
ATOM      3  C   UNL     1       1.613  -0.787   1.135  0.00  0.00    +0.028 A 
ATOM      4  C   UNL     1       0.359  -0.252   0.911  0.00  0.00    +0.051 A 
ATOM      5  C   UNL     1       0.194   0.775  -0.006  0.00  0.00    +0.162 A 
ATOM      6  C   UNL     1       1.292   1.270  -0.699  0.00  0.00    +0.164 A 
ATOM      7  C   UNL     1       2.550   0.733  -0.474  0.00  0.00    +0.074 A 
ATOM      8  O   UNL     1       1.151   2.284  -1.596  0.00  0.00    -0.485 OA
ATOM      9  C   UNL     1      -0.175   2.545  -2.070  0.00  0.00    +0.270 C 
ATOM     10  C   UNL     1      -1.122   2.563  -0.862  0.00  0.00    +0.270 C 
ATOM     11  O   UNL     1      -1.052   1.284  -0.220  0.00  0.00    -0.485 OA
ENDBRANCH   1   2
BRANCH   1  12
ATOM     12  S   UNL     1       4.259  -2.446   0.381  0.00  0.00    +0.075 S 
ATOM     13  O   UNL     1       5.322  -2.835   1.240  0.00  0.00    -0.150 OA
ATOM     14  O   UNL     1       2.991  -3.087   0.399  0.00  0.00    -0.150 OA
BRANCH  12  15
ATOM     15  C   UNL     1       4.868  -2.580  -1.267  0.00  0.00    +0.109 A 
ATOM     16  C   UNL     1       3.987  -2.760  -2.317  0.00  0.00    +0.029 A 
ATOM     17  C   UNL     1       4.464  -2.860  -3.610  0.00  0.00    +0.002 A 
ATOM     18  C   UNL     1       5.823  -2.792  -3.853  0.00  0.00    +0.000 A 
ATOM     19  C   UNL     1       6.705  -2.618  -2.802  0.00  0.00    +0.002 A 
ATOM     20  C   UNL     1       6.227  -2.512  -1.510  0.00  0.00    +0.029 A 
ENDBRANCH  12  15
ENDBRANCH   1  12
BRANCH   1  21
ATOM     21  C   UNL     1       5.065   0.015   1.164  0.00  0.00    +0.227 C 
BRANCH  21  23
ATOM     22  N   UNL     1       5.894   0.837   3.345  0.00  0.00    -0.311 N 
ATOM     23  C   UNL     1       4.991   0.101   2.667  0.00  0.00    +0.232 C 
ATOM     24  O   UNL     1       4.120  -0.493   3.266  0.00  0.00    -0.274 OA
ATOM     25  H   UNL     1       6.685   1.375   2.801  0.00  0.00    +0.149 HD
BRANCH  22  27
ATOM     26  C   UNL     1       6.553  -0.275   5.421  0.00  0.00    +0.028 C 
ATOM     27  C   UNL     1       5.822   0.920   4.806  0.00  0.00    +0.071 C 
BRANCH  27  28
ATOM     28  C   UNL     1       6.483   2.218   5.275  0.00  0.00    +0.033 C 
BRANCH  28  29
ATOM     29  C   UNL     1       5.652   3.413   4.803  0.00  0.00    -0.008 C 
ATOM     30  C   UNL     1       5.676   3.478   3.274  0.00  0.00    +0.016 C 
ATOM     31  C   UNL     1       4.208   3.252   5.284  0.00  0.00    +0.016 C 
BRANCH  29  32
ATOM     32  C   UNL     1       6.231   4.684   5.369  0.00  0.00    -0.042 A 
ATOM     33  C   UNL     1       7.346   4.631   6.184  0.00  0.00    +0.004 A 
ATOM     34  C   UNL     1       7.881   5.797   6.700  0.00  0.00    +0.000 A 
ATOM     35  C   UNL     1       7.295   7.014   6.408  0.00  0.00    +0.000 A 
ATOM     36  C   UNL     1       6.176   7.066   5.597  0.00  0.00    +0.000 A 
ATOM     37  C   UNL     1       5.645   5.901   5.077  0.00  0.00    +0.004 A 
ENDBRANCH  29  32
ENDBRANCH  28  29
ENDBRANCH  27  28
ENDBRANCH  22  27
ENDBRANCH  21  23
ENDBRANCH   1  21
TORSDOF 9
