REMARK  Name = ZINC12099297
REMARK  8 active torsions:
REMARK  status: ('A' for Active; 'I' for Inactive)
REMARK    1  A    between atoms: C_4  and  C_7
REMARK    2  A    between atoms: C_7  and  C_8
REMARK    3  A    between atoms: C_8  and  C_10
REMARK    4  A    between atoms: C_8  and  N_27
REMARK    5  A    between atoms: C_15  and  C_16
REMARK    6  A    between atoms: C_15  and  N_70
REMARK    7  A    between atoms: N_27  and  C_28
REMARK    8  A    between atoms: C_31  and  C_33
REMARK                            x       y       z     vdW  Elec       q    Type
REMARK                         _______ _______ _______ _____ _____    ______ ____
ROOT
ATOM      1  C   UNL     1       1.466   0.879  -2.211  0.00  0.00    +0.084 C 
ENDROOT
BRANCH   1   2
ATOM      2  C   UNL     1       0.340   0.808  -1.178  0.00  0.00    +0.006 C 
ATOM      3  C   UNL     1      -0.972   0.438  -1.876  0.00  0.00    -0.013 C 
ATOM      4  C   UNL     1      -2.106   0.426  -0.848  0.00  0.00    -0.078 C 
ATOM      5  C   UNL     1      -0.987   2.109   0.490  0.00  0.00    -0.078 C 
ATOM      6  C   UNL     1       0.180   2.171  -0.498  0.00  0.00    -0.013 C 
ATOM      7  N   UNL     1      -2.223   1.773  -0.248  0.00  0.00    +0.383 N 
ATOM      8  H   UNL     1      -2.361   2.460  -0.998  0.00  0.00    -0.081 HD
BRANCH   7   9
ATOM      9  C   UNL     1      -3.384   1.819   0.665  0.00  0.00    -0.024 C 
BRANCH   9  10
ATOM     10  C   UNL     1      -3.324   3.087   1.476  0.00  0.00    +0.010 A 
ATOM     11  C   UNL     1      -2.794   3.213   2.709  0.00  0.00    +0.021 A 
ATOM     12  C   UNL     1      -2.942   4.560   3.099  0.00  0.00    +0.020 A 
ATOM     13  C   UNL     1      -3.564   5.207   2.094  0.00  0.00    +0.094 A 
ATOM     14  N   UNL     1      -3.803   4.309   1.091  0.00  0.00    -0.291 N 
ATOM     15  C   UNL     1      -4.430   4.591  -0.121  0.00  0.00    +0.235 A 
ATOM     16  N   UNL     1      -4.679   3.602  -0.965  0.00  0.00    -0.220 NA
ATOM     17  C   UNL     1      -5.277   3.834  -2.122  0.00  0.00    +0.116 A 
ATOM     18  C   UNL     1      -5.633   5.133  -2.450  0.00  0.00    +0.039 A 
ATOM     19  C   UNL     1      -5.353   6.145  -1.544  0.00  0.00    +0.116 A 
ATOM     20  N   UNL     1      -4.757   5.842  -0.403  0.00  0.00    -0.220 NA
ENDBRANCH   9  10
ENDBRANCH   7   9
ENDBRANCH   1   2
BRANCH   1  21
ATOM     21  N   UNL     1       2.745   1.082  -1.526  0.00  0.00    -0.288 N 
ATOM     22  C   UNL     1       3.693   0.125  -1.570  0.00  0.00    +0.282 C 
ATOM     23  O   UNL     1       4.701   0.236  -0.896  0.00  0.00    -0.267 OA
BRANCH  22  24
ATOM     24  C   UNL     1       3.510  -1.049  -2.429  0.00  0.00    +0.189 A 
ATOM     25  C   UNL     1       4.318  -2.149  -2.467  0.00  0.00    +0.054 A 
ATOM     26  C   UNL     1       3.772  -3.018  -3.424  0.00  0.00    +0.042 A 
ATOM     27  C   UNL     1       2.668  -2.418  -3.923  0.00  0.00    +0.196 A 
ATOM     28  O   UNL     1       2.511  -1.234  -3.317  0.00  0.00    -0.458 OA
ENDBRANCH  22  24
BRANCH  21  29
ATOM     29  C   UNL     1       2.993   2.326  -0.793  0.00  0.00    +0.077 C 
ATOM     30  C   UNL     1       4.442   2.651  -0.422  0.00  0.00    +0.024 C 
ATOM     31  C   UNL     1       3.455   2.209   0.661  0.00  0.00    +0.024 C 
ENDBRANCH  21  29
ENDBRANCH   1  21
BRANCH   1  32
ATOM     32  C   UNL     1       1.209   2.045  -3.167  0.00  0.00    +0.058 C 
BRANCH  32  36
ATOM     33  C   UNL     1       4.158   2.031  -6.257  0.00  0.00    +0.000 A 
ATOM     34  C   UNL     1       2.978   1.331  -6.425  0.00  0.00    +0.000 A 
ATOM     35  C   UNL     1       2.024   1.335  -5.425  0.00  0.00    +0.004 A 
ATOM     36  C   UNL     1       2.249   2.040  -4.257  0.00  0.00    -0.046 A 
ATOM     37  C   UNL     1       3.427   2.745  -4.092  0.00  0.00    +0.004 A 
ATOM     38  C   UNL     1       4.383   2.736  -5.090  0.00  0.00    +0.000 A 
ENDBRANCH  32  36
ENDBRANCH   1  32
TORSDOF 8
