REMARK  Name = ZINC20707929
REMARK  3 active torsions:
REMARK  status: ('A' for Active; 'I' for Inactive)
REMARK    1  A    between atoms: C_1  and  C_2
REMARK    2  A    between atoms: C_5  and  N_28
REMARK    3  A    between atoms: C_9  and  C_18
REMARK                            x       y       z     vdW  Elec       q    Type
REMARK                         _______ _______ _______ _____ _____    ______ ____
ROOT
ATOM      1  C   UNL     1      -2.831  -1.705  -3.189  0.00  0.00    +0.045 C 
ATOM      2  C   UNL     1      -3.776  -1.765  -2.017  0.00  0.00    -0.029 A 
ATOM      3  C   UNL     1      -4.898  -2.564  -2.081  0.00  0.00    +0.007 A 
ATOM      4  C   UNL     1      -5.764  -2.619  -1.005  0.00  0.00    +0.033 A 
ATOM      5  C   UNL     1      -5.506  -1.875   0.128  0.00  0.00    +0.132 A 
ATOM      6  C   UNL     1      -4.380  -1.066   0.202  0.00  0.00    +0.011 A 
ATOM      7  C   UNL     1      -3.511  -1.012  -0.874  0.00  0.00    +0.037 A 
ATOM      8  N   UNL     1      -2.361  -0.225  -0.861  0.00  0.00    -0.336 N 
ATOM      9  C   UNL     1      -2.485   0.920   0.043  0.00  0.00    +0.105 C 
ATOM     10  C   UNL     1      -2.784   0.420   1.458  0.00  0.00    +0.029 C 
ATOM     11  C   UNL     1      -4.160  -0.280   1.461  0.00  0.00    +0.051 C 
ATOM     12  C   UNL     1      -5.152   0.856   1.560  0.00  0.00    -0.023 C 
ATOM     13  C   UNL     1      -4.575   1.928   2.041  0.00  0.00    -0.030 C 
ATOM     14  C   UNL     1      -3.114   1.658   2.340  0.00  0.00    +0.033 C 
ATOM     15  H   UNL     1      -1.432  -0.377  -1.431  0.00  0.00    +0.147 HD
ENDROOT
BRANCH   9  16
ATOM     16  C   UNL     1      -1.195   1.699   0.047  0.00  0.00    -0.026 A 
ATOM     17  C   UNL     1       0.020   1.015   0.031  0.00  0.00    +0.006 A 
ATOM     18  C   UNL     1       1.203   1.688   0.029  0.00  0.00    +0.009 A 
ATOM     19  C   UNL     1       1.203   3.094   0.049  0.00  0.00    -0.018 A 
ATOM     20  C   UNL     1       2.404   3.823   0.047  0.00  0.00    +0.008 A 
ATOM     21  C   UNL     1       2.366   5.184   0.066  0.00  0.00    +0.001 A 
ATOM     22  C   UNL     1       1.151   5.867   0.088  0.00  0.00    +0.001 A 
ATOM     23  C   UNL     1      -0.032   5.194   0.091  0.00  0.00    +0.008 A 
ATOM     24  C   UNL     1      -0.032   3.788   0.071  0.00  0.00    -0.018 A 
ATOM     25  C   UNL     1      -1.233   3.059   0.073  0.00  0.00    +0.014 A 
ENDBRANCH   9  16
BRANCH   5  26
ATOM     26  N   UNL     1      -6.439  -1.940   1.276  0.00  0.00    +0.057 N 
ATOM     27  O   UNL     1      -7.428  -2.648   1.217  0.00  0.00    -0.126 OA
ATOM     28  O   UNL     1      -6.216  -1.286   2.279  0.00  0.00    -0.126 OA
ENDBRANCH   5  26
TORSDOF 2
