REMARK  Name = ZINC03095619
REMARK  6 active torsions:
REMARK  status: ('A' for Active; 'I' for Inactive)
REMARK    1  A    between atoms: C_1  and  C_2
REMARK    2  A    between atoms: C_5  and  C_8
REMARK    3  A    between atoms: C_8  and  O_10
REMARK    4  A    between atoms: O_10  and  N_11
REMARK    5  A    between atoms: N_16  and  N_17
REMARK    6  A    between atoms: C_18  and  C_20
REMARK                            x       y       z     vdW  Elec       q    Type
REMARK                         _______ _______ _______ _____ _____    ______ ____
ROOT
ATOM      1  N   UNL     1       0.092  -6.337   0.985  0.00  0.00    -0.074 NA
ATOM      2  C   UNL     1       0.107  -7.117   2.046  0.00  0.00    +0.104 C 
ATOM      3  C   UNL     1       0.100  -6.528   3.389  0.00  0.00    +0.033 C 
ATOM      4  C   UNL     1       0.116  -7.326   4.474  0.00  0.00    +0.031 C 
ATOM      5  C   UNL     1       0.141  -8.782   4.312  0.00  0.00    +0.082 C 
ATOM      6  N   UNL     1       0.157  -9.564   5.376  0.00  0.00    -0.180 NA
ATOM      7  C   UNL     1       0.148  -9.371   2.971  0.00  0.00    +0.031 C 
ATOM      8  C   UNL     1       0.126  -8.573   1.885  0.00  0.00    +0.033 C 
ENDROOT
BRANCH   6   9
ATOM      9  N   UNL     1       0.181 -10.956   5.222  0.00  0.00    -0.202 N 
ATOM     10  C   UNL     1       0.197 -11.754   6.308  0.00  0.00    +0.263 C 
ATOM     11  O   UNL     1       0.190 -11.266   7.421  0.00  0.00    -0.268 OA
ATOM     12  H   UNL     1       0.186 -11.345   4.334  0.00  0.00    +0.178 HD
BRANCH  10  13
ATOM     13  C   UNL     1       0.222 -13.222   6.145  0.00  0.00    +0.038 A 
ATOM     14  C   UNL     1       0.235 -13.786   4.868  0.00  0.00    +0.014 A 
ATOM     15  C   UNL     1       0.259 -15.157   4.723  0.00  0.00    +0.016 A 
ATOM     16  C   UNL     1       0.270 -15.974   5.841  0.00  0.00    +0.018 A 
ATOM     17  C   UNL     1       0.257 -15.421   7.110  0.00  0.00    +0.016 A 
ATOM     18  C   UNL     1       0.239 -14.051   7.269  0.00  0.00    +0.014 A 
ATOM     19 BR   UNL     1       0.303 -17.853   5.633  0.00  0.00    -0.050 Br
ENDBRANCH  10  13
ENDBRANCH   6   9
BRANCH   1  20
ATOM     20  O   UNL     1       0.074  -4.929   1.141  0.00  0.00    -0.311 OA
BRANCH  20  21
ATOM     21  C   UNL     1       0.059  -4.250  -0.021  0.00  0.00    +0.366 C 
ATOM     22  O   UNL     1       0.062  -4.852  -1.077  0.00  0.00    -0.243 OA
BRANCH  21  27
ATOM     23  C   UNL     1      -0.018   1.503   0.010  0.00  0.00    +0.044 C 
ATOM     24  C   UNL     1       0.002  -0.004   0.002  0.00  0.00    -0.050 A 
ATOM     25  C   UNL     1       0.006  -0.686  -1.202  0.00  0.00    +0.004 A 
ATOM     26  C   UNL     1       0.024  -2.065  -1.217  0.00  0.00    +0.015 A 
ATOM     27  C   UNL     1       0.040  -2.773  -0.013  0.00  0.00    +0.061 A 
ATOM     28  C   UNL     1       0.036  -2.079   1.198  0.00  0.00    +0.015 A 
ATOM     29  C   UNL     1       0.023  -0.699   1.198  0.00  0.00    +0.004 A 
ENDBRANCH  21  27
ENDBRANCH  20  21
ENDBRANCH   1  20
TORSDOF 5
