REMARK  Name = ZINC64372456
REMARK  5 active torsions:
REMARK  status: ('A' for Active; 'I' for Inactive)
REMARK    1  A    between atoms: C_1  and  C_2
REMARK    2  A    between atoms: C_6  and  C_8
REMARK    3  A    between atoms: C_9  and  C_10
REMARK    4  A    between atoms: C_10  and  N_12
REMARK    5  A    between atoms: C_16  and  C_19
REMARK                            x       y       z     vdW  Elec       q    Type
REMARK                         _______ _______ _______ _____ _____    ______ ____
ROOT
ATOM      1  N   UNL     1       0.103  -6.276   3.690  0.00  0.00    -0.142 NA
ATOM      2  C   UNL     1       0.117  -6.952   4.835  0.00  0.00    +0.216 A 
ATOM      3  N   UNL     1       0.110  -6.419   6.087  0.00  0.00    -0.308 N 
ATOM      4  H   UNL     1       0.094  -5.474   6.303  0.00  0.00    +0.170 HD
ATOM      5  C   UNL     1       0.130  -7.456   6.995  0.00  0.00    +0.179 A 
ATOM      6  N   UNL     1       0.149  -8.586   6.345  0.00  0.00    -0.151 NA
ATOM      7  N   UNL     1       0.135  -8.304   4.972  0.00  0.00    -0.246 N 
ATOM      8  H   UNL     1       0.140  -8.954   4.252  0.00  0.00    +0.192 HD
ENDROOT
BRANCH   5   9
ATOM      9  C   UNL     1       0.131  -7.311   8.468  0.00  0.00    +0.108 A 
ATOM     10  C   UNL     1       0.158  -8.448   9.275  0.00  0.00    +0.031 A 
ATOM     11  C   UNL     1       0.158  -8.296  10.651  0.00  0.00    +0.004 A 
ATOM     12  C   UNL     1       0.131  -7.011  11.175  0.00  0.00    +0.020 A 
ATOM     13  C   UNL     1       0.105  -5.928  10.316  0.00  0.00    +0.111 A 
ATOM     14  N   UNL     1       0.111  -6.099   9.010  0.00  0.00    -0.252 NA
ENDBRANCH   5   9
BRANCH   1  15
ATOM     15  C   UNL     1       0.085  -4.938   3.703  0.00  0.00    +0.263 C 
ATOM     16  O   UNL     1       0.082  -4.338   4.766  0.00  0.00    -0.269 OA
BRANCH  15  18
ATOM     17  C   UNL     1       0.052  -2.845   2.451  0.00  0.00    +0.013 C 
ATOM     18  C   UNL     1       0.070  -4.191   2.438  0.00  0.00    +0.070 C 
BRANCH  17  24
ATOM     19  C   UNL     1      -0.018   1.503   0.010  0.00  0.00    +0.044 C 
ATOM     20  C   UNL     1       0.002  -0.004   0.002  0.00  0.00    -0.050 A 
ATOM     21  C   UNL     1       0.006  -0.688  -1.202  0.00  0.00    +0.003 A 
ATOM     22  C   UNL     1       0.025  -2.071  -1.219  0.00  0.00    +0.001 A 
ATOM     23  C   UNL     1       0.040  -2.780  -0.036  0.00  0.00    +0.008 A 
ATOM     24  C   UNL     1       0.036  -2.096   1.183  0.00  0.00    -0.025 A 
ATOM     25  C   UNL     1       0.023  -0.698   1.193  0.00  0.00    +0.011 A 
ENDBRANCH  17  24
ENDBRANCH  15  18
ENDBRANCH   1  15
TORSDOF 4
