REMARK  Name = ZINC67122461
REMARK  11 active torsions:
REMARK  status: ('A' for Active; 'I' for Inactive)
REMARK    1  A    between atoms: C_1  and  C_2
REMARK    2  A    between atoms: C_3  and  C_15
REMARK    3  A    between atoms: C_4  and  C_14
REMARK    4  A    between atoms: N_5  and  C_7
REMARK    5  A    between atoms: C_15  and  N_16
REMARK    6  A    between atoms: N_16  and  C_17
REMARK    7  A    between atoms: C_17  and  C_18
REMARK    8  A    between atoms: C_18  and  C_20
REMARK    9  A    between atoms: C_18  and  O_28
REMARK   10  A    between atoms: C_20  and  N_21
REMARK   11  A    between atoms: C_24  and  C_27
REMARK                            x       y       z     vdW  Elec       q    Type
REMARK                         _______ _______ _______ _____ _____    ______ ____
ROOT
ATOM      1  N   UNL     1       1.316   0.016  -2.961  0.00  0.00    +0.383 N 
ATOM      2  H   UNL     1       1.812   0.742  -2.467  0.00  0.00    -0.085 HD
ATOM      3  H   UNL     1       1.775  -0.870  -2.807  0.00  0.00    -0.085 HD
ENDROOT
BRANCH   1   4
ATOM      4  C   UNL     1      -0.066  -0.057  -2.466  0.00  0.00    -0.043 C 
BRANCH   4   7
ATOM      5  C   UNL     1       0.003   2.067  -0.116  0.00  0.00    +0.068 C 
ATOM      6  C   UNL     1      -0.026   0.569   0.047  0.00  0.00    +0.062 A 
ATOM      7  C   UNL     1      -0.056  -0.368  -0.992  0.00  0.00    -0.021 A 
ATOM      8  C   UNL     1      -0.075  -1.603  -0.439  0.00  0.00    +0.043 A 
ATOM      9  N   UNL     1      -0.058  -1.452   0.905  0.00  0.00    -0.237 N 
ATOM     10  N   UNL     1      -0.022  -0.080   1.184  0.00  0.00    -0.171 NA
ATOM     11  C   UNL     1      -0.110  -2.911  -1.186  0.00  0.00    +0.066 C 
BRANCH   9  12
ATOM     12  C   UNL     1      -0.068  -2.486   1.852  0.00  0.00    +0.066 A 
ATOM     13  C   UNL     1       0.721  -3.612   1.660  0.00  0.00    +0.029 A 
ATOM     14  C   UNL     1       0.709  -4.630   2.594  0.00  0.00    +0.022 A 
ATOM     15  C   UNL     1      -0.089  -4.527   3.720  0.00  0.00    +0.041 A 
ATOM     16  C   UNL     1      -0.877  -3.406   3.913  0.00  0.00    +0.022 A 
ATOM     17  C   UNL     1      -0.864  -2.383   2.985  0.00  0.00    +0.029 A 
ATOM     18 CL   UNL     1      -0.104  -5.808   4.891  0.00  0.00    -0.084 Cl
ENDBRANCH   9  12
ENDBRANCH   4   7
ENDBRANCH   1   4
BRANCH   1  19
ATOM     19  C   UNL     1       1.307   0.319  -4.398  0.00  0.00    -0.052 C 
BRANCH  19  20
ATOM     20  C   UNL     1       2.745   0.394  -4.912  0.00  0.00    +0.081 C 
BRANCH  20  21
ATOM     21  O   UNL     1       3.359  -0.891  -4.801  0.00  0.00    -0.395 OA
ATOM     22  H   UNL     1       2.912  -1.585  -5.305  0.00  0.00    +0.210 HD
ENDBRANCH  20  21
BRANCH  20  23
ATOM     23  C   UNL     1       2.740   0.832  -6.379  0.00  0.00    -0.049 C 
BRANCH  23  24
ATOM     24  N   UNL     1       4.122   0.909  -6.871  0.00  0.00    +0.381 N 
ATOM     25  C   UNL     1       4.111   1.175  -8.315  0.00  0.00    -0.078 C 
ATOM     26  C   UNL     1       5.545   1.176  -8.848  0.00  0.00    -0.016 C 
ATOM     27  C   UNL     1       6.349   2.265  -8.133  0.00  0.00    -0.018 C 
ATOM     28  C   UNL     1       6.292   2.020  -6.622  0.00  0.00    -0.016 C 
ATOM     29  C   UNL     1       4.830   1.988  -6.172  0.00  0.00    -0.078 C 
ATOM     30  C   UNL     1       7.804   2.220  -8.604  0.00  0.00    +0.007 C 
ATOM     31  H   UNL     1       4.590   0.032  -6.696  0.00  0.00    -0.082 HD
ENDBRANCH  23  24
ENDBRANCH  20  23
ENDBRANCH  19  20
ENDBRANCH   1  19
TORSDOF 8
