REMARK  Name = ZINC38966179
REMARK  5 active torsions:
REMARK  status: ('A' for Active; 'I' for Inactive)
REMARK    1  A    between atoms: C_1  and  C_2
REMARK    2  A    between atoms: C_5  and  N_9
REMARK    3  A    between atoms: N_9  and  C_10
REMARK    4  A    between atoms: N_13  and  S_14
REMARK    5  A    between atoms: S_14  and  C_17
REMARK                            x       y       z     vdW  Elec       q    Type
REMARK                         _______ _______ _______ _____ _____    ______ ____
ROOT
ATOM      1  C   UNL     1       0.186  -4.908   1.235  0.00  0.00    +0.237 C 
ATOM      2  C   UNL     1       1.358  -5.854   1.098  0.00  0.00    +0.192 C 
ATOM      3  N   UNL     1       2.544  -5.400   0.820  0.00  0.00    -0.110 NA
ATOM      4  N   UNL     1       1.155  -7.171   1.269  0.00  0.00    -0.226 NA
ATOM      5  C   UNL     1      -0.035  -7.655   1.551  0.00  0.00    +0.089 A 
ATOM      6  C   UNL     1      -0.213  -9.051   1.725  0.00  0.00    +0.030 A 
ATOM      7  C   UNL     1      -1.433  -9.554   2.014  0.00  0.00    +0.002 A 
ATOM      8  C   UNL     1      -2.573  -8.746   2.158  0.00  0.00    +0.002 A 
ATOM      9  C   UNL     1      -2.515  -7.404   2.013  0.00  0.00    +0.027 A 
ATOM     10  C   UNL     1      -1.223  -6.778   1.698  0.00  0.00    +0.063 A 
ATOM     11  N   UNL     1      -1.129  -5.486   1.551  0.00  0.00    -0.359 N 
ATOM     12  H   UNL     1      -1.910  -4.919   1.649  0.00  0.00    +0.162 HD
ENDROOT
BRANCH   3  13
ATOM     13  S   UNL     1       3.818  -6.447   0.673  0.00  0.00    +0.100 S 
ATOM     14  O   UNL     1       4.035  -7.007   1.961  0.00  0.00    -0.146 OA
ATOM     15  O   UNL     1       3.557  -7.247  -0.472  0.00  0.00    -0.146 OA
BRANCH  13  16
ATOM     16  C   UNL     1       5.244  -5.482   0.297  0.00  0.00    +0.113 A 
ATOM     17  C   UNL     1       5.571  -5.215  -1.019  0.00  0.00    +0.029 A 
ATOM     18  C   UNL     1       6.689  -4.458  -1.314  0.00  0.00    +0.002 A 
ATOM     19  C   UNL     1       7.481  -3.969  -0.293  0.00  0.00    +0.000 A 
ATOM     20  C   UNL     1       7.155  -4.235   1.024  0.00  0.00    +0.002 A 
ATOM     21  C   UNL     1       6.034  -4.989   1.319  0.00  0.00    +0.029 A 
ENDBRANCH  13  16
ENDBRANCH   3  13
BRANCH   1  22
ATOM     22  N   UNL     1       0.059  -4.169  -0.023  0.00  0.00    -0.318 N 
ATOM     23  H   UNL     1       0.025  -4.648  -0.866  0.00  0.00    +0.148 HD
BRANCH  22  28
ATOM     24  C   UNL     1      -0.228   1.496   0.038  0.00  0.00    +0.047 C 
ATOM     25  C   UNL     1      -0.151  -0.009   0.021  0.00  0.00    -0.015 A 
ATOM     26  C   UNL     1      -0.201  -0.716   1.208  0.00  0.00    +0.008 A 
ATOM     27  C   UNL     1      -0.131  -2.095   1.197  0.00  0.00    +0.023 A 
ATOM     28  C   UNL     1      -0.011  -2.774  -0.009  0.00  0.00    +0.032 A 
ATOM     29  C   UNL     1       0.038  -2.063  -1.201  0.00  0.00    +0.061 A 
ATOM     30  C   UNL     1      -0.037  -0.682  -1.184  0.00  0.00    +0.128 A 
ATOM     31  F   UNL     1       0.005   0.011  -2.343  0.00  0.00    -0.205 F 
ENDBRANCH  22  28
ENDBRANCH   1  22
TORSDOF 4
