REMARK  Name = ZINC16588678
REMARK  15 active torsions:
REMARK  status: ('A' for Active; 'I' for Inactive)
REMARK    1  A    between atoms: C_1  and  C_2
REMARK    2  A    between atoms: C_2  and  N_59
REMARK    3  A    between atoms: C_3  and  C_4
REMARK    4  A    between atoms: C_3  and  N_59
REMARK    5  A    between atoms: N_6  and  C_7
REMARK    6  A    between atoms: C_12  and  C_13
REMARK    7  A    between atoms: C_17  and  C_18
REMARK    8  A    between atoms: C_17  and  N_59
REMARK    9  A    between atoms: N_20  and  C_21
REMARK   10  A    between atoms: C_22  and  C_28
REMARK   11  A    between atoms: C_23  and  C_27
REMARK   12  A    between atoms: C_24  and  C_26
REMARK   13  A    between atoms: C_28  and  O_30
REMARK   14  A    between atoms: O_30  and  C_31
REMARK   15  A    between atoms: C_31  and  C_32
REMARK                            x       y       z     vdW  Elec       q    Type
REMARK                         _______ _______ _______ _____ _____    ______ ____
ROOT
ATOM      1  N   UNL     1      -1.437  -3.736   5.764  0.00  0.00    +0.391 N 
ATOM      2  H   UNL     1      -2.222  -4.322   5.457  0.00  0.00    -0.080 HD
ENDROOT
BRANCH   1   4
ATOM      3  C   UNL     1      -3.179  -2.828   7.219  0.00  0.00    -0.017 C 
ATOM      4  C   UNL     1      -1.710  -3.246   7.132  0.00  0.00    -0.081 C 
ENDBRANCH   1   4
BRANCH   1   5
ATOM      5  C   UNL     1      -0.201  -4.545   5.754  0.00  0.00    +0.020 C 
BRANCH   5   6
ATOM      6  C   UNL     1      -0.445  -5.814   6.530  0.00  0.00    +0.201 C 
ATOM      7  O   UNL     1      -1.524  -6.011   7.048  0.00  0.00    -0.278 OA
ATOM      8  N   UNL     1       0.537  -6.730   6.650  0.00  0.00    -0.287 N 
ATOM      9  H   UNL     1       1.379  -6.602   6.186  0.00  0.00    +0.155 HD
BRANCH   8  10
ATOM     10  C   UNL     1       0.340  -7.867   7.442  0.00  0.00    +0.045 A 
ATOM     11  C   UNL     1      -0.916  -8.453   7.518  0.00  0.00    +0.024 A 
ATOM     12  C   UNL     1      -1.106  -9.578   8.297  0.00  0.00    +0.002 A 
ATOM     13  C   UNL     1      -0.048 -10.114   9.009  0.00  0.00    +0.001 A 
ATOM     14  C   UNL     1       1.203  -9.529   8.939  0.00  0.00    +0.014 A 
ATOM     15  C   UNL     1       1.400  -8.407   8.158  0.00  0.00    +0.076 A 
BRANCH  15  16
ATOM     16  C   UNL     1       2.764  -7.770   8.084  0.00  0.00    +0.419 C 
ATOM     17  F   UNL     1       3.659  -8.488   8.884  0.00  0.00    -0.166 F 
ATOM     18  F   UNL     1       3.212  -7.781   6.758  0.00  0.00    -0.166 F 
ATOM     19  F   UNL     1       2.687  -6.449   8.539  0.00  0.00    -0.166 F 
ENDBRANCH  15  16
ENDBRANCH   8  10
ENDBRANCH   5   6
ENDBRANCH   1   5
BRANCH   1  20
ATOM     20  C   UNL     1      -1.300  -2.593   4.837  0.00  0.00    +0.020 C 
BRANCH  20  21
ATOM     21  C   UNL     1      -1.488  -3.090   3.427  0.00  0.00    +0.201 C 
ATOM     22  O   UNL     1      -1.612  -4.278   3.214  0.00  0.00    -0.278 OA
ATOM     23  N   UNL     1      -1.518  -2.215   2.402  0.00  0.00    -0.281 N 
ATOM     24  H   UNL     1      -1.419  -1.266   2.572  0.00  0.00    +0.155 HD
BRANCH  23  25
ATOM     25  C   UNL     1      -1.691  -2.673   1.105  0.00  0.00    +0.086 A 
ATOM     26  C   UNL     1      -1.748  -1.933  -0.072  0.00  0.00    +0.091 A 
ATOM     27  C   UNL     1      -1.931  -2.676  -1.296  0.00  0.00    -0.025 A 
ATOM     28  C   UNL     1      -2.036  -4.013  -1.194  0.00  0.00    -0.008 A 
ATOM     29  S   UNL     1      -1.890  -4.303   0.557  0.00  0.00    -0.078 S 
ATOM     30  C   UNL     1      -2.231  -5.022  -2.296  0.00  0.00    +0.052 C 
ATOM     31  C   UNL     1      -2.003  -1.982  -2.632  0.00  0.00    +0.045 C 
BRANCH  26  32
ATOM     32  C   UNL     1      -1.623  -0.474  -0.069  0.00  0.00    +0.342 C 
ATOM     33  O   UNL     1      -2.616   0.221   0.034  0.00  0.00    -0.245 OA
BRANCH  32  34
ATOM     34  O   UNL     1      -0.407   0.099  -0.181  0.00  0.00    -0.461 OA
BRANCH  34  35
ATOM     35  C   UNL     1      -0.358   1.550  -0.172  0.00  0.00    +0.229 C 
ATOM     36  C   UNL     1       1.094   2.012  -0.307  0.00  0.00    +0.048 C 
ENDBRANCH  34  35
ENDBRANCH  32  34
ENDBRANCH  26  32
ENDBRANCH  23  25
ENDBRANCH  20  21
ENDBRANCH   1  20
TORSDOF 11
