REMARK  Name = ZINC45168426
REMARK  12 active torsions:
REMARK  status: ('A' for Active; 'I' for Inactive)
REMARK    1  A    between atoms: C_1  and  C_2
REMARK    2  A    between atoms: C_2  and  C_3
REMARK    3  A    between atoms: C_3  and  C_4
REMARK    4  A    between atoms: C_4  and  C_5
REMARK    5  A    between atoms: C_5  and  C_7
REMARK    6  A    between atoms: C_5  and  O_38
REMARK    7  A    between atoms: C_9  and  O_37
REMARK    8  A    between atoms: C_14  and  C_35
REMARK    9  A    between atoms: C_14  and  C_36
REMARK   10  A    between atoms: C_16  and  C_18
REMARK   11  A    between atoms: N_21  and  C_24
REMARK   12  A    between atoms: C_24  and  C_25
REMARK                            x       y       z     vdW  Elec       q    Type
REMARK                         _______ _______ _______ _____ _____    ______ ____
ROOT
ATOM      1  C   UNL     1      -2.831  -4.094  -0.117  0.00  0.00    -0.012 A 
ATOM      2  C   UNL     1      -2.677  -4.885   1.006  0.00  0.00    +0.052 A 
ATOM      3  C   UNL     1      -2.659  -6.265   0.883  0.00  0.00    +0.124 A 
ATOM      4  C   UNL     1      -2.797  -6.857  -0.367  0.00  0.00    +0.043 A 
ATOM      5  C   UNL     1      -2.954  -6.065  -1.489  0.00  0.00    +0.129 A 
ATOM      6  C   UNL     1      -2.974  -4.679  -1.358  0.00  0.00    +0.052 A 
ATOM      7  O   UNL     1      -3.103  -6.601  -2.728  0.00  0.00    -0.486 OA
ATOM      8  C   UNL     1      -2.725  -7.965  -2.916  0.00  0.00    +0.106 C 
ATOM      9  C   UNL     1      -3.366  -8.803  -1.803  0.00  0.00    +0.060 C 
ATOM     10  C   UNL     1      -2.768  -8.361  -0.464  0.00  0.00    +0.055 C 
ATOM     11  C   UNL     1      -1.202  -8.092  -2.844  0.00  0.00    +0.055 C 
ATOM     12  C   UNL     1      -3.220  -8.454  -4.279  0.00  0.00    +0.055 C 
ENDROOT
BRANCH  10  13
ATOM     13  C   UNL     1      -3.573  -8.953   0.664  0.00  0.00    -0.069 C 
ATOM     14  C   UNL     1      -2.978  -9.738   1.510  0.00  0.00    -0.046 C 
ATOM     15  C   UNL     1      -3.684 -10.386   2.666  0.00  0.00    -0.051 C 
ATOM     16  N   UNL     1      -4.947  -9.694   2.948  0.00  0.00    +0.385 N 
ATOM     17  C   UNL     1      -5.729  -9.600   1.704  0.00  0.00    -0.074 C 
ATOM     18  C   UNL     1      -5.033  -8.605   0.770  0.00  0.00    +0.012 C 
ATOM     19  H   UNL     1      -4.754  -8.767   3.296  0.00  0.00    -0.081 HD
BRANCH  16  20
ATOM     20  C   UNL     1      -5.709 -10.450   3.951  0.00  0.00    -0.043 C 
BRANCH  20  21
ATOM     21  C   UNL     1      -4.956 -10.452   5.257  0.00  0.00    -0.063 A 
ATOM     22  C   UNL     1      -4.037 -11.467   5.518  0.00  0.00    +0.002 A 
ATOM     23  C   UNL     1      -3.341 -11.498   6.687  0.00  0.00    +0.009 A 
ATOM     24  C   UNL     1      -3.549 -10.494   7.647  0.00  0.00    -0.018 A 
ATOM     25  C   UNL     1      -2.849 -10.492   8.866  0.00  0.00    +0.008 A 
ATOM     26  C   UNL     1      -3.077  -9.503   9.772  0.00  0.00    +0.001 A 
ATOM     27  C   UNL     1      -3.996  -8.489   9.511  0.00  0.00    +0.001 A 
ATOM     28  C   UNL     1      -4.693  -8.457   8.343  0.00  0.00    +0.008 A 
ATOM     29  C   UNL     1      -4.484  -9.462   7.382  0.00  0.00    -0.018 A 
ATOM     30  C   UNL     1      -5.180  -9.460   6.161  0.00  0.00    +0.010 A 
ENDBRANCH  20  21
ENDBRANCH  16  20
ENDBRANCH  10  13
BRANCH   3  31
ATOM     31  O   UNL     1      -2.507  -7.042   1.987  0.00  0.00    -0.506 OA
ATOM     32  H   UNL     1      -3.339  -7.288   2.414  0.00  0.00    +0.292 HD
ENDBRANCH   3  31
BRANCH   1  33
ATOM     33  C   UNL     1      -2.848  -2.593   0.015  0.00  0.00    +0.145 C 
BRANCH  33  34
ATOM     34  O   UNL     1      -3.480  -2.230   1.244  0.00  0.00    -0.387 OA
ATOM     35  H   UNL     1      -3.041  -2.581   2.031  0.00  0.00    +0.210 HD
ENDBRANCH  33  34
BRANCH  33  36
ATOM     36  C   UNL     1      -1.413  -2.063   0.004  0.00  0.00    +0.036 C 
BRANCH  36  37
ATOM     37  C   UNL     1      -1.433  -0.534   0.013  0.00  0.00    +0.003 C 
BRANCH  37  39
ATOM     38  C   UNL     1      -0.019   1.526   0.010  0.00  0.00    +0.004 C 
ATOM     39  C   UNL     1       0.002  -0.004   0.002  0.00  0.00    -0.003 C 
ENDBRANCH  37  39
ENDBRANCH  36  37
ENDBRANCH  33  36
ENDBRANCH   1  33
TORSDOF 9
