REMARK  Name = ZINC14732737
REMARK  8 active torsions:
REMARK  status: ('A' for Active; 'I' for Inactive)
REMARK    1  A    between atoms: C_1  and  C_2
REMARK    2  A    between atoms: C_2  and  C_4
REMARK    3  A    between atoms: C_2  and  N_65
REMARK    4  A    between atoms: C_4  and  C_5
REMARK    5  A    between atoms: C_5  and  C_6
REMARK    6  A    between atoms: N_23  and  C_28
REMARK    7  A    between atoms: N_26  and  C_27
REMARK    8  A    between atoms: C_28  and  C_29
REMARK                            x       y       z     vdW  Elec       q    Type
REMARK                         _______ _______ _______ _____ _____    ______ ____
ROOT
ATOM      1  C   UNL     1      -2.233   0.364  -0.912  0.00  0.00    -0.076 C 
ATOM      2  C   UNL     1      -1.664   1.781  -1.033  0.00  0.00    +0.017 C 
ATOM      3  C   UNL     1      -1.019   2.181   0.290  0.00  0.00    +0.112 C 
ATOM      4  C   UNL     1      -2.025   2.064   1.431  0.00  0.00    +0.017 C 
ATOM      5  C   UNL     1      -2.582   0.638   1.472  0.00  0.00    -0.076 C 
ATOM      6  C   UNL     1      -0.473   3.587   0.212  0.00  0.00    +0.247 C 
ATOM      7  O   UNL     1      -1.097   4.607   0.006  0.00  0.00    -0.273 OA
ATOM      8  N   UNL     1       0.856   3.469   0.413  0.00  0.00    -0.220 N 
ATOM      9  C   UNL     1       1.213   2.194   0.610  0.00  0.00    +0.312 C 
ATOM     10  O   UNL     1       2.357   1.836   0.812  0.00  0.00    -0.252 OA
ATOM     11  N   UNL     1       0.163   1.353   0.559  0.00  0.00    -0.274 N 
ATOM     12  C   UNL     1       0.194  -0.102   0.730  0.00  0.00    +0.134 C 
ATOM     13  N   UNL     1      -3.233   0.342   0.177  0.00  0.00    +0.382 N 
ATOM     14  H   UNL     1      -3.944   1.059  -0.009  0.00  0.00    -0.081 HD
ENDROOT
BRANCH  13  16
ATOM     15  C   UNL     1      -2.857  -2.082   0.490  0.00  0.00    -0.013 C 
ATOM     16  C   UNL     1      -3.888  -0.981   0.233  0.00  0.00    -0.071 C 
BRANCH  16  17
ATOM     17  C   UNL     1      -4.591  -1.242  -1.100  0.00  0.00    -0.011 C 
BRANCH  17  18
ATOM     18  C   UNL     1      -5.655  -0.168  -1.334  0.00  0.00    +0.036 C 
BRANCH  18  19
ATOM     19  C   UNL     1      -6.268  -0.356  -2.698  0.00  0.00    -0.022 A 
ATOM     20  C   UNL     1      -5.903   0.264  -3.831  0.00  0.00    +0.087 A 
ATOM     21  N   UNL     1      -6.685  -0.161  -4.869  0.00  0.00    -0.360 N 
ATOM     22  H   UNL     1      -6.609   0.146  -5.786  0.00  0.00    +0.165 HD
ATOM     23  C   UNL     1      -7.597  -1.089  -4.419  0.00  0.00    +0.047 A 
ATOM     24  C   UNL     1      -7.372  -1.257  -3.040  0.00  0.00    +0.003 A 
ATOM     25  C   UNL     1      -8.156  -2.152  -2.311  0.00  0.00    +0.010 A 
ATOM     26  C   UNL     1      -9.136  -2.866  -2.941  0.00  0.00    +0.001 A 
ATOM     27  C   UNL     1      -9.360  -2.707  -4.301  0.00  0.00    +0.002 A 
ATOM     28  C   UNL     1      -8.603  -1.822  -5.039  0.00  0.00    +0.026 A 
ENDBRANCH  18  19
ENDBRANCH  17  18
ENDBRANCH  16  17
ENDBRANCH  13  16
BRANCH   8  29
ATOM     29  C   UNL     1       1.792   4.596   0.415  0.00  0.00    +0.153 C 
BRANCH  29  30
ATOM     30  C   UNL     1       2.310   4.821  -0.983  0.00  0.00    -0.030 A 
ATOM     31  C   UNL     1       3.457   4.176  -1.407  0.00  0.00    +0.005 A 
ATOM     32  C   UNL     1       3.929   4.379  -2.690  0.00  0.00    +0.000 A 
ATOM     33  C   UNL     1       3.261   5.235  -3.546  0.00  0.00    +0.000 A 
ATOM     34  C   UNL     1       2.117   5.884  -3.119  0.00  0.00    +0.000 A 
ATOM     35  C   UNL     1       1.642   5.677  -1.838  0.00  0.00    +0.005 A 
ENDBRANCH  29  30
ENDBRANCH   8  29
TORSDOF 6
