REMARK  Name = ZINC35888604
REMARK  15 active torsions:
REMARK  status: ('A' for Active; 'I' for Inactive)
REMARK    1  A    between atoms: C_1  and  C_2
REMARK    2  A    between atoms: C_7  and  O_8
REMARK    3  A    between atoms: O_8  and  C_9
REMARK    4  A    between atoms: C_9  and  C_10
REMARK    5  A    between atoms: C_10  and  C_12
REMARK    6  A    between atoms: C_10  and  O_40
REMARK    7  A    between atoms: C_12  and  N_13
REMARK    8  A    between atoms: C_15  and  C_26
REMARK    9  A    between atoms: C_17  and  C_20
REMARK   10  A    between atoms: C_26  and  N_27
REMARK   11  A    between atoms: N_27  and  C_28
REMARK   12  A    between atoms: C_28  and  C_29
REMARK   13  A    between atoms: C_29  and  C_30
REMARK   14  A    between atoms: C_29  and  C_31
REMARK   15  A    between atoms: C_32  and  C_34
REMARK                            x       y       z     vdW  Elec       q    Type
REMARK                         _______ _______ _______ _____ _____    ______ ____
ROOT
ATOM      1  N   UNL     1      -5.110   0.219   7.063  0.00  0.00    +0.382 N 
ATOM      2  C   UNL     1      -3.920  -0.457   7.639  0.00  0.00    -0.073 C 
ATOM      3  C   UNL     1      -3.968  -0.115   9.144  0.00  0.00    -0.005 C 
ATOM      4  C   UNL     1      -5.450   0.200   9.435  0.00  0.00    +0.005 C 
ATOM      5  C   UNL     1      -6.172   0.021   8.082  0.00  0.00    -0.070 C 
ATOM      6  H   UNL     1      -4.929   1.202   6.928  0.00  0.00    -0.082 HD
ENDROOT
BRANCH   4   7
ATOM      7  C   UNL     1      -5.999  -0.764  10.455  0.00  0.00    -0.046 A 
ATOM      8  C   UNL     1      -6.269  -0.332  11.740  0.00  0.00    +0.004 A 
ATOM      9  C   UNL     1      -6.772  -1.216  12.676  0.00  0.00    +0.000 A 
ATOM     10  C   UNL     1      -7.006  -2.533  12.326  0.00  0.00    +0.000 A 
ATOM     11  C   UNL     1      -6.737  -2.965  11.041  0.00  0.00    +0.000 A 
ATOM     12  C   UNL     1      -6.237  -2.080  10.105  0.00  0.00    +0.004 A 
ENDBRANCH   4   7
BRANCH   1  13
ATOM     13  C   UNL     1      -5.494  -0.411   5.792  0.00  0.00    -0.044 C 
BRANCH  13  14
ATOM     14  C   UNL     1      -6.702   0.321   5.204  0.00  0.00    +0.135 C 
BRANCH  14  15
ATOM     15  O   UNL     1      -6.330   1.658   4.866  0.00  0.00    -0.390 OA
ATOM     16  H   UNL     1      -5.617   1.716   4.215  0.00  0.00    +0.210 HD
ENDBRANCH  14  15
BRANCH  14  17
ATOM     17  C   UNL     1      -7.179  -0.410   3.947  0.00  0.00    +0.258 C 
BRANCH  17  18
ATOM     18  O   UNL     1      -8.375   0.205   3.465  0.00  0.00    -0.489 OA
BRANCH  18  25
ATOM     19  C   UNL     1     -10.741   1.404   2.493  0.00  0.00    +0.047 C 
ATOM     20  C   UNL     1     -10.096   0.219   1.822  0.00  0.00    -0.009 A 
ATOM     21  C   UNL     1     -10.658  -0.320   0.681  0.00  0.00    +0.007 A 
ATOM     22  C   UNL     1     -10.067  -1.407   0.064  0.00  0.00    +0.000 A 
ATOM     23  C   UNL     1      -8.911  -1.957   0.588  0.00  0.00    +0.004 A 
ATOM     24  C   UNL     1      -8.345  -1.422   1.728  0.00  0.00    +0.046 A 
ATOM     25  C   UNL     1      -8.934  -0.328   2.346  0.00  0.00    +0.124 A 
ENDBRANCH  18  25
ENDBRANCH  17  18
ENDBRANCH  14  17
ENDBRANCH  13  14
ENDBRANCH   1  13
BRANCH   3  26
ATOM     26  C   UNL     1      -3.503  -1.311   9.976  0.00  0.00    +0.110 C 
BRANCH  26  27
ATOM     27  N   UNL     1      -2.072  -1.534   9.753  0.00  0.00    -0.297 N 
ATOM     28  C   UNL     1      -1.665  -2.352   8.763  0.00  0.00    +0.247 C 
ATOM     29  O   UNL     1      -2.481  -2.987   8.124  0.00  0.00    -0.270 OA
BRANCH  28  30
ATOM     30  C   UNL     1      -0.224  -2.477   8.453  0.00  0.00    +0.037 A 
ATOM     31  C   UNL     1       0.699  -2.681   9.480  0.00  0.00    +0.013 A 
ATOM     32  C   UNL     1       2.041  -2.797   9.184  0.00  0.00    +0.001 A 
ATOM     33  C   UNL     1       2.473  -2.711   7.872  0.00  0.00    +0.000 A 
ATOM     34  C   UNL     1       1.564  -2.508   6.850  0.00  0.00    +0.001 A 
ATOM     35  C   UNL     1       0.218  -2.397   7.131  0.00  0.00    +0.013 A 
ENDBRANCH  28  30
BRANCH  27  36
ATOM     36  C   UNL     1      -1.085  -0.868  10.606  0.00  0.00    +0.111 C 
BRANCH  36  37
ATOM     37  C   UNL     1      -1.485  -1.033  12.074  0.00  0.00    +0.000 C 
ATOM     38  C   UNL     1      -1.490  -2.520  12.437  0.00  0.00    +0.009 C 
ATOM     39  C   UNL     1      -0.483  -0.294  12.962  0.00  0.00    +0.009 C 
ENDBRANCH  36  37
ENDBRANCH  27  36
ENDBRANCH  26  27
ENDBRANCH   3  26
TORSDOF 12
