REMARK  Name = ZINC09295388
REMARK  9 active torsions:
REMARK  status: ('A' for Active; 'I' for Inactive)
REMARK    1  A    between atoms: C_1  and  C_2
REMARK    2  A    between atoms: C_5  and  C_8
REMARK    3  A    between atoms: C_10  and  C_27
REMARK    4  A    between atoms: C_16  and  C_19
REMARK    5  A    between atoms: C_19  and  O_20
REMARK    6  A    between atoms: O_20  and  C_21
REMARK    7  A    between atoms: N_29  and  C_30
REMARK    8  A    between atoms: C_33  and  C_37
REMARK    9  A    between atoms: C_35  and  C_36
REMARK                            x       y       z     vdW  Elec       q    Type
REMARK                         _______ _______ _______ _____ _____    ______ ____
ROOT
ATOM      1  C   UNL     1      -1.310  -0.780   0.013  0.00  0.00    +0.140 C 
ATOM      2  C   UNL     1      -1.610  -1.246   1.444  0.00  0.00    +0.166 C 
ATOM      3  S   UNL     1      -3.328  -1.842   1.487  0.00  0.00    -0.069 S 
ATOM      4  C   UNL     1      -3.296  -2.781  -0.007  0.00  0.00    +0.209 A 
ATOM      5  N   UNL     1      -4.172  -3.648  -0.433  0.00  0.00    -0.121 NA
ATOM      6  N   UNL     1      -3.798  -4.111  -1.576  0.00  0.00    -0.128 NA
ATOM      7  C   UNL     1      -2.666  -3.567  -1.932  0.00  0.00    +0.189 A 
ATOM      8  N   UNL     1      -2.300  -2.703  -0.940  0.00  0.00    -0.222 N 
ATOM      9  N   UNL     1      -1.185  -1.931  -0.883  0.00  0.00    -0.272 N 
ATOM     10  H   UNL     1      -0.898  -1.640  -1.806  0.00  0.00    +0.167 HD
ENDROOT
BRANCH   1  15
ATOM     11  C   UNL     1       3.631   2.216  -0.024  0.00  0.00    +0.044 C 
ATOM     12  C   UNL     1       2.342   1.435  -0.014  0.00  0.00    -0.050 A 
ATOM     13  C   UNL     1       1.131   2.100   0.005  0.00  0.00    +0.004 A 
ATOM     14  C   UNL     1      -0.051   1.383   0.013  0.00  0.00    +0.006 A 
ATOM     15  C   UNL     1      -0.021   0.001   0.004  0.00  0.00    -0.024 A 
ATOM     16  C   UNL     1       1.190  -0.664  -0.013  0.00  0.00    +0.006 A 
ATOM     17  C   UNL     1       2.372   0.053  -0.022  0.00  0.00    +0.004 A 
ENDBRANCH   1  15
BRANCH   2  18
ATOM     18  C   UNL     1      -0.673  -2.362   1.825  0.00  0.00    +0.233 C 
ATOM     19  O   UNL     1      -0.245  -3.112   0.973  0.00  0.00    -0.274 OA
ATOM     20  N   UNL     1      -0.309  -2.527   3.112  0.00  0.00    -0.284 N 
ATOM     21  H   UNL     1      -0.586  -1.881   3.781  0.00  0.00    +0.155 HD
BRANCH  20  22
ATOM     22  C   UNL     1       0.467  -3.631   3.484  0.00  0.00    +0.036 A 
ATOM     23  C   UNL     1       0.443  -4.789   2.718  0.00  0.00    +0.024 A 
ATOM     24  C   UNL     1       1.214  -5.874   3.084  0.00  0.00    +0.005 A 
ATOM     25  C   UNL     1       2.003  -5.812   4.219  0.00  0.00    -0.050 A 
ATOM     26  C   UNL     1       2.025  -4.663   4.987  0.00  0.00    +0.008 A 
ATOM     27  C   UNL     1       1.259  -3.572   4.623  0.00  0.00    -0.029 A 
ATOM     28  C   UNL     1       1.284  -2.320   5.461  0.00  0.00    +0.045 C 
ATOM     29  C   UNL     1       2.839  -7.000   4.619  0.00  0.00    +0.044 C 
ENDBRANCH  20  22
ENDBRANCH   2  18
BRANCH   7  30
ATOM     30  C   UNL     1      -1.904  -3.842  -3.203  0.00  0.00    +0.306 C 
BRANCH  30  31
ATOM     31  O   UNL     1      -0.992  -4.920  -2.988  0.00  0.00    -0.484 OA
BRANCH  31  32
ATOM     32  C   UNL     1      -0.222  -5.297  -4.042  0.00  0.00    +0.121 A 
ATOM     33  C   UNL     1      -0.346  -4.646  -5.261  0.00  0.00    +0.045 A 
ATOM     34  C   UNL     1       0.442  -5.026  -6.330  0.00  0.00    +0.004 A 
ATOM     35  C   UNL     1       1.345  -6.064  -6.189  0.00  0.00    +0.000 A 
ATOM     36  C   UNL     1       1.467  -6.718  -4.978  0.00  0.00    +0.004 A 
ATOM     37  C   UNL     1       0.685  -6.337  -3.904  0.00  0.00    +0.045 A 
ENDBRANCH  31  32
ENDBRANCH  30  31
ENDBRANCH   7  30
TORSDOF 6
