REMARK  Name = ZINC19805280
REMARK  12 active torsions:
REMARK  status: ('A' for Active; 'I' for Inactive)
REMARK    1  A    between atoms: C_1  and  C_2
REMARK    2  A    between atoms: C_3  and  C_29
REMARK    3  A    between atoms: C_4  and  C_16
REMARK    4  A    between atoms: C_10  and  C_14
REMARK    5  A    between atoms: C_10  and  C_15
REMARK    6  A    between atoms: C_18  and  O_27
REMARK    7  A    between atoms: C_19  and  O_25
REMARK    8  A    between atoms: C_21  and  N_22
REMARK    9  A    between atoms: O_25  and  C_26
REMARK   10  A    between atoms: O_27  and  C_28
REMARK   11  A    between atoms: C_29  and  O_31
REMARK   12  A    between atoms: O_31  and  C_32
REMARK                            x       y       z     vdW  Elec       q    Type
REMARK                         _______ _______ _______ _____ _____    ______ ____
ROOT
ATOM      1  C   UNL     1      -2.957  -3.040  -2.603  0.00  0.00    +0.061 C 
ATOM      2  C   UNL     1      -3.515  -1.696  -2.212  0.00  0.00    +0.016 C 
ATOM      3  C   UNL     1      -4.282  -1.585  -1.113  0.00  0.00    +0.065 C 
ATOM      4  C   UNL     1      -4.848  -0.262  -0.690  0.00  0.00    +0.095 C 
ATOM      5  C   UNL     1      -4.816   0.729  -1.826  0.00  0.00    +0.024 C 
ATOM      6  C   UNL     1      -4.021   0.523  -2.897  0.00  0.00    +0.016 C 
ATOM      7  N   UNL     1      -3.239  -0.598  -2.978  0.00  0.00    -0.321 N 
ATOM      8  C   UNL     1      -3.974   1.516  -4.032  0.00  0.00    +0.058 C 
ATOM      9  C   UNL     1      -5.333   2.206  -4.168  0.00  0.00    -0.023 C 
ATOM     10  C   UNL     1      -5.665   2.893  -2.839  0.00  0.00    +0.086 C 
ATOM     11  C   UNL     1      -5.635   1.868  -1.738  0.00  0.00    +0.162 C 
ATOM     12  O   UNL     1      -6.331   2.028  -0.755  0.00  0.00    -0.292 OA
ATOM     13  C   UNL     1      -6.408   1.166  -4.492  0.00  0.00    +0.011 C 
ATOM     14  C   UNL     1      -5.275   3.249  -5.286  0.00  0.00    +0.011 C 
ATOM     15  H   UNL     1      -2.382  -0.610  -3.667  0.00  0.00    +0.152 HD
ENDROOT
BRANCH   4  16
ATOM     16  C   UNL     1      -4.038   0.277   0.461  0.00  0.00    -0.001 A 
ATOM     17  C   UNL     1      -2.670   0.428   0.330  0.00  0.00    +0.056 A 
ATOM     18  C   UNL     1      -1.923   0.920   1.388  0.00  0.00    +0.162 A 
ATOM     19  C   UNL     1      -2.554   1.270   2.578  0.00  0.00    +0.164 A 
ATOM     20  C   UNL     1      -3.926   1.121   2.701  0.00  0.00    +0.082 A 
ATOM     21  C   UNL     1      -4.665   0.625   1.642  0.00  0.00    +0.134 A 
BRANCH  21  22
ATOM     22  N   UNL     1      -6.131   0.467   1.775  0.00  0.00    +0.057 N 
ATOM     23  O   UNL     1      -6.787   1.325   2.337  0.00  0.00    -0.126 OA
ATOM     24  O   UNL     1      -6.680  -0.521   1.322  0.00  0.00    -0.126 OA
ENDBRANCH  21  22
BRANCH  19  25
ATOM     25  O   UNL     1      -1.826   1.757   3.618  0.00  0.00    -0.491 OA
ATOM     26  C   UNL     1      -2.541   2.096   4.808  0.00  0.00    +0.277 C 
ENDBRANCH  19  25
BRANCH  18  27
ATOM     27  O   UNL     1      -0.577   1.065   1.263  0.00  0.00    -0.491 OA
ATOM     28  C   UNL     1       0.003   0.685   0.013  0.00  0.00    +0.277 C 
ENDBRANCH  18  27
ENDBRANCH   4  16
BRANCH   3  29
ATOM     29  C   UNL     1      -4.559  -2.738  -0.342  0.00  0.00    +0.338 C 
ATOM     30  O   UNL     1      -4.106  -3.817  -0.675  0.00  0.00    -0.245 OA
BRANCH  29  31
ATOM     31  O   UNL     1      -5.327  -2.641   0.764  0.00  0.00    -0.458 OA
BRANCH  31  32
ATOM     32  C   UNL     1      -5.566  -3.845   1.495  0.00  0.00    +0.177 C 
ATOM     33  C   UNL     1      -6.876  -4.504   1.014  0.00  0.00    +0.044 C 
ATOM     34  C   UNL     1      -7.505  -5.085   2.305  0.00  0.00    +0.004 C 
ATOM     35  C   UNL     1      -7.176  -4.002   3.363  0.00  0.00    +0.004 C 
ATOM     36  C   UNL     1      -5.757  -3.526   2.988  0.00  0.00    +0.044 C 
ENDBRANCH  31  32
ENDBRANCH  29  31
ENDBRANCH   3  29
TORSDOF 7
