REMARK  Name = ZINC09076604
REMARK  9 active torsions:
REMARK  status: ('A' for Active; 'I' for Inactive)
REMARK    1  A    between atoms: C_1  and  C_2
REMARK    2  A    between atoms: C_2  and  C_3
REMARK    3  A    between atoms: C_3  and  C_4
REMARK    4  A    between atoms: C_4  and  C_5
REMARK    5  A    between atoms: C_14  and  S_18
REMARK    6  A    between atoms: S_18  and  C_19
REMARK    7  A    between atoms: C_19  and  C_20
REMARK    8  A    between atoms: N_22  and  C_23
REMARK    9  A    between atoms: C_26  and  C_29
REMARK                            x       y       z     vdW  Elec       q    Type
REMARK                         _______ _______ _______ _____ _____    ______ ____
ROOT
ATOM      1  C   UNL     1       8.526 -13.433  -1.355  0.00  0.00    +0.046 A 
ATOM      2  C   UNL     1       9.356 -12.320  -1.320  0.00  0.00    -0.022 A 
ATOM      3  C   UNL     1       8.812 -11.064  -1.188  0.00  0.00    -0.031 A 
ATOM      4  C   UNL     1       7.409 -10.924  -1.088  0.00  0.00    +0.037 A 
ATOM      5  C   UNL     1       6.636  -9.677  -0.940  0.00  0.00    +0.093 A 
ATOM      6  C   UNL     1       5.254  -9.823  -0.860  0.00  0.00    +0.085 A 
ATOM      7  C   UNL     1       4.417  -8.704  -0.726  0.00  0.00    +0.179 A 
ATOM      8  N   UNL     1       3.118  -8.511  -0.640  0.00  0.00    -0.127 NA
ATOM      9  N   UNL     1       2.870  -7.253  -0.525  0.00  0.00    -0.122 NA
ATOM     10  C   UNL     1       3.989  -6.564  -0.530  0.00  0.00    +0.198 A 
ATOM     11  N   UNL     1       5.012  -7.455  -0.663  0.00  0.00    -0.260 N 
ATOM     12  C   UNL     1       6.370  -7.361  -0.736  0.00  0.00    +0.208 A 
ATOM     13  N   UNL     1       7.131  -8.400  -0.866  0.00  0.00    -0.235 NA
ATOM     14  S   UNL     1       4.974 -11.569  -0.982  0.00  0.00    -0.063 S 
ATOM     15  C   UNL     1       6.659 -12.115  -1.120  0.00  0.00    +0.111 A 
ATOM     16  N   UNL     1       7.219 -13.298  -1.244  0.00  0.00    -0.244 NA
ATOM     17  C   UNL     1       9.904 -10.021  -1.177  0.00  0.00    +0.036 C 
ATOM     18  C   UNL     1      11.147 -10.736  -1.750  0.00  0.00    +0.009 C 
ATOM     19  C   UNL     1      10.864 -12.215  -1.407  0.00  0.00    +0.037 C 
ENDROOT
BRANCH   1  20
ATOM     20  C   UNL     1       9.126 -14.809  -1.498  0.00  0.00    +0.056 C 
BRANCH  20  21
ATOM     21  C   UNL     1       9.418 -15.385  -0.111  0.00  0.00    +0.006 C 
BRANCH  21  23
ATOM     22  C   UNL     1      10.319 -17.357   1.130  0.00  0.00    +0.004 C 
ATOM     23  C   UNL     1      10.027 -16.781  -0.257  0.00  0.00    -0.003 C 
ENDBRANCH  21  23
ENDBRANCH  20  21
ENDBRANCH   1  20
BRANCH  10  24
ATOM     24  S   UNL     1       4.139  -4.814  -0.398  0.00  0.00    -0.076 S 
BRANCH  24  25
ATOM     25  C   UNL     1       2.425  -4.236  -0.258  0.00  0.00    +0.173 C 
BRANCH  25  26
ATOM     26  C   UNL     1       2.410  -2.734  -0.137  0.00  0.00    +0.227 C 
ATOM     27  O   UNL     1       3.452  -2.114  -0.144  0.00  0.00    -0.275 OA
ATOM     28  N   UNL     1       1.237  -2.079  -0.020  0.00  0.00    -0.285 N 
ATOM     29  H   UNL     1       0.409  -2.578   0.062  0.00  0.00    +0.155 HD
BRANCH  28  30
ATOM     30  C   UNL     1       1.214  -0.680  -0.019  0.00  0.00    +0.033 A 
ATOM     31  C   UNL     1       2.137   0.031  -0.774  0.00  0.00    +0.023 A 
ATOM     32  C   UNL     1       2.111   1.412  -0.771  0.00  0.00    +0.005 A 
ATOM     33  C   UNL     1       1.168   2.086  -0.017  0.00  0.00    -0.050 A 
ATOM     34  C   UNL     1       0.248   1.380   0.736  0.00  0.00    +0.005 A 
ATOM     35  C   UNL     1       0.268  -0.001   0.737  0.00  0.00    +0.023 A 
ATOM     36  C   UNL     1       1.143   3.593  -0.015  0.00  0.00    +0.044 C 
ENDBRANCH  28  30
ENDBRANCH  25  26
ENDBRANCH  24  25
ENDBRANCH  10  24
TORSDOF 7
