REMARK  Name = ZINC36668182
REMARK  6 active torsions:
REMARK  status: ('A' for Active; 'I' for Inactive)
REMARK    1  A    between atoms: C_1  and  C_2
REMARK    2  A    between atoms: C_4  and  C_14
REMARK    3  A    between atoms: C_14  and  C_16
REMARK    4  A    between atoms: N_18  and  C_19
REMARK    5  A    between atoms: C_20  and  C_30
REMARK    6  A    between atoms: C_22  and  C_24
REMARK                            x       y       z     vdW  Elec       q    Type
REMARK                         _______ _______ _______ _____ _____    ______ ____
ROOT
ATOM      1  C   UNL     1      -2.639   1.347  -1.283  0.00  0.00    +0.288 C 
ATOM      2  O   UNL     1      -2.418   2.115  -0.369  0.00  0.00    -0.267 OA
ATOM      3  N   UNL     1      -3.303   1.772  -2.376  0.00  0.00    -0.273 N 
ATOM      4  H   UNL     1      -3.479   1.157  -3.106  0.00  0.00    +0.156 HD
ENDROOT
BRANCH   3   5
ATOM      5  C   UNL     1      -3.732   3.083  -2.458  0.00  0.00    +0.085 A 
ATOM      6  C   UNL     1      -4.429   3.694  -3.494  0.00  0.00    +0.066 A 
ATOM      7  C   UNL     1      -4.754   5.043  -3.346  0.00  0.00    +0.031 A 
ATOM      8  C   UNL     1      -4.353   5.637  -2.187  0.00  0.00    +0.022 A 
ATOM      9  S   UNL     1      -3.539   4.308  -1.325  0.00  0.00    -0.073 S 
BRANCH   8  10
ATOM     10  C   UNL     1      -4.549   7.035  -1.751  0.00  0.00    -0.011 A 
ATOM     11  C   UNL     1      -5.231   7.936  -2.571  0.00  0.00    +0.009 A 
ATOM     12  C   UNL     1      -5.411   9.240  -2.158  0.00  0.00    +0.001 A 
ATOM     13  C   UNL     1      -4.918   9.655  -0.934  0.00  0.00    +0.000 A 
ATOM     14  C   UNL     1      -4.242   8.768  -0.116  0.00  0.00    +0.001 A 
ATOM     15  C   UNL     1      -4.059   7.460  -0.515  0.00  0.00    +0.009 A 
ENDBRANCH   8  10
BRANCH   6  16
ATOM     16  C   UNL     1      -4.809   2.949  -4.700  0.00  0.00    +0.244 C 
ATOM     17  O   UNL     1      -4.513   1.773  -4.807  0.00  0.00    -0.270 OA
ATOM     18  N   UNL     1      -5.484   3.566  -5.690  0.00  0.00    -0.325 N 
ATOM     19  H   UNL     1      -5.720   4.503  -5.605  0.00  0.00    +0.145 HD
ATOM     20  H   UNL     1      -5.735   3.073  -6.487  0.00  0.00    +0.145 HD
ENDBRANCH   6  16
ENDBRANCH   3   5
BRANCH   1  21
ATOM     21  C   UNL     1      -2.177  -0.066  -1.195  0.00  0.00    +0.261 C 
ATOM     22  O   UNL     1      -2.397  -0.831  -2.104  0.00  0.00    -0.283 OA
BRANCH  21  25
ATOM     23  C   UNL     1      -0.019   1.526   0.010  0.00  0.00    +0.056 C 
ATOM     24  C   UNL     1       0.002  -0.004   0.002  0.00  0.00    +0.219 C 
ATOM     25  C   UNL     1      -1.435  -0.541   0.027  0.00  0.00    +0.289 C 
ATOM     26  O   UNL     1      -1.379  -1.972   0.033  0.00  0.00    -0.473 OA
ATOM     27  C   UNL     1      -0.501  -2.546   0.900  0.00  0.00    +0.163 A 
ATOM     28  C   UNL     1      -0.642  -3.888   1.223  0.00  0.00    +0.049 A 
ATOM     29  C   UNL     1       0.244  -4.485   2.099  0.00  0.00    +0.004 A 
ATOM     30  C   UNL     1       1.272  -3.748   2.656  0.00  0.00    +0.004 A 
ATOM     31  C   UNL     1       1.417  -2.411   2.340  0.00  0.00    +0.049 A 
ATOM     32  C   UNL     1       0.531  -1.804   1.463  0.00  0.00    +0.163 A 
ATOM     33  O   UNL     1       0.682  -0.484   1.167  0.00  0.00    -0.481 OA
ENDBRANCH  21  25
ENDBRANCH   1  21
TORSDOF 5
