REMARK  Name = ZINC59156620
REMARK  7 active torsions:
REMARK  status: ('A' for Active; 'I' for Inactive)
REMARK    1  A    between atoms: C_1  and  C_2
REMARK    2  A    between atoms: C_2  and  C_4
REMARK    3  A    between atoms: C_2  and  O_26
REMARK    4  A    between atoms: N_6  and  N_7
REMARK    5  A    between atoms: N_15  and  C_18
REMARK    6  A    between atoms: C_18  and  C_19
REMARK    7  A    between atoms: O_26  and  C_27
REMARK                            x       y       z     vdW  Elec       q    Type
REMARK                         _______ _______ _______ _____ _____    ______ ____
ROOT
ATOM      1  N   UNL     1      -3.665  -0.801   0.980  0.00  0.00    -0.174 NA
ATOM      2  C   UNL     1      -4.536  -0.528   1.921  0.00  0.00    +0.153 C 
ATOM      3  C   UNL     1      -4.363   0.387   3.073  0.00  0.00    +0.028 A 
ATOM      4  C   UNL     1      -3.312   1.190   3.502  0.00  0.00    +0.012 A 
ATOM      5  C   UNL     1      -3.454   1.950   4.645  0.00  0.00    +0.001 A 
ATOM      6  C   UNL     1      -4.639   1.913   5.361  0.00  0.00    +0.002 A 
ATOM      7  C   UNL     1      -5.688   1.119   4.943  0.00  0.00    +0.024 A 
ATOM      8  C   UNL     1      -5.564   0.346   3.794  0.00  0.00    +0.046 A 
ATOM      9  N   UNL     1      -6.449  -0.523   3.165  0.00  0.00    -0.261 N 
ATOM     10  C   UNL     1      -5.907  -1.061   2.059  0.00  0.00    +0.272 C 
ATOM     11  O   UNL     1      -6.448  -1.850   1.308  0.00  0.00    -0.268 OA
ENDROOT
BRANCH   1  14
ATOM     12  C   UNL     1      -1.489  -0.502   0.061  0.00  0.00    +0.273 C 
ATOM     13  O   UNL     1      -1.847  -1.084  -0.941  0.00  0.00    -0.270 OA
ATOM     14  N   UNL     1      -2.353  -0.319   1.079  0.00  0.00    -0.203 N 
ATOM     15  H   UNL     1      -2.067   0.147   1.881  0.00  0.00    +0.177 HD
BRANCH  12  17
ATOM     16  C   UNL     1      -0.100   1.545   0.235  0.00  0.00    +0.062 C 
ATOM     17  C   UNL     1      -0.078   0.016   0.168  0.00  0.00    +0.257 C 
BRANCH  17  18
ATOM     18  O   UNL     1       0.670  -0.399  -0.977  0.00  0.00    -0.478 OA
BRANCH  18  19
ATOM     19  C   UNL     1       2.018  -0.492  -0.833  0.00  0.00    +0.140 A 
ATOM     20  C   UNL     1       2.620  -0.082   0.348  0.00  0.00    +0.048 A 
ATOM     21  C   UNL     1       3.991  -0.177   0.493  0.00  0.00    +0.023 A 
ATOM     22  C   UNL     1       4.764  -0.680  -0.539  0.00  0.00    +0.043 A 
ATOM     23  C   UNL     1       4.166  -1.089  -1.718  0.00  0.00    +0.043 A 
ATOM     24  C   UNL     1       2.794  -1.001  -1.865  0.00  0.00    +0.084 A 
ATOM     25 CL   UNL     1       2.043  -1.521  -3.341  0.00  0.00    -0.080 Cl
ATOM     26 CL   UNL     1       6.486  -0.797  -0.354  0.00  0.00    -0.083 Cl
ENDBRANCH  18  19
ENDBRANCH  17  18
ENDBRANCH  12  17
ENDBRANCH   1  14
BRANCH   9  27
ATOM     27  C   UNL     1      -7.803  -0.811   3.644  0.00  0.00    +0.152 C 
BRANCH  27  28
ATOM     28  C   UNL     1      -8.771   0.167   3.030  0.00  0.00    +0.005 A 
ATOM     29  C   UNL     1      -9.203   1.261   3.755  0.00  0.00    +0.008 A 
ATOM     30  C   UNL     1     -10.091   2.158   3.192  0.00  0.00    +0.000 A 
ATOM     31  C   UNL     1     -10.549   1.961   1.902  0.00  0.00    +0.003 A 
ATOM     32  C   UNL     1     -10.119   0.868   1.175  0.00  0.00    +0.038 A 
ATOM     33  C   UNL     1      -9.225  -0.028   1.737  0.00  0.00    +0.128 A 
ATOM     34  F   UNL     1      -8.800  -1.095   1.025  0.00  0.00    -0.205 F 
ENDBRANCH  27  28
ENDBRANCH   9  27
TORSDOF 6
