REMARK  Name = ZINC25534610
REMARK  4 active torsions:
REMARK  status: ('A' for Active; 'I' for Inactive)
REMARK    1  A    between atoms: C_3  and  C_6
REMARK    2  A    between atoms: C_8  and  C_11
REMARK    3  A    between atoms: C_11  and  C_12
REMARK    4  A    between atoms: N_14  and  C_15
REMARK                            x       y       z     vdW  Elec       q    Type
REMARK                         _______ _______ _______ _____ _____    ______ ____
ROOT
ATOM      1  C   UNL     1      -0.738   1.591  -1.213  0.00  0.00    +0.223 C 
ATOM      2  O   UNL     1      -1.735   2.271  -1.089  0.00  0.00    -0.275 OA
ATOM      3  N   UNL     1      -0.288   1.272  -2.443  0.00  0.00    -0.284 N 
ATOM      4  H   UNL     1       0.655   0.718  -2.557  0.00  0.00    +0.155 HD
ENDROOT
BRANCH   3   5
ATOM      5  C   UNL     1      -1.022   1.647  -3.575  0.00  0.00    +0.053 A 
ATOM      6  C   UNL     1      -1.723   2.845  -3.585  0.00  0.00    +0.046 A 
ATOM      7  C   UNL     1      -2.442   3.215  -4.706  0.00  0.00    +0.061 A 
ATOM      8  C   UNL     1      -2.473   2.385  -5.815  0.00  0.00    +0.061 A 
ATOM      9  C   UNL     1      -1.780   1.188  -5.806  0.00  0.00    +0.043 A 
ATOM     10  C   UNL     1      -1.055   0.817  -4.689  0.00  0.00    +0.064 A 
ATOM     11 CL   UNL     1      -0.185  -0.686  -4.679  0.00  0.00    -0.082 Cl
ATOM     12 CL   UNL     1      -3.383   2.849  -7.219  0.00  0.00    -0.082 Cl
ATOM     13 CL   UNL     1      -3.314   4.716  -4.721  0.00  0.00    -0.082 Cl
ENDBRANCH   3   5
BRANCH   1  14
ATOM     14  C   UNL     1      -0.003   1.101   0.008  0.00  0.00    +0.152 C 
BRANCH  14  17
ATOM     15  C   UNL     1      -1.550   3.332   2.494  0.00  0.00    +0.144 A 
ATOM     16  N   UNL     1      -0.928   2.875   1.413  0.00  0.00    -0.240 NA
ATOM     17  C   UNL     1      -0.706   1.592   1.248  0.00  0.00    +0.058 A 
ATOM     18  C   UNL     1      -1.105   0.707   2.199  0.00  0.00    +0.071 A 
ATOM     19  S   UNL     1      -1.850   1.814   3.389  0.00  0.00    -0.072 S 
BRANCH  15  22
ATOM     20  C   UNL     1      -2.651   6.509   3.931  0.00  0.00    +0.042 A 
ATOM     21  C   UNL     1      -2.535   5.107   3.995  0.00  0.00    +0.052 A 
ATOM     22  C   UNL     1      -1.892   4.715   2.859  0.00  0.00    +0.160 A 
ATOM     23  O   UNL     1      -1.631   5.816   2.126  0.00  0.00    -0.461 OA
ATOM     24  C   UNL     1      -2.088   6.901   2.771  0.00  0.00    +0.196 A 
ENDBRANCH  15  22
ENDBRANCH  14  17
ENDBRANCH   1  14
TORSDOF 4
