REMARK  Name = ZINC59170702
REMARK  9 active torsions:
REMARK  status: ('A' for Active; 'I' for Inactive)
REMARK    1  A    between atoms: C_1  and  C_2
REMARK    2  A    between atoms: C_2  and  O_3
REMARK    3  A    between atoms: O_3  and  C_4
REMARK    4  A    between atoms: N_12  and  N_13
REMARK    5  A    between atoms: N_13  and  S_14
REMARK    6  A    between atoms: S_14  and  C_17
REMARK    7  A    between atoms: C_20  and  C_23
REMARK    8  A    between atoms: C_24  and  C_26
REMARK    9  A    between atoms: N_28  and  C_29
REMARK                            x       y       z     vdW  Elec       q    Type
REMARK                         _______ _______ _______ _____ _____    ______ ____
ROOT
ATOM      1  C   UNL     1       1.310  -2.534   1.200  0.00  0.00    +0.163 A 
ATOM      2  C   UNL     1       0.491  -3.473   0.593  0.00  0.00    +0.049 A 
ATOM      3  C   UNL     1       0.367  -4.747   1.122  0.00  0.00    +0.004 A 
ATOM      4  C   UNL     1       1.057  -5.099   2.263  0.00  0.00    +0.012 A 
ATOM      5  C   UNL     1       1.887  -4.162   2.888  0.00  0.00    +0.022 A 
ATOM      6  C   UNL     1       2.018  -2.873   2.347  0.00  0.00    +0.179 A 
ATOM      7  O   UNL     1       2.834  -1.968   2.948  0.00  0.00    -0.434 OA
ATOM      8  C   UNL     1       3.038  -2.120   4.289  0.00  0.00    +0.225 A 
ATOM      9  N   UNL     1       3.075  -1.089   5.085  0.00  0.00    -0.260 N 
ATOM     10  C   UNL     1       3.216  -3.495   4.811  0.00  0.00    +0.099 A 
ATOM     11  C   UNL     1       2.628  -4.514   4.106  0.00  0.00    +0.030 A 
ATOM     12  H   UNL     1       3.077  -0.191   4.716  0.00  0.00    +0.189 HD
ENDROOT
BRANCH  10  13
ATOM     13  C   UNL     1       3.982  -3.755   6.042  0.00  0.00    +0.253 C 
ATOM     14  O   UNL     1       5.176  -3.522   6.075  0.00  0.00    -0.270 OA
ATOM     15  N   UNL     1       3.361  -4.251   7.130  0.00  0.00    -0.279 N 
ATOM     16  H   UNL     1       2.408  -4.430   7.105  0.00  0.00    +0.155 HD
BRANCH  15  17
ATOM     17  C   UNL     1       4.092  -4.508   8.296  0.00  0.00    +0.069 A 
ATOM     18  C   UNL     1       5.253  -3.794   8.562  0.00  0.00    +0.026 A 
ATOM     19  C   UNL     1       5.971  -4.050   9.713  0.00  0.00    +0.002 A 
ATOM     20  C   UNL     1       5.537  -5.017  10.601  0.00  0.00    +0.003 A 
ATOM     21  C   UNL     1       4.382  -5.731  10.341  0.00  0.00    +0.040 A 
ATOM     22  C   UNL     1       3.654  -5.476   9.194  0.00  0.00    +0.144 A 
ATOM     23  F   UNL     1       2.522  -6.169   8.942  0.00  0.00    -0.204 F 
ENDBRANCH  15  17
ENDBRANCH  10  13
BRANCH   9  24
ATOM     24  N   UNL     1       3.112  -1.275   6.473  0.00  0.00    -0.157 N 
ATOM     25  H   UNL     1       3.029  -2.167   6.844  0.00  0.00    +0.194 HD
BRANCH  24  26
ATOM     26  S   UNL     1       3.298   0.027   7.479  0.00  0.00    +0.085 S 
ATOM     27  O   UNL     1       3.152  -0.461   8.805  0.00  0.00    -0.149 OA
ATOM     28  O   UNL     1       4.463   0.713   7.043  0.00  0.00    -0.149 OA
BRANCH  26  29
ATOM     29  C   UNL     1       1.938   1.109   7.187  0.00  0.00    +0.110 A 
ATOM     30  C   UNL     1       2.033   2.094   6.222  0.00  0.00    +0.029 A 
ATOM     31  C   UNL     1       0.966   2.942   5.994  0.00  0.00    +0.005 A 
ATOM     32  C   UNL     1      -0.196   2.806   6.730  0.00  0.00    -0.050 A 
ATOM     33  C   UNL     1      -0.291   1.820   7.695  0.00  0.00    +0.005 A 
ATOM     34  C   UNL     1       0.774   0.969   7.920  0.00  0.00    +0.029 A 
ATOM     35  C   UNL     1      -1.359   3.732   6.482  0.00  0.00    +0.044 C 
ENDBRANCH  26  29
ENDBRANCH  24  26
ENDBRANCH   9  24
BRANCH   1  36
ATOM     36  O   UNL     1       1.425  -1.286   0.673  0.00  0.00    -0.489 OA
BRANCH  36  38
ATOM     37  C   UNL     1       0.924   0.434  -0.949  0.00  0.00    +0.048 C 
ATOM     38  C   UNL     1       0.668  -1.008  -0.507  0.00  0.00    +0.226 C 
ENDBRANCH  36  38
ENDBRANCH   1  36
TORSDOF 7
