REMARK  Name = ZINC41585630
REMARK  11 active torsions:
REMARK  status: ('A' for Active; 'I' for Inactive)
REMARK    1  A    between atoms: C_1  and  C_2
REMARK    2  A    between atoms: C_2  and  O_3
REMARK    3  A    between atoms: O_3  and  C_4
REMARK    4  A    between atoms: C_4  and  C_6
REMARK    5  A    between atoms: C_9  and  O_12
REMARK    6  A    between atoms: O_12  and  C_13
REMARK    7  A    between atoms: C_13  and  C_14
REMARK    8  A    between atoms: C_18  and  O_37
REMARK    9  A    between atoms: C_19  and  C_23
REMARK   10  A    between atoms: C_23  and  N_24
REMARK   11  A    between atoms: N_27  and  C_30
REMARK                            x       y       z     vdW  Elec       q    Type
REMARK                         _______ _______ _______ _____ _____    ______ ____
ROOT
ATOM      1  C   UNL     1      -8.188  -5.870   0.041  0.00  0.00    +0.128 A 
ATOM      2  C   UNL     1      -9.008  -6.090   1.234  0.00  0.00    +0.048 A 
ATOM      3  C   UNL     1      -8.758  -6.004   2.607  0.00  0.00    +0.017 A 
ATOM      4  C   UNL     1      -9.755  -6.279   3.498  0.00  0.00    +0.046 A 
ATOM      5  C   UNL     1     -11.022  -6.645   3.049  0.00  0.00    +0.125 A 
ATOM      6  C   UNL     1     -11.288  -6.736   1.694  0.00  0.00    +0.053 A 
ATOM      7  C   UNL     1     -10.285  -6.459   0.776  0.00  0.00    +0.175 A 
ATOM      8  O   UNL     1     -10.237  -6.461  -0.572  0.00  0.00    -0.354 OA
ATOM      9  N   UNL     1      -8.939  -6.091  -0.994  0.00  0.00    -0.079 NA
ENDROOT
BRANCH   5  10
ATOM     10  O   UNL     1     -12.004  -6.915   3.948  0.00  0.00    -0.506 OA
ATOM     11  H   UNL     1     -12.530  -6.144   4.200  0.00  0.00    +0.292 HD
ENDBRANCH   5  10
BRANCH   1  12
ATOM     12  C   UNL     1      -6.739  -5.457   0.019  0.00  0.00    +0.288 C 
BRANCH  12  13
ATOM     13  O   UNL     1      -6.650  -4.031   0.004  0.00  0.00    -0.486 OA
BRANCH  13  17
ATOM     14  C   UNL     1      -2.864  -2.389  -0.058  0.00  0.00    +0.059 A 
ATOM     15  C   UNL     1      -3.988  -1.558  -0.053  0.00  0.00    +0.018 A 
ATOM     16  C   UNL     1      -5.249  -2.110  -0.033  0.00  0.00    +0.046 A 
ATOM     17  C   UNL     1      -5.405  -3.491  -0.017  0.00  0.00    +0.121 A 
ATOM     18  C   UNL     1      -4.290  -4.321  -0.022  0.00  0.00    +0.046 A 
ATOM     19  C   UNL     1      -3.025  -3.777  -0.048  0.00  0.00    +0.018 A 
BRANCH  14  20
ATOM     20  C   UNL     1      -1.511  -1.802  -0.080  0.00  0.00    +0.339 C 
ATOM     21  O   UNL     1      -0.535  -2.526  -0.089  0.00  0.00    -0.245 OA
BRANCH  20  22
ATOM     22  O   UNL     1      -1.357  -0.463  -0.089  0.00  0.00    -0.461 OA
BRANCH  22  24
ATOM     23  C   UNL     1      -0.044   1.566  -0.119  0.00  0.00    +0.048 C 
ATOM     24  C   UNL     1      -0.018   0.036  -0.111  0.00  0.00    +0.229 C 
ENDBRANCH  22  24
ENDBRANCH  20  22
ENDBRANCH  14  20
ENDBRANCH  13  17
ENDBRANCH  12  13
ENDBRANCH   1  12
BRANCH   6  25
ATOM     25  C   UNL     1     -12.661  -7.133   1.218  0.00  0.00    +0.127 C 
BRANCH  25  26
ATOM     26  N   UNL     1     -13.488  -5.931   1.049  0.00  0.00    -0.295 NA
ATOM     27  C   UNL     1     -13.734  -5.275   2.340  0.00  0.00    +0.103 C 
ATOM     28  C   UNL     1     -14.441  -3.936   2.103  0.00  0.00    +0.120 C 
ATOM     29  N   UNL     1     -15.642  -4.179   1.290  0.00  0.00    -0.327 N 
ATOM     30  C   UNL     1     -15.496  -4.951   0.046  0.00  0.00    +0.120 C 
ATOM     31  C   UNL     1     -14.748  -6.250   0.364  0.00  0.00    +0.103 C 
BRANCH  29  32
ATOM     32  C   UNL     1     -16.890  -3.691   1.688  0.00  0.00    +0.030 A 
ATOM     33  C   UNL     1     -17.029  -3.062   2.919  0.00  0.00    +0.026 A 
ATOM     34  C   UNL     1     -18.263  -2.580   3.311  0.00  0.00    +0.040 A 
ATOM     35  C   UNL     1     -19.360  -2.722   2.477  0.00  0.00    +0.124 A 
ATOM     36  C   UNL     1     -19.223  -3.348   1.250  0.00  0.00    +0.040 A 
ATOM     37  C   UNL     1     -17.990  -3.827   0.852  0.00  0.00    +0.026 A 
ATOM     38  F   UNL     1     -20.565  -2.249   2.863  0.00  0.00    -0.205 F 
ENDBRANCH  29  32
ENDBRANCH  25  26
ENDBRANCH   6  25
TORSDOF 10
