REMARK  Name = ZINC35780954
REMARK  12 active torsions:
REMARK  status: ('A' for Active; 'I' for Inactive)
REMARK    1  A    between atoms: C_1  and  C_2
REMARK    2  A    between atoms: C_2  and  C_3
REMARK    3  A    between atoms: C_2  and  C_4
REMARK    4  A    between atoms: C_11  and  C_15
REMARK    5  A    between atoms: C_15  and  N_16
REMARK    6  A    between atoms: N_16  and  C_17
REMARK    7  A    between atoms: N_16  and  C_30
REMARK    8  A    between atoms: C_17  and  C_18
REMARK    9  A    between atoms: C_18  and  C_20
REMARK   10  A    between atoms: C_18  and  O_29
REMARK   11  A    between atoms: C_20  and  O_21
REMARK   12  A    between atoms: O_21  and  C_22
REMARK                            x       y       z     vdW  Elec       q    Type
REMARK                         _______ _______ _______ _____ _____    ______ ____
ROOT
ATOM      1  N   UNL     1      -7.782  -1.633   1.549  0.00  0.00    +0.388 N 
ATOM      2  H   UNL     1      -7.888  -0.630   1.522  0.00  0.00    -0.081 HD
ENDROOT
BRANCH   1   3
ATOM      3  C   UNL     1      -6.673  -1.986   2.445  0.00  0.00    -0.068 C 
ATOM      4  C   UNL     1      -5.362  -1.449   1.869  0.00  0.00    -0.015 C 
ATOM      5  C   UNL     1      -4.207  -1.816   2.803  0.00  0.00    -0.002 C 
ATOM      6  C   UNL     1      -4.121  -3.338   2.934  0.00  0.00    -0.000 C 
ATOM      7  C   UNL     1      -5.433  -3.875   3.510  0.00  0.00    -0.002 C 
ATOM      8  C   UNL     1      -6.588  -3.508   2.576  0.00  0.00    -0.015 C 
ENDBRANCH   1   3
BRANCH   1   9
ATOM      9  C   UNL     1      -7.496  -2.131   0.197  0.00  0.00    -0.003 C 
BRANCH   9  17
ATOM     10  C   UNL     1      -4.059   2.863  -1.651  0.00  0.00    -0.005 A 
ATOM     11  C   UNL     1      -4.205   1.740  -2.372  0.00  0.00    +0.027 A 
ATOM     12  C   UNL     1      -5.018   0.660  -1.845  0.00  0.00    +0.072 A 
ATOM     13  C   UNL     1      -5.318  -0.617  -2.422  0.00  0.00    +0.260 A 
ATOM     14  O   UNL     1      -4.865  -0.926  -3.510  0.00  0.00    -0.267 OA
ATOM     15  N   UNL     1      -6.106  -1.470  -1.742  0.00  0.00    -0.312 N 
ATOM     16  H   UNL     1      -6.313  -2.336  -2.127  0.00  0.00    +0.170 HD
ATOM     17  C   UNL     1      -6.619  -1.143  -0.527  0.00  0.00    +0.094 A 
ATOM     18  N   UNL     1      -6.364   0.014   0.024  0.00  0.00    -0.229 NA
ATOM     19  C   UNL     1      -5.594   0.909  -0.586  0.00  0.00    +0.116 A 
ATOM     20  S   UNL     1      -5.018   2.538  -0.184  0.00  0.00    -0.073 S 
BRANCH  10  22
ATOM     21  C   UNL     1      -4.207   5.308  -2.039  0.00  0.00    +0.013 C 
ATOM     22  C   UNL     1      -3.269   4.099  -1.997  0.00  0.00    +0.020 C 
ATOM     23  C   UNL     1      -2.190   4.327  -0.937  0.00  0.00    +0.013 C 
ENDBRANCH  10  22
ENDBRANCH   9  17
ENDBRANCH   1   9
BRANCH   1  24
ATOM     24  C   UNL     1      -9.024  -2.243   2.042  0.00  0.00    -0.043 C 
BRANCH  24  25
ATOM     25  C   UNL     1      -9.425  -1.585   3.364  0.00  0.00    +0.135 C 
BRANCH  25  26
ATOM     26  O   UNL     1      -8.503  -1.967   4.386  0.00  0.00    -0.390 OA
ATOM     27  H   UNL     1      -8.419  -2.923   4.503  0.00  0.00    +0.210 HD
ENDBRANCH  25  26
BRANCH  25  28
ATOM     28  C   UNL     1     -10.834  -2.038   3.753  0.00  0.00    +0.258 C 
BRANCH  28  29
ATOM     29  O   UNL     1     -11.255  -1.335   4.924  0.00  0.00    -0.489 OA
BRANCH  29  30
ATOM     30  C   UNL     1     -12.493  -1.623   5.405  0.00  0.00    +0.121 A 
ATOM     31  C   UNL     1     -13.284  -2.567   4.766  0.00  0.00    +0.047 A 
ATOM     32  C   UNL     1     -14.542  -2.858   5.257  0.00  0.00    +0.023 A 
ATOM     33  C   UNL     1     -15.013  -2.209   6.384  0.00  0.00    +0.041 A 
ATOM     34  C   UNL     1     -14.226  -1.267   7.022  0.00  0.00    +0.023 A 
ATOM     35  C   UNL     1     -12.965  -0.978   6.538  0.00  0.00    +0.047 A 
ATOM     36 CL   UNL     1     -16.595  -2.576   6.998  0.00  0.00    -0.084 Cl
ENDBRANCH  29  30
ENDBRANCH  28  29
ENDBRANCH  25  28
ENDBRANCH  24  25
ENDBRANCH   1  24
TORSDOF 10
