REMARK  Name = ZINC52550768
REMARK  11 active torsions:
REMARK  status: ('A' for Active; 'I' for Inactive)
REMARK    1  A    between atoms: C_1  and  C_2
REMARK    2  A    between atoms: C_4  and  N_31
REMARK    3  A    between atoms: C_9  and  C_11
REMARK    4  A    between atoms: C_13  and  N_19
REMARK    5  A    between atoms: N_19  and  C_20
REMARK    6  A    between atoms: C_20  and  C_21
REMARK    7  A    between atoms: C_21  and  C_23
REMARK    8  A    between atoms: C_21  and  O_30
REMARK    9  A    between atoms: C_34  and  N_37
REMARK   10  A    between atoms: N_37  and  C_38
REMARK   11  A    between atoms: N_37  and  C_39
REMARK                            x       y       z     vdW  Elec       q    Type
REMARK                         _______ _______ _______ _____ _____    ______ ____
ROOT
ATOM      1  C   UNL     1       0.018   1.503   0.010  0.00  0.00    +0.046 C 
ATOM      2  C   UNL     1       0.020  -0.004   0.002  0.00  0.00    -0.021 A 
ATOM      3  C   UNL     1       0.023  -0.680  -1.184  0.00  0.00    +0.028 A 
ATOM      4  C   UNL     1       0.025  -2.074  -1.206  0.00  0.00    +0.032 A 
ATOM      5  C   UNL     1       0.023  -2.791  -0.021  0.00  0.00    +0.051 A 
ATOM      6  C   UNL     1       0.020  -2.115   1.190  0.00  0.00    +0.068 A 
ATOM      7  C   UNL     1       0.024  -0.709   1.208  0.00  0.00    +0.092 A 
ATOM      8  N   UNL     1       0.026  -0.330   2.513  0.00  0.00    -0.231 NA
ATOM      9  C   UNL     1       0.029  -1.385   3.275  0.00  0.00    +0.126 A 
ATOM     10  N   UNL     1       0.018  -2.513   2.512  0.00  0.00    -0.341 N 
ATOM     11  H   UNL     1       0.017  -3.427   2.838  0.00  0.00    +0.167 HD
ENDROOT
BRANCH   9  12
ATOM     12  C   UNL     1       0.034  -1.361   4.782  0.00  0.00    +0.186 C 
ATOM     13  C   UNL     1      -1.407  -1.396   5.256  0.00  0.00    +0.025 C 
ATOM     14  C   UNL     1      -1.768  -2.427   6.074  0.00  0.00    +0.037 C 
ATOM     15  C   UNL     1      -0.846  -3.396   6.449  0.00  0.00    +0.102 C 
ATOM     16  N   UNL     1       0.410  -3.410   6.066  0.00  0.00    -0.188 NA
ATOM     17  C   UNL     1       0.932  -2.481   5.266  0.00  0.00    +0.252 C 
ATOM     18  O   UNL     1       2.100  -2.531   4.934  0.00  0.00    -0.273 OA
BRANCH  13  19
ATOM     19  N   UNL     1      -2.300  -0.441   4.883  0.00  0.00    -0.343 N 
ATOM     20  H   UNL     1      -2.021   0.283   4.301  0.00  0.00    +0.146 HD
BRANCH  19  21
ATOM     21  C   UNL     1      -3.684  -0.505   5.360  0.00  0.00    +0.137 C 
BRANCH  21  22
ATOM     22  C   UNL     1      -4.473   0.679   4.798  0.00  0.00    +0.161 C 
BRANCH  22  23
ATOM     23  C   UNL     1      -5.861   0.682   5.385  0.00  0.00    -0.016 A 
ATOM     24  C   UNL     1      -6.828  -0.166   4.878  0.00  0.00    +0.006 A 
ATOM     25  C   UNL     1      -8.101  -0.164   5.416  0.00  0.00    +0.002 A 
ATOM     26  C   UNL     1      -8.409   0.686   6.462  0.00  0.00    +0.020 A 
ATOM     27  C   UNL     1      -7.441   1.535   6.970  0.00  0.00    +0.041 A 
ATOM     28  C   UNL     1      -6.165   1.528   6.435  0.00  0.00    +0.026 A 
ATOM     29 CL   UNL     1      -7.827   2.603   8.283  0.00  0.00    -0.084 Cl
ENDBRANCH  22  23
BRANCH  22  30
ATOM     30  O   UNL     1      -4.558   0.563   3.376  0.00  0.00    -0.386 OA
ATOM     31  H   UNL     1      -4.998  -0.243   3.073  0.00  0.00    +0.210 HD
ENDBRANCH  22  30
ENDBRANCH  21  22
ENDBRANCH  19  21
ENDBRANCH  13  19
ENDBRANCH   9  12
BRANCH   4  32
ATOM     32  N   UNL     1       0.027  -2.751  -2.430  0.00  0.00    -0.330 N 
ATOM     33  C   UNL     1      -0.094  -2.012  -3.694  0.00  0.00    +0.103 C 
ATOM     34  C   UNL     1      -1.252  -2.605  -4.502  0.00  0.00    +0.004 C 
ATOM     35  C   UNL     1      -1.033  -4.110  -4.672  0.00  0.00    -0.066 C 
ATOM     36  C   UNL     1      -1.010  -4.782  -3.297  0.00  0.00    +0.004 C 
ATOM     37  C   UNL     1       0.157  -4.213  -2.475  0.00  0.00    +0.103 C 
BRANCH  35  38
ATOM     38  N   UNL     1      -2.125  -4.676  -5.475  0.00  0.00    +0.378 N 
ATOM     39  C   UNL     1      -2.147  -4.032  -6.795  0.00  0.00    -0.096 C 
ATOM     40  C   UNL     1      -1.915  -6.120  -5.638  0.00  0.00    -0.096 C 
ATOM     41  H   UNL     1      -3.005  -4.514  -5.008  0.00  0.00    -0.082 HD
ENDBRANCH  35  38
ENDBRANCH   4  32
TORSDOF 8
