REMARK  Name = ZINC40016258
REMARK  13 active torsions:
REMARK  status: ('A' for Active; 'I' for Inactive)
REMARK    1  A    between atoms: C_1  and  C_2
REMARK    2  A    between atoms: C_2  and  C_3
REMARK    3  A    between atoms: C_3  and  C_4
REMARK    4  A    between atoms: C_4  and  C_5
REMARK    5  A    between atoms: C_5  and  C_7
REMARK    6  A    between atoms: C_5  and  C_9
REMARK    7  A    between atoms: C_7  and  C_8
REMARK    8  A    between atoms: C_9  and  N_10
REMARK    9  A    between atoms: C_14  and  C_15
REMARK   10  A    between atoms: C_16  and  O_26
REMARK   11  A    between atoms: O_26  and  C_27
REMARK   12  A    between atoms: C_30  and  C_34
REMARK   13  A    between atoms: C_31  and  C_33
REMARK                            x       y       z     vdW  Elec       q    Type
REMARK                         _______ _______ _______ _____ _____    ______ ____
ROOT
ATOM      1  C   UNL     1       5.987  -5.624   6.438  0.00  0.00    +0.103 A 
ATOM      2  C   UNL     1       5.513  -6.876   6.888  0.00  0.00    +0.235 A 
ATOM      3  N   UNL     1       5.925  -7.351   8.052  0.00  0.00    -0.194 NA
ATOM      4  C   UNL     1       6.782  -6.676   8.819  0.00  0.00    +0.144 A 
ATOM      5  C   UNL     1       7.185  -7.232  10.047  0.00  0.00    +0.047 A 
ATOM      6  C   UNL     1       8.060  -6.549  10.839  0.00  0.00    +0.005 A 
ATOM      7  C   UNL     1       8.547  -5.304  10.418  0.00  0.00    +0.018 A 
ATOM      8  C   UNL     1       8.149  -4.785   9.234  0.00  0.00    +0.096 A 
ATOM      9  N   UNL     1       7.274  -5.460   8.436  0.00  0.00    -0.268 N 
ATOM     10  C   UNL     1       6.901  -4.917   7.257  0.00  0.00    +0.269 A 
ATOM     11  O   UNL     1       7.339  -3.835   6.906  0.00  0.00    -0.266 OA
ENDROOT
BRANCH   1  16
ATOM     12  N   UNL     1       2.265  -4.408   3.759  0.00  0.00    -0.255 N 
ATOM     13  C   UNL     1       3.583  -4.509   3.748  0.00  0.00    +0.258 C 
ATOM     14  O   UNL     1       4.222  -4.263   2.740  0.00  0.00    -0.269 OA
ATOM     15  C   UNL     1       4.234  -4.914   4.949  0.00  0.00    +0.077 C 
ATOM     16  C   UNL     1       5.564  -5.091   5.197  0.00  0.00    +0.039 C 
ATOM     17  S   UNL     1       2.835  -5.124   6.041  0.00  0.00    -0.061 S 
ATOM     18  C   UNL     1       1.556  -4.675   4.878  0.00  0.00    +0.121 C 
ATOM     19  S   UNL     1      -0.137  -4.605   5.119  0.00  0.00    -0.027 S 
BRANCH  12  20
ATOM     20  C   UNL     1       1.563  -3.993   2.541  0.00  0.00    +0.118 C 
BRANCH  20  21
ATOM     21  C   UNL     1       1.298  -2.487   2.593  0.00  0.00    +0.007 C 
BRANCH  21  22
ATOM     22  C   UNL     1       0.497  -2.068   1.359  0.00  0.00    +0.002 C 
ATOM     23  C   UNL     1      -0.889  -2.714   1.406  0.00  0.00    +0.004 C 
ENDBRANCH  21  22
BRANCH  21  24
ATOM     24  C   UNL     1       2.630  -1.736   2.616  0.00  0.00    +0.005 C 
BRANCH  24  25
ATOM     25  C   UNL     1       2.368  -0.239   2.793  0.00  0.00    +0.000 C 
BRANCH  25  27
ATOM     26  C   UNL     1       3.438   2.010   2.993  0.00  0.00    +0.004 C 
ATOM     27  C   UNL     1       3.700   0.513   2.816  0.00  0.00    -0.003 C 
ENDBRANCH  25  27
ENDBRANCH  24  25
ENDBRANCH  21  24
ENDBRANCH  20  21
ENDBRANCH  12  20
ENDBRANCH   1  16
BRANCH   2  28
ATOM     28  O   UNL     1       4.643  -7.585   6.133  0.00  0.00    -0.437 OA
BRANCH  28  29
ATOM     29  C   UNL     1       4.136  -8.734   6.653  0.00  0.00    +0.131 A 
ATOM     30  C   UNL     1       3.148  -8.680   7.626  0.00  0.00    +0.046 A 
ATOM     31  C   UNL     1       2.635  -9.848   8.153  0.00  0.00    +0.007 A 
ATOM     32  C   UNL     1       3.104 -11.072   7.712  0.00  0.00    -0.047 A 
ATOM     33  C   UNL     1       4.089 -11.129   6.743  0.00  0.00    -0.044 A 
ATOM     34  C   UNL     1       4.601  -9.963   6.208  0.00  0.00    +0.050 A 
ATOM     35  C   UNL     1       4.598 -12.464   6.265  0.00  0.00    +0.044 C 
ATOM     36  C   UNL     1       2.542 -12.346   8.289  0.00  0.00    +0.044 C 
ENDBRANCH  28  29
ENDBRANCH   2  28
TORSDOF 9
