REMARK  Name = ZINC09406093
REMARK  9 active torsions:
REMARK  status: ('A' for Active; 'I' for Inactive)
REMARK    1  A    between atoms: C_1  and  C_2
REMARK    2  A    between atoms: C_2  and  C_3
REMARK    3  A    between atoms: C_9  and  C_14
REMARK    4  A    between atoms: C_20  and  C_23
REMARK    5  A    between atoms: N_25  and  C_26
REMARK    6  A    between atoms: C_26  and  C_27
REMARK    7  A    between atoms: C_30  and  O_33
REMARK    8  A    between atoms: O_33  and  C_34
REMARK    9  A    between atoms: C_34  and  C_35
REMARK                            x       y       z     vdW  Elec       q    Type
REMARK                         _______ _______ _______ _____ _____    ______ ____
ROOT
ATOM      1  C   UNL     1       4.537  -1.552   4.654  0.00  0.00    +0.191 C 
ATOM      2  C   UNL     1       4.923  -1.577   3.168  0.00  0.00    +0.159 C 
ATOM      3  N   UNL     1       6.007  -0.598   2.974  0.00  0.00    -0.248 N 
ATOM      4  C   UNL     1       7.025  -0.550   3.943  0.00  0.00    +0.080 A 
ATOM      5  C   UNL     1       8.198   0.140   3.686  0.00  0.00    +0.030 A 
ATOM      6  C   UNL     1       9.191   0.191   4.647  0.00  0.00    -0.048 A 
ATOM      7  C   UNL     1       9.011  -0.441   5.864  0.00  0.00    +0.007 A 
ATOM      8  C   UNL     1       7.841  -1.126   6.127  0.00  0.00    +0.048 A 
ATOM      9  C   UNL     1       6.839  -1.184   5.169  0.00  0.00    +0.142 A 
ATOM     10  O   UNL     1       5.692  -1.863   5.436  0.00  0.00    -0.485 OA
ATOM     11  C   UNL     1      10.471   0.935   4.367  0.00  0.00    +0.044 C 
ATOM     12  C   UNL     1       6.026   0.218   1.902  0.00  0.00    +0.309 C 
ATOM     13  O   UNL     1       6.832   1.127   1.843  0.00  0.00    -0.252 OA
ATOM     14  N   UNL     1       5.151   0.028   0.894  0.00  0.00    -0.285 N 
ATOM     15  C   UNL     1       4.798   1.132  -0.009  0.00  0.00    +0.110 C 
ATOM     16  C   UNL     1       3.273   1.277  -0.039  0.00  0.00    +0.032 C 
ATOM     17  C   UNL     1       2.644  -0.068  -0.412  0.00  0.00    +0.078 C 
ATOM     18  C   UNL     1       3.010  -1.115   0.642  0.00  0.00    +0.032 C 
ATOM     19  C   UNL     1       4.531  -1.287   0.679  0.00  0.00    +0.110 C 
ENDROOT
BRANCH  17  20
ATOM     20  C   UNL     1       1.146   0.080  -0.476  0.00  0.00    +0.216 C 
ATOM     21  O   UNL     1       0.632   1.154  -0.244  0.00  0.00    -0.276 OA
ATOM     22  N   UNL     1       0.377  -0.982  -0.789  0.00  0.00    -0.311 N 
ATOM     23  H   UNL     1       0.788  -1.841  -0.974  0.00  0.00    +0.149 HD
BRANCH  22  24
ATOM     24  C   UNL     1      -1.079  -0.837  -0.856  0.00  0.00    +0.139 C 
BRANCH  24  25
ATOM     25  C   UNL     1      -1.699  -2.159  -1.230  0.00  0.00    -0.030 A 
ATOM     26  C   UNL     1      -1.905  -2.474  -2.560  0.00  0.00    +0.009 A 
ATOM     27  C   UNL     1      -2.468  -3.687  -2.905  0.00  0.00    +0.046 A 
ATOM     28  C   UNL     1      -2.836  -4.586  -1.915  0.00  0.00    +0.121 A 
ATOM     29  C   UNL     1      -2.633  -4.266  -0.580  0.00  0.00    +0.046 A 
ATOM     30  C   UNL     1      -2.065  -3.054  -0.241  0.00  0.00    +0.009 A 
BRANCH  28  31
ATOM     31  O   UNL     1      -3.394  -5.779  -2.252  0.00  0.00    -0.492 OA
BRANCH  31  32
ATOM     32  C   UNL     1      -3.573  -6.041  -3.645  0.00  0.00    +0.225 C 
ATOM     33  C   UNL     1      -4.210  -7.420  -3.826  0.00  0.00    +0.048 C 
ENDBRANCH  31  32
ENDBRANCH  28  31
ENDBRANCH  24  25
ENDBRANCH  22  24
ENDBRANCH  17  20
BRANCH   1  35
ATOM     34  C   UNL     1       2.973  -2.478   6.368  0.00  0.00    +0.007 C 
ATOM     35  C   UNL     1       3.444  -2.590   4.917  0.00  0.00    +0.043 C 
ENDBRANCH   1  35
TORSDOF 6
