REMARK  Name = ZINC13045626
REMARK  15 active torsions:
REMARK  status: ('A' for Active; 'I' for Inactive)
REMARK    1  A    between atoms: C_1  and  C_2
REMARK    2  A    between atoms: C_4  and  C_14
REMARK    3  A    between atoms: C_5  and  C_13
REMARK    4  A    between atoms: N_6  and  C_7
REMARK    5  A    between atoms: C_7  and  C_9
REMARK    6  A    between atoms: C_7  and  C_10
REMARK    7  A    between atoms: C_10  and  O_11
REMARK    8  A    between atoms: O_11  and  C_12
REMARK    9  A    between atoms: C_14  and  C_16
REMARK   10  A    between atoms: C_16  and  S_17
REMARK   11  A    between atoms: S_17  and  C_18
REMARK   12  A    between atoms: C_22  and  C_32
REMARK   13  A    between atoms: N_28  and  C_29
REMARK   14  A    between atoms: C_29  and  C_30
REMARK   15  A    between atoms: C_30  and  O_31
REMARK                            x       y       z     vdW  Elec       q    Type
REMARK                         _______ _______ _______ _____ _____    ______ ____
ROOT
ATOM      1  C   UNL     1       8.557   8.250  -1.701  0.00  0.00    +0.173 A 
ATOM      2  N   UNL     1       8.901   7.520  -0.669  0.00  0.00    -0.223 NA
ATOM      3  C   UNL     1      10.139   7.600  -0.125  0.00  0.00    +0.080 A 
ATOM      4  C   UNL     1      10.503   6.820   0.976  0.00  0.00    +0.043 A 
ATOM      5  C   UNL     1      11.784   6.935   1.500  0.00  0.00    +0.065 A 
ATOM      6  C   UNL     1      12.707   7.824   0.933  0.00  0.00    +0.016 A 
ATOM      7  C   UNL     1      12.362   8.591  -0.142  0.00  0.00    +0.016 A 
ATOM      8  C   UNL     1      11.081   8.492  -0.685  0.00  0.00    +0.065 A 
ATOM      9  C   UNL     1      10.668   9.299  -1.844  0.00  0.00    +0.262 A 
ATOM     10  O   UNL     1      11.433  10.085  -2.370  0.00  0.00    -0.267 OA
ATOM     11  N   UNL     1       9.407   9.132  -2.306  0.00  0.00    -0.285 N 
ENDROOT
BRANCH   5  12
ATOM     12  C   UNL     1      12.178   6.113   2.666  0.00  0.00    +0.387 C 
ATOM     13  O   UNL     1      11.382   5.341   3.160  0.00  0.00    -0.241 OA
ATOM     14  O   UNL     1      13.419   6.221   3.178  0.00  0.00    -0.241 OA
ENDBRANCH   5  12
BRANCH   1  15
ATOM     15  S   UNL     1       6.926   8.081  -2.344  0.00  0.00    -0.080 S 
BRANCH  15  16
ATOM     16  C   UNL     1       6.271   6.828  -1.213  0.00  0.00    +0.157 C 
BRANCH  16  17
ATOM     17  C   UNL     1       4.844   6.516  -1.582  0.00  0.00    +0.175 C 
ATOM     18  O   UNL     1       4.320   7.084  -2.517  0.00  0.00    -0.291 OA
BRANCH  17  22
ATOM     19  C   UNL     1       3.561   3.001   1.878  0.00  0.00    +0.063 C 
ATOM     20  C   UNL     1       3.538   3.973   0.726  0.00  0.00    +0.017 A 
ATOM     21  C   UNL     1       4.564   4.751   0.343  0.00  0.00    +0.034 A 
ATOM     22  C   UNL     1       4.088   5.526  -0.811  0.00  0.00    +0.039 A 
ATOM     23  C   UNL     1       2.783   5.124  -1.023  0.00  0.00    +0.027 A 
ATOM     24  N   UNL     1       2.471   4.203  -0.094  0.00  0.00    -0.343 N 
ATOM     25  C   UNL     1       1.866   5.633  -2.105  0.00  0.00    +0.064 C 
BRANCH  24  26
ATOM     26  C   UNL     1       1.172   3.535   0.019  0.00  0.00    +0.110 C 
ATOM     27  C   UNL     1       0.494   3.957   1.323  0.00  0.00    +0.033 C 
BRANCH  26  28
ATOM     28  C   UNL     1       1.376   2.019   0.016  0.00  0.00    +0.184 C 
BRANCH  28  29
ATOM     29  O   UNL     1       0.104   1.367   0.008  0.00  0.00    -0.381 OA
ATOM     30  C   UNL     1       0.182  -0.059   0.005  0.00  0.00    +0.194 C 
ENDBRANCH  28  29
ENDBRANCH  26  28
ENDBRANCH  24  26
ENDBRANCH  17  22
ENDBRANCH  16  17
ENDBRANCH  15  16
ENDBRANCH   1  15
BRANCH  11  31
ATOM     31  C   UNL     1       8.948   9.908  -3.461  0.00  0.00    +0.155 C 
BRANCH  31  32
ATOM     32  C   UNL     1       8.332  11.223  -2.979  0.00  0.00    +0.177 C 
BRANCH  32  33
ATOM     33  O   UNL     1       9.342  12.024  -2.363  0.00  0.00    -0.393 OA
ATOM     34  H   UNL     1       9.022  12.875  -2.033  0.00  0.00    +0.209 HD
ENDBRANCH  32  33
ENDBRANCH  31  32
ENDBRANCH  11  31
TORSDOF 11
