REMARK  Name = ZINC63658719
REMARK  11 active torsions:
REMARK  status: ('A' for Active; 'I' for Inactive)
REMARK    1  A    between atoms: C_1  and  C_2
REMARK    2  A    between atoms: C_4  and  C_13
REMARK    3  A    between atoms: C_13  and  C_14
REMARK    4  A    between atoms: C_14  and  N_15
REMARK    5  A    between atoms: N_15  and  C_16
REMARK    6  A    between atoms: N_15  and  C_22
REMARK    7  A    between atoms: C_16  and  C_17
REMARK    8  A    between atoms: C_22  and  N_24
REMARK    9  A    between atoms: N_24  and  C_25
REMARK   10  A    between atoms: C_25  and  C_26
REMARK   11  A    between atoms: C_26  and  C_27
REMARK                            x       y       z     vdW  Elec       q    Type
REMARK                         _______ _______ _______ _____ _____    ______ ____
ROOT
ATOM      1  N   UNL     1      -4.819  -0.826  -1.544  0.00  0.00    -0.305 N 
ENDROOT
BRANCH   1   2
ATOM      2  C   UNL     1      -5.653   0.226  -1.417  0.00  0.00    +0.133 C 
ATOM      3  S   UNL     1      -5.480   1.302  -0.097  0.00  0.00    -0.019 S 
BRANCH   2   4
ATOM      4  N   UNL     1      -6.622   0.431  -2.331  0.00  0.00    -0.326 N 
ATOM      5  H   UNL     1      -6.720  -0.178  -3.079  0.00  0.00    +0.148 HD
BRANCH   4   6
ATOM      6  C   UNL     1      -7.528   1.574  -2.194  0.00  0.00    +0.108 C 
BRANCH   6   7
ATOM      7  C   UNL     1      -8.527   1.576  -3.353  0.00  0.00    +0.054 C 
BRANCH   7   8
ATOM      8  C   UNL     1      -9.459   2.752  -3.211  0.00  0.00    -0.046 A 
ATOM      9  C   UNL     1     -10.634   2.620  -2.496  0.00  0.00    +0.004 A 
ATOM     10  C   UNL     1     -11.489   3.698  -2.366  0.00  0.00    +0.000 A 
ATOM     11  C   UNL     1     -11.168   4.909  -2.952  0.00  0.00    +0.000 A 
ATOM     12  C   UNL     1      -9.992   5.041  -3.667  0.00  0.00    +0.000 A 
ATOM     13  C   UNL     1      -9.136   3.963  -3.792  0.00  0.00    +0.004 A 
ENDBRANCH   7   8
ENDBRANCH   6   7
ENDBRANCH   4   6
ENDBRANCH   2   4
ENDBRANCH   1   2
BRANCH   1  14
ATOM     14  C   UNL     1      -3.765  -1.048  -0.551  0.00  0.00    +0.111 C 
BRANCH  14  15
ATOM     15  C   UNL     1      -2.494  -0.316  -0.984  0.00  0.00    +0.052 C 
BRANCH  15  18
ATOM     16  C   UNL     1      -0.019   1.526   0.010  0.00  0.00    +0.035 C 
ATOM     17  C   UNL     1       0.002  -0.004   0.002  0.00  0.00    +0.103 C 
ATOM     18  C   UNL     1      -1.410  -0.545   0.038  0.00  0.00    -0.037 C 
ATOM     19  C   UNL     1      -1.503  -1.275   1.172  0.00  0.00    +0.002 A 
ATOM     20  C   UNL     1      -2.599  -2.045   1.771  0.00  0.00    +0.048 A 
ATOM     21  C   UNL     1      -2.387  -2.687   2.945  0.00  0.00    +0.124 A 
ATOM     22  C   UNL     1      -1.146  -2.633   3.600  0.00  0.00    +0.040 A 
ATOM     23  C   UNL     1      -0.093  -1.946   3.110  0.00  0.00    +0.029 A 
ATOM     24  C   UNL     1      -0.205  -1.235   1.884  0.00  0.00    +0.043 A 
ATOM     25  N   UNL     1       0.658  -0.508   1.214  0.00  0.00    -0.378 N 
ATOM     26  F   UNL     1      -3.394  -3.396   3.499  0.00  0.00    -0.205 F 
ATOM     27  H   UNL     1       1.576  -0.333   1.475  0.00  0.00    +0.160 HD
ENDBRANCH  15  18
ENDBRANCH  14  15
ENDBRANCH   1  14
BRANCH   1  28
ATOM     28  C   UNL     1      -4.967  -1.746  -2.674  0.00  0.00    +0.181 C 
BRANCH  28  29
ATOM     29  C   UNL     1      -5.909  -2.860  -2.295  0.00  0.00    +0.122 A 
ATOM     30  C   UNL     1      -7.243  -2.856  -2.470  0.00  0.00    +0.046 A 
ATOM     31  C   UNL     1      -7.724  -4.090  -1.977  0.00  0.00    +0.041 A 
ATOM     32  C   UNL     1      -6.656  -4.775  -1.530  0.00  0.00    +0.195 A 
ATOM     33  O   UNL     1      -5.558  -4.027  -1.731  0.00  0.00    -0.466 OA
ENDBRANCH  28  29
ENDBRANCH   1  28
TORSDOF 10
