REMARK  Name = ZINC13065093
REMARK  14 active torsions:
REMARK  status: ('A' for Active; 'I' for Inactive)
REMARK    1  A    between atoms: C_1  and  C_2
REMARK    2  A    between atoms: C_2  and  C_3
REMARK    3  A    between atoms: C_3  and  C_5
REMARK    4  A    between atoms: C_3  and  N_71
REMARK    5  A    between atoms: N_9  and  C_10
REMARK    6  A    between atoms: C_10  and  C_11
REMARK    7  A    between atoms: C_11  and  O_13
REMARK    8  A    between atoms: O_13  and  C_14
REMARK    9  A    between atoms: C_14  and  C_15
REMARK   10  A    between atoms: C_16  and  C_17
REMARK   11  A    between atoms: C_16  and  N_71
REMARK   12  A    between atoms: C_22  and  C_30
REMARK   13  A    between atoms: C_23  and  C_29
REMARK   14  A    between atoms: C_31  and  N_71
REMARK                            x       y       z     vdW  Elec       q    Type
REMARK                         _______ _______ _______ _____ _____    ______ ____
ROOT
ATOM      1  N   UNL     1      -0.544   2.837   1.466  0.00  0.00    +0.391 N 
ATOM      2  H   UNL     1      -0.549   3.130   2.450  0.00  0.00    -0.080 HD
ENDROOT
BRANCH   1   3
ATOM      3  C   UNL     1       0.773   3.158   0.876  0.00  0.00    -0.067 C 
ATOM      4  C   UNL     1       0.875   2.597  -0.543  0.00  0.00    -0.015 C 
ATOM      5  C   UNL     1       2.247   2.939  -1.129  0.00  0.00    -0.002 C 
ATOM      6  C   UNL     1       3.342   2.322  -0.256  0.00  0.00    -0.000 C 
ATOM      7  C   UNL     1       3.239   2.883   1.163  0.00  0.00    -0.002 C 
ATOM      8  C   UNL     1       1.868   2.541   1.749  0.00  0.00    -0.015 C 
ENDBRANCH   1   3
BRANCH   1   9
ATOM      9  C   UNL     1      -0.788   1.381   1.397  0.00  0.00    +0.003 C 
BRANCH   9  10
ATOM     10  C   UNL     1      -1.171   0.976  -0.002  0.00  0.00    +0.139 A 
ATOM     11  N   UNL     1      -2.068   1.552  -0.766  0.00  0.00    -0.115 NA
ATOM     12  N   UNL     1      -2.103   0.916  -1.886  0.00  0.00    -0.023 NA
ATOM     13  N   UNL     1      -1.259  -0.055  -1.854  0.00  0.00    -0.043 NA
ATOM     14  N   UNL     1      -0.664  -0.051  -0.709  0.00  0.00    -0.220 N 
BRANCH  14  15
ATOM     15  C   UNL     1       0.368  -0.989  -0.262  0.00  0.00    +0.267 C 
BRANCH  15  16
ATOM     16  C   UNL     1      -0.283  -2.168   0.415  0.00  0.00    +0.329 C 
ATOM     17  O   UNL     1      -1.486  -2.219   0.514  0.00  0.00    -0.249 OA
BRANCH  16  18
ATOM     18  O   UNL     1       0.474  -3.161   0.909  0.00  0.00    -0.464 OA
BRANCH  18  19
ATOM     19  C   UNL     1      -0.221  -4.264   1.548  0.00  0.00    +0.229 C 
ATOM     20  C   UNL     1       0.799  -5.290   2.044  0.00  0.00    +0.048 C 
ENDBRANCH  18  19
ENDBRANCH  16  18
ENDBRANCH  15  16
ENDBRANCH  14  15
ENDBRANCH   9  10
BRANCH   9  22
ATOM     21  C   UNL     1      -1.486   1.325   3.796  0.00  0.00    +0.002 C 
ATOM     22  C   UNL     1      -1.924   1.028   2.360  0.00  0.00    -0.011 C 
ENDBRANCH   9  22
ENDBRANCH   1   9
BRANCH   1  23
ATOM     23  C   UNL     1      -1.611   3.562   0.744  0.00  0.00    -0.036 C 
BRANCH  23  24
ATOM     24  C   UNL     1      -1.569   5.014   1.148  0.00  0.00    +0.001 A 
ATOM     25  C   UNL     1      -0.917   5.913   0.370  0.00  0.00    +0.017 A 
ATOM     26  C   UNL     1      -0.895   7.315   0.791  0.00  0.00    -0.001 A 
ATOM     27  C   UNL     1      -0.239   8.289   0.029  0.00  0.00    +0.010 A 
ATOM     28  C   UNL     1      -0.237   9.588   0.449  0.00  0.00    +0.004 A 
ATOM     29  C   UNL     1      -0.879   9.952   1.625  0.00  0.00    -0.046 A 
ATOM     30  C   UNL     1      -1.530   9.010   2.391  0.00  0.00    -0.024 A 
ATOM     31  C   UNL     1      -1.547   7.680   1.984  0.00  0.00    +0.052 A 
ATOM     32  N   UNL     1      -2.192   6.717   2.730  0.00  0.00    -0.322 N 
ATOM     33  H   UNL     1      -2.641   6.970   3.551  0.00  0.00    +0.169 HD
ATOM     34  C   UNL     1      -2.212   5.433   2.333  0.00  0.00    +0.251 A 
ATOM     35  O   UNL     1      -2.796   4.609   3.015  0.00  0.00    -0.268 OA
ATOM     36  C   UNL     1      -2.222   9.419   3.666  0.00  0.00    +0.046 C 
ATOM     37  C   UNL     1      -0.863  11.392   2.068  0.00  0.00    +0.044 C 
ENDBRANCH  23  24
ENDBRANCH   1  23
TORSDOF 10
