REMARK  Name = ZINC09045188
REMARK  10 active torsions:
REMARK  status: ('A' for Active; 'I' for Inactive)
REMARK    1  A    between atoms: C_1  and  C_2
REMARK    2  A    between atoms: C_11  and  O_24
REMARK    3  A    between atoms: C_12  and  C_14
REMARK    4  A    between atoms: C_17  and  O_22
REMARK    5  A    between atoms: C_18  and  O_20
REMARK    6  A    between atoms: O_20  and  C_21
REMARK    7  A    between atoms: O_22  and  C_23
REMARK    8  A    between atoms: O_24  and  C_25
REMARK    9  A    between atoms: C_25  and  C_26
REMARK   10  A    between atoms: C_26  and  C_28
REMARK                            x       y       z     vdW  Elec       q    Type
REMARK                         _______ _______ _______ _____ _____    ______ ____
ROOT
ATOM      1  C   UNL     1       8.462   2.194  -0.408  0.00  0.00    +0.045 C 
ATOM      2  C   UNL     1       7.217   1.355  -0.283  0.00  0.00    -0.029 A 
ATOM      3  C   UNL     1       5.981   1.967  -0.260  0.00  0.00    +0.051 A 
ATOM      4  C   UNL     1       4.828   1.199  -0.146  0.00  0.00    +0.140 A 
ATOM      5  C   UNL     1       4.938  -0.198  -0.057  0.00  0.00    +0.069 A 
ATOM      6  C   UNL     1       6.193  -0.805  -0.081  0.00  0.00    +0.035 A 
ATOM      7  C   UNL     1       7.325  -0.026  -0.194  0.00  0.00    +0.045 A 
ATOM      8 CL   UNL     1       8.891  -0.774  -0.225  0.00  0.00    -0.083 Cl
ATOM      9  C   UNL     1       3.704  -0.997   0.064  0.00  0.00    +0.235 A 
ATOM     10  O   UNL     1       3.743  -2.215   0.145  0.00  0.00    -0.283 OA
ATOM     11  C   UNL     1       2.473  -0.297   0.087  0.00  0.00    +0.211 A 
ATOM     12  C   UNL     1       2.476   1.074  -0.012  0.00  0.00    +0.181 A 
ATOM     13  O   UNL     1       3.612   1.783  -0.121  0.00  0.00    -0.451 OA
ENDROOT
BRANCH  12  14
ATOM     14  C   UNL     1       1.189   1.792   0.008  0.00  0.00    +0.025 A 
ATOM     15  C   UNL     1       0.238   1.498   0.990  0.00  0.00    +0.015 A 
ATOM     16  C   UNL     1      -0.967   2.166   1.004  0.00  0.00    +0.050 A 
ATOM     17  C   UNL     1      -1.236   3.139   0.051  0.00  0.00    +0.162 A 
ATOM     18  C   UNL     1      -0.293   3.438  -0.931  0.00  0.00    +0.162 A 
ATOM     19  C   UNL     1       0.916   2.768  -0.955  0.00  0.00    +0.061 A 
BRANCH  18  20
ATOM     20  O   UNL     1      -0.562   4.388  -1.866  0.00  0.00    -0.491 OA
ATOM     21  C   UNL     1       0.450   4.642  -2.842  0.00  0.00    +0.277 C 
ENDBRANCH  18  20
BRANCH  17  22
ATOM     22  O   UNL     1      -2.424   3.799   0.072  0.00  0.00    -0.491 OA
ATOM     23  C   UNL     1      -3.344   3.445   1.106  0.00  0.00    +0.277 C 
ENDBRANCH  17  22
ENDBRANCH  12  14
BRANCH  11  24
ATOM     24  O   UNL     1       1.298  -0.975   0.202  0.00  0.00    -0.477 OA
BRANCH  24  25
ATOM     25  C   UNL     1       0.726  -1.488  -1.002  0.00  0.00    +0.308 C 
BRANCH  25  26
ATOM     26  C   UNL     1      -0.561  -2.203  -0.681  0.00  0.00    +0.202 C 
ATOM     27  O   UNL     1      -0.951  -2.266   0.467  0.00  0.00    -0.288 OA
BRANCH  26  28
ATOM     28  C   UNL     1      -1.318  -2.802  -1.720  0.00  0.00    +0.046 A 
ATOM     29  C   UNL     1      -1.014  -2.811  -3.065  0.00  0.00    +0.095 A 
ATOM     30  N   UNL     1      -1.969  -3.480  -3.739  0.00  0.00    -0.360 N 
ATOM     31  H   UNL     1      -1.971  -3.621  -4.699  0.00  0.00    +0.165 HD
ATOM     32  C   UNL     1      -2.948  -3.934  -2.878  0.00  0.00    +0.047 A 
ATOM     33  C   UNL     1      -2.591  -3.534  -1.580  0.00  0.00    +0.010 A 
ATOM     34  C   UNL     1      -3.406  -3.860  -0.500  0.00  0.00    +0.011 A 
ATOM     35  C   UNL     1      -4.564  -4.576  -0.710  0.00  0.00    +0.001 A 
ATOM     36  C   UNL     1      -4.919  -4.972  -1.991  0.00  0.00    +0.002 A 
ATOM     37  C   UNL     1      -4.121  -4.656  -3.070  0.00  0.00    +0.026 A 
ENDBRANCH  26  28
ENDBRANCH  25  26
ENDBRANCH  24  25
ENDBRANCH  11  24
TORSDOF 7
