REMARK  Name = ZINC16712857
REMARK  6 active torsions:
REMARK  status: ('A' for Active; 'I' for Inactive)
REMARK    1  A    between atoms: C_1  and  C_2
REMARK    2  A    between atoms: C_2  and  C_4
REMARK    3  A    between atoms: C_2  and  S_17
REMARK    4  A    between atoms: S_17  and  C_18
REMARK    5  A    between atoms: C_21  and  C_29
REMARK    6  A    between atoms: N_22  and  C_23
REMARK                            x       y       z     vdW  Elec       q    Type
REMARK                         _______ _______ _______ _____ _____    ______ ____
ROOT
ATOM      1  C   UNL     1       0.595   4.304   0.951  0.00  0.00    +0.197 A 
ATOM      2  N   UNL     1       0.847   5.543   0.591  0.00  0.00    -0.122 NA
ATOM      3  N   UNL     1       1.491   5.559  -0.521  0.00  0.00    -0.128 NA
ATOM      4  C   UNL     1       1.696   4.332  -0.939  0.00  0.00    +0.169 A 
ATOM      5  N   UNL     1       1.124   3.488  -0.012  0.00  0.00    -0.270 N 
ENDROOT
BRANCH   4   6
ATOM      6  C   UNL     1       2.405   3.931  -2.172  0.00  0.00    +0.020 A 
ATOM      7  C   UNL     1       3.241   4.838  -2.827  0.00  0.00    +0.013 A 
ATOM      8  C   UNL     1       3.904   4.456  -3.974  0.00  0.00    +0.021 A 
ATOM      9  C   UNL     1       3.733   3.180  -4.484  0.00  0.00    +0.041 A 
ATOM     10  C   UNL     1       2.901   2.278  -3.842  0.00  0.00    +0.021 A 
ATOM     11  C   UNL     1       2.237   2.646  -2.691  0.00  0.00    +0.013 A 
ATOM     12 CL   UNL     1       4.566   2.709  -5.933  0.00  0.00    -0.084 Cl
ENDBRANCH   4   6
BRANCH   5  13
ATOM     13  C   UNL     1       1.095   2.087  -0.045  0.00  0.00    +0.051 A 
ATOM     14  C   UNL     1      -0.109   1.421  -0.233  0.00  0.00    +0.026 A 
ATOM     15  C   UNL     1      -0.134   0.040  -0.266  0.00  0.00    +0.002 A 
ATOM     16  C   UNL     1       1.037  -0.678  -0.113  0.00  0.00    +0.000 A 
ATOM     17  C   UNL     1       2.237  -0.017   0.075  0.00  0.00    +0.002 A 
ATOM     18  C   UNL     1       2.269   1.363   0.109  0.00  0.00    +0.026 A 
ENDBRANCH   5  13
BRANCH   1  19
ATOM     19  S   UNL     1      -0.262   3.790   2.401  0.00  0.00    -0.073 S 
BRANCH  19  21
ATOM     20  C   UNL     1      -1.587   6.173   2.223  0.00  0.00    +0.029 C 
ATOM     21  C   UNL     1      -0.631   5.402   3.136  0.00  0.00    +0.137 C 
BRANCH  21  22
ATOM     22  C   UNL     1      -1.275   5.204   4.484  0.00  0.00    +0.233 C 
ATOM     23  O   UNL     1      -1.794   4.143   4.759  0.00  0.00    -0.274 OA
ATOM     24  N   UNL     1      -1.274   6.207   5.385  0.00  0.00    -0.260 N 
ATOM     25  C   UNL     1      -0.647   7.501   5.080  0.00  0.00    +0.209 C 
ATOM     26  C   UNL     1       0.115   7.979   6.285  0.00  0.00    +0.235 C 
ATOM     27  O   UNL     1       1.088   8.688   6.135  0.00  0.00    -0.274 OA
ATOM     28  N   UNL     1      -0.267   7.628   7.527  0.00  0.00    -0.283 N 
ATOM     29  C   UNL     1      -1.356   6.772   7.725  0.00  0.00    +0.055 A 
ATOM     30  C   UNL     1      -1.867   6.047   6.647  0.00  0.00    +0.058 A 
ATOM     31  C   UNL     1      -2.939   5.191   6.830  0.00  0.00    +0.025 A 
ATOM     32  C   UNL     1      -3.505   5.059   8.086  0.00  0.00    +0.002 A 
ATOM     33  C   UNL     1      -3.002   5.778   9.155  0.00  0.00    +0.002 A 
ATOM     34  C   UNL     1      -1.930   6.634   8.979  0.00  0.00    +0.025 A 
ATOM     35  H   UNL     1       0.218   7.972   8.293  0.00  0.00    +0.155 HD
ENDBRANCH  21  22
ENDBRANCH  19  21
ENDBRANCH   1  19
TORSDOF 5
