REMARK  Name = ZINC39742150
REMARK  8 active torsions:
REMARK  status: ('A' for Active; 'I' for Inactive)
REMARK    1  A    between atoms: C_1  and  C_2
REMARK    2  A    between atoms: C_10  and  C_11
REMARK    3  A    between atoms: C_14  and  S_22
REMARK    4  A    between atoms: N_15  and  C_16
REMARK    5  A    between atoms: S_22  and  C_23
REMARK    6  A    between atoms: C_23  and  C_25
REMARK    7  A    between atoms: C_23  and  C_26
REMARK    8  A    between atoms: C_32  and  C_34
REMARK                            x       y       z     vdW  Elec       q    Type
REMARK                         _______ _______ _______ _____ _____    ______ ____
ROOT
ATOM      1  C   UNL     1       0.031  -0.382   2.484  0.00  0.00    +0.205 A 
ATOM      2  N   UNL     1       0.012   0.863   2.911  0.00  0.00    -0.125 NA
ATOM      3  N   UNL     1       0.025   0.887   4.195  0.00  0.00    -0.122 NA
ATOM      4  C   UNL     1       0.053  -0.338   4.672  0.00  0.00    +0.197 A 
ATOM      5  N   UNL     1       0.053  -1.190   3.602  0.00  0.00    -0.268 N 
ENDROOT
BRANCH   1  15
ATOM      6  C   UNL     1      -0.018   1.503   0.010  0.00  0.00    +0.048 C 
ATOM      7  C   UNL     1       0.002  -0.004   0.002  0.00  0.00    +0.006 A 
ATOM      8  C   UNL     1       0.009  -0.878  -1.172  0.00  0.00    +0.024 A 
ATOM      9  C   UNL     1      -0.002  -0.655  -2.551  0.00  0.00    +0.012 A 
ATOM     10  C   UNL     1       0.009  -1.720  -3.409  0.00  0.00    +0.001 A 
ATOM     11  C   UNL     1       0.029  -3.018  -2.918  0.00  0.00    +0.004 A 
ATOM     12  C   UNL     1       0.039  -3.257  -1.560  0.00  0.00    +0.047 A 
ATOM     13  C   UNL     1       0.030  -2.191  -0.670  0.00  0.00    +0.136 A 
ATOM     14  O   UNL     1       0.035  -2.112   0.677  0.00  0.00    -0.451 OA
ATOM     15  C   UNL     1       0.024  -0.826   1.083  0.00  0.00    +0.176 A 
ENDBRANCH   1  15
BRANCH   5  16
ATOM     16  C   UNL     1       0.074  -2.591   3.635  0.00  0.00    +0.051 A 
ATOM     17  C   UNL     1      -1.007  -3.314   3.148  0.00  0.00    +0.026 A 
ATOM     18  C   UNL     1      -0.983  -4.695   3.180  0.00  0.00    +0.002 A 
ATOM     19  C   UNL     1       0.115  -5.357   3.697  0.00  0.00    +0.000 A 
ATOM     20  C   UNL     1       1.193  -4.639   4.184  0.00  0.00    +0.002 A 
ATOM     21  C   UNL     1       1.177  -3.259   4.148  0.00  0.00    +0.026 A 
ENDBRANCH   5  16
BRANCH   4  22
ATOM     22  S   UNL     1       0.081  -0.796   6.373  0.00  0.00    -0.073 S 
BRANCH  22  23
ATOM     23  C   UNL     1       0.059   0.789   7.255  0.00  0.00    +0.137 C 
ATOM     24  C   UNL     1      -1.265   1.505   6.985  0.00  0.00    +0.029 C 
BRANCH  23  25
ATOM     25  C   UNL     1       0.204   0.542   8.735  0.00  0.00    +0.232 C 
ATOM     26  O   UNL     1      -0.049  -0.551   9.195  0.00  0.00    -0.274 OA
ATOM     27  N   UNL     1       0.615   1.537   9.547  0.00  0.00    -0.262 N 
ATOM     28  C   UNL     1       0.748   1.309  10.912  0.00  0.00    +0.188 A 
ATOM     29  N   UNL     1       0.530   0.203  11.596  0.00  0.00    -0.126 NA
ATOM     30  N   UNL     1       0.696   0.148  12.848  0.00  0.00    -0.144 NA
ATOM     31  C   UNL     1       1.099   1.227  13.489  0.00  0.00    +0.107 A 
ATOM     32  S   UNL     1       1.238   2.373  12.125  0.00  0.00    -0.035 S 
ATOM     33  H   UNL     1       0.817   2.411   9.179  0.00  0.00    +0.157 HD
BRANCH  31  34
ATOM     34  C   UNL     1       1.373   1.433  14.957  0.00  0.00    +0.047 C 
ATOM     35  C   UNL     1       1.363   0.197  15.858  0.00  0.00    +0.011 C 
ATOM     36  C   UNL     1       0.214   1.205  15.930  0.00  0.00    +0.011 C 
ENDBRANCH  31  34
ENDBRANCH  23  25
ENDBRANCH  22  23
ENDBRANCH   4  22
TORSDOF 6
