REMARK  Name = ZINC40404066
REMARK  14 active torsions:
REMARK  status: ('A' for Active; 'I' for Inactive)
REMARK    1  A    between atoms: C_1  and  C_2
REMARK    2  A    between atoms: C_2  and  C_3
REMARK    3  A    between atoms: C_2  and  C_4
REMARK    4  A    between atoms: C_2  and  O_5
REMARK    5  A    between atoms: O_5  and  C_6
REMARK    6  A    between atoms: C_6  and  C_7
REMARK    7  A    between atoms: C_7  and  C_9
REMARK    8  A    between atoms: C_7  and  O_34
REMARK    9  A    between atoms: C_9  and  N_10
REMARK   10  A    between atoms: N_10  and  C_11
REMARK   11  A    between atoms: N_10  and  C_19
REMARK   12  A    between atoms: C_11  and  C_12
REMARK   13  A    between atoms: C_19  and  C_20
REMARK   14  A    between atoms: C_23  and  C_26
REMARK                            x       y       z     vdW  Elec       q    Type
REMARK                         _______ _______ _______ _____ _____    ______ ____
ROOT
ATOM      1  N   UNL     1       4.157  -1.248  -4.266  0.00  0.00    +0.387 N 
ATOM      2  H   UNL     1       3.588  -2.063  -4.439  0.00  0.00    -0.081 HD
ENDROOT
BRANCH   1   3
ATOM      3  C   UNL     1       3.794  -0.666  -2.967  0.00  0.00    -0.044 C 
BRANCH   3   4
ATOM      4  C   UNL     1       2.273  -0.532  -2.874  0.00  0.00    +0.124 C 
BRANCH   4   5
ATOM      5  O   UNL     1       1.839   0.550  -3.700  0.00  0.00    -0.391 OA
ATOM      6  H   UNL     1       1.993   1.425  -3.317  0.00  0.00    +0.210 HD
ENDBRANCH   4   5
BRANCH   4   7
ATOM      7  C   UNL     1       1.872  -0.259  -1.423  0.00  0.00    +0.189 C 
BRANCH   7   8
ATOM      8  O   UNL     1       0.447  -0.249  -1.317  0.00  0.00    -0.372 OA
BRANCH   8  10
ATOM      9  C   UNL     1       0.462   1.365   0.482  0.00  0.00    +0.041 C 
ATOM     10  C   UNL     1      -0.035  -0.001   0.005  0.00  0.00    +0.061 C 
ATOM     11  C   UNL     1       0.481  -1.089   0.949  0.00  0.00    +0.041 C 
ATOM     12  C   UNL     1      -1.565  -0.014   0.001  0.00  0.00    +0.041 C 
ENDBRANCH   8  10
ENDBRANCH   7   8
ENDBRANCH   4   7
ENDBRANCH   3   4
ENDBRANCH   1   3
BRANCH   1  13
ATOM     13  C   UNL     1       3.930  -0.258  -5.327  0.00  0.00    -0.040 C 
BRANCH  13  14
ATOM     14  C   UNL     1       4.743   0.978  -5.042  0.00  0.00    -0.029 A 
ATOM     15  C   UNL     1       4.170   2.044  -4.374  0.00  0.00    +0.004 A 
ATOM     16  C   UNL     1       4.916   3.178  -4.113  0.00  0.00    +0.000 A 
ATOM     17  C   UNL     1       6.236   3.248  -4.520  0.00  0.00    +0.003 A 
ATOM     18  C   UNL     1       6.811   2.184  -5.187  0.00  0.00    +0.038 A 
ATOM     19  C   UNL     1       6.066   1.045  -5.445  0.00  0.00    +0.125 A 
ATOM     20  F   UNL     1       6.628   0.002  -6.093  0.00  0.00    -0.205 F 
ENDBRANCH  13  14
ENDBRANCH   1  13
BRANCH   1  21
ATOM     21  C   UNL     1       5.574  -1.634  -4.251  0.00  0.00    -0.030 C 
BRANCH  21  22
ATOM     22  C   UNL     1       5.841  -2.637  -5.375  0.00  0.00    +0.194 C 
ATOM     23  C   UNL     1       7.355  -2.931  -5.507  0.00  0.00    +0.104 C 
ATOM     24  C   UNL     1       7.537  -3.049  -7.008  0.00  0.00    +0.091 C 
ATOM     25  N   UNL     1       6.494  -2.553  -7.583  0.00  0.00    -0.089 NA
ATOM     26  O   UNL     1       5.539  -2.062  -6.662  0.00  0.00    -0.392 OA
BRANCH  24  27
ATOM     27  C   UNL     1       8.708  -3.632  -7.693  0.00  0.00    +0.001 A 
ATOM     28  C   UNL     1       9.774  -4.142  -6.949  0.00  0.00    +0.011 A 
ATOM     29  C   UNL     1      10.865  -4.685  -7.595  0.00  0.00    +0.022 A 
ATOM     30  C   UNL     1      10.905  -4.726  -8.978  0.00  0.00    +0.059 A 
ATOM     31  C   UNL     1       9.851  -4.222  -9.723  0.00  0.00    +0.060 A 
ATOM     32  C   UNL     1       8.751  -3.680  -9.088  0.00  0.00    +0.031 A 
ATOM     33 CL   UNL     1       9.910  -4.278 -11.457  0.00  0.00    -0.082 Cl
ATOM     34 CL   UNL     1      12.282  -5.411  -9.783  0.00  0.00    -0.082 Cl
ENDBRANCH  24  27
ENDBRANCH  21  22
ENDBRANCH   1  21
TORSDOF 11
