REMARK  Name = ZINC59040054
REMARK  10 active torsions:
REMARK  status: ('A' for Active; 'I' for Inactive)
REMARK    1  A    between atoms: C_1  and  O_2
REMARK    2  A    between atoms: O_2  and  C_3
REMARK    3  A    between atoms: C_5  and  C_13
REMARK    4  A    between atoms: C_6  and  N_10
REMARK    5  A    between atoms: C_8  and  O_9
REMARK    6  A    between atoms: N_14  and  N_15
REMARK    7  A    between atoms: C_18  and  S_21
REMARK    8  A    between atoms: S_21  and  C_22
REMARK    9  A    between atoms: C_22  and  C_23
REMARK   10  A    between atoms: N_25  and  C_26
REMARK                            x       y       z     vdW  Elec       q    Type
REMARK                         _______ _______ _______ _____ _____    ______ ____
ROOT
ATOM      1  N   UNL     1       3.121   0.638   6.271  0.00  0.00    -0.205 N 
ATOM      2  C   UNL     1       3.769   0.081   7.317  0.00  0.00    +0.232 A 
ATOM      3  N   UNL     1       3.786  -1.209   7.639  0.00  0.00    -0.186 NA
ATOM      4  C   UNL     1       4.535  -1.338   8.729  0.00  0.00    +0.211 A 
ATOM      5  N   UNL     1       4.982  -0.132   9.081  0.00  0.00    -0.144 NA
ATOM      6  N   UNL     1       4.537   0.739   8.241  0.00  0.00    -0.245 N 
ATOM      7  H   UNL     1       3.176   1.594   6.120  0.00  0.00    +0.177 HD
ATOM      8  H   UNL     1       4.713   1.692   8.261  0.00  0.00    +0.192 HD
ENDROOT
BRANCH   1  10
ATOM      9  C   UNL     1       1.791   0.446   4.443  0.00  0.00    +0.140 C 
ATOM     10  N   UNL     1       2.429  -0.102   5.473  0.00  0.00    -0.187 NA
BRANCH   9  13
ATOM     11  C   UNL     1      -0.467  -0.560   1.711  0.00  0.00    +0.162 A 
ATOM     12  C   UNL     1       0.262   0.230   2.550  0.00  0.00    +0.061 A 
ATOM     13  C   UNL     1       1.036  -0.361   3.574  0.00  0.00    +0.028 A 
ATOM     14  C   UNL     1       1.050  -1.770   3.719  0.00  0.00    +0.138 A 
ATOM     15  C   UNL     1       0.318  -2.546   2.875  0.00  0.00    +0.082 A 
ATOM     16  C   UNL     1      -0.451  -1.958   1.867  0.00  0.00    +0.161 A 
BRANCH  14  17
ATOM     17  N   UNL     1       1.859  -2.397   4.789  0.00  0.00    +0.057 N 
ATOM     18  O   UNL     1       3.144  -2.126   4.888  0.00  0.00    -0.126 OA
ATOM     19  O   UNL     1       1.294  -3.227   5.642  0.00  0.00    -0.126 OA
ENDBRANCH  14  17
BRANCH  11  21
ATOM     20  C   UNL     1      -1.183   1.430   0.624  0.00  0.00    +0.277 C 
ATOM     21  O   UNL     1      -1.213   0.005   0.726  0.00  0.00    -0.491 OA
ENDBRANCH  11  21
BRANCH  16  22
ATOM     22  O   UNL     1      -1.180  -2.736   1.035  0.00  0.00    -0.503 OA
ATOM     23  H   UNL     1      -0.705  -3.016   0.241  0.00  0.00    +0.292 HD
ENDBRANCH  16  22
ENDBRANCH   9  13
ENDBRANCH   1  10
BRANCH   4  24
ATOM     24  S   UNL     1       4.880  -2.848   9.568  0.00  0.00    -0.075 S 
BRANCH  24  25
ATOM     25  C   UNL     1       5.941  -2.349  10.952  0.00  0.00    +0.173 C 
BRANCH  25  26
ATOM     26  C   UNL     1       6.315  -3.564  11.763  0.00  0.00    +0.227 C 
ATOM     27  O   UNL     1       5.905  -4.659  11.438  0.00  0.00    -0.275 OA
ATOM     28  N   UNL     1       7.103  -3.434  12.848  0.00  0.00    -0.285 N 
ATOM     29  H   UNL     1       7.369  -2.551  13.151  0.00  0.00    +0.155 HD
BRANCH  28  30
ATOM     30  C   UNL     1       7.539  -4.572  13.537  0.00  0.00    +0.036 A 
ATOM     31  C   UNL     1       7.719  -4.525  14.913  0.00  0.00    +0.026 A 
ATOM     32  C   UNL     1       8.148  -5.648  15.593  0.00  0.00    +0.043 A 
ATOM     33  C   UNL     1       8.400  -6.821  14.903  0.00  0.00    +0.159 A 
ATOM     34  C   UNL     1       8.222  -6.872  13.529  0.00  0.00    +0.160 A 
ATOM     35  C   UNL     1       7.786  -5.750  12.847  0.00  0.00    +0.064 A 
ATOM     36  F   UNL     1       8.468  -8.018  12.857  0.00  0.00    -0.202 F 
ATOM     37  F   UNL     1       8.821  -7.919  15.570  0.00  0.00    -0.202 F 
ENDBRANCH  28  30
ENDBRANCH  25  26
ENDBRANCH  24  25
ENDBRANCH   4  24
TORSDOF 9
