REMARK  Name = ZINC13640194
REMARK  6 active torsions:
REMARK  status: ('A' for Active; 'I' for Inactive)
REMARK    1  A    between atoms: C_4  and  C_7
REMARK    2  A    between atoms: C_7  and  O_8
REMARK    3  A    between atoms: O_8  and  C_9
REMARK    4  A    between atoms: C_22  and  C_25
REMARK    5  A    between atoms: C_28  and  O_32
REMARK    6  A    between atoms: C_30  and  O_31
REMARK                            x       y       z     vdW  Elec       q    Type
REMARK                         _______ _______ _______ _____ _____    ______ ____
ROOT
ATOM      1  C   UNL     1       2.442   0.841   3.283  0.00  0.00    +0.121 A 
ATOM      2  C   UNL     1       2.552   2.035   3.980  0.00  0.00    +0.047 A 
ATOM      3  C   UNL     1       2.223   3.223   3.357  0.00  0.00    +0.027 A 
ATOM      4  C   UNL     1       1.784   3.218   2.038  0.00  0.00    +0.032 A 
ATOM      5  C   UNL     1       1.669   2.031   1.339  0.00  0.00    -0.016 A 
ATOM      6  C   UNL     1       2.002   0.840   1.970  0.00  0.00    +0.051 A 
ATOM      7  C   UNL     1       1.196   1.965  -0.088  0.00  0.00    +0.049 C 
ATOM      8  C   UNL     1      -0.054   1.095  -0.115  0.00  0.00    -0.023 C 
ATOM      9  C   UNL     1      -1.130   1.839  -0.083  0.00  0.00    -0.030 C 
ATOM     10  C   UNL     1      -0.757   3.310  -0.025  0.00  0.00    +0.033 C 
ATOM     11  C   UNL     1       0.679   3.322  -0.599  0.00  0.00    +0.029 C 
ATOM     12  C   UNL     1       1.479   4.486  -0.044  0.00  0.00    +0.108 C 
ATOM     13  N   UNL     1       1.462   4.437   1.423  0.00  0.00    -0.336 N 
ATOM     14  H   UNL     1       1.238   5.220   1.948  0.00  0.00    +0.147 HD
ENDROOT
BRANCH  12  15
ATOM     15  C   UNL     1       2.901   4.396  -0.533  0.00  0.00    +0.015 A 
ATOM     16  C   UNL     1       3.892   3.925   0.307  0.00  0.00    +0.012 A 
ATOM     17  C   UNL     1       5.197   3.842  -0.139  0.00  0.00    +0.046 A 
ATOM     18  C   UNL     1       5.516   4.231  -1.433  0.00  0.00    +0.120 A 
ATOM     19  C   UNL     1       4.524   4.704  -2.277  0.00  0.00    +0.091 A 
ATOM     20  C   UNL     1       3.214   4.782  -1.829  0.00  0.00    +0.125 A 
BRANCH  20  21
ATOM     21  O   UNL     1       2.238   5.239  -2.656  0.00  0.00    -0.506 OA
ATOM     22  H   UNL     1       2.104   6.196  -2.615  0.00  0.00    +0.292 HD
ENDBRANCH  20  21
BRANCH  18  23
ATOM     23  O   UNL     1       6.800   4.149  -1.871  0.00  0.00    -0.507 OA
ATOM     24  H   UNL     1       7.022   3.303  -2.282  0.00  0.00    +0.292 HD
ENDBRANCH  18  23
ENDBRANCH  12  15
BRANCH   1  25
ATOM     25  O   UNL     1       2.766  -0.331   3.891  0.00  0.00    -0.487 OA
BRANCH  25  26
ATOM     26  C   UNL     1       3.212  -0.258   5.246  0.00  0.00    +0.264 C 
BRANCH  26  30
ATOM     27  C   UNL     1       4.095  -4.187   6.672  0.00  0.00    +0.000 A 
ATOM     28  C   UNL     1       5.082  -3.435   6.063  0.00  0.00    +0.000 A 
ATOM     29  C   UNL     1       4.796  -2.163   5.601  0.00  0.00    +0.007 A 
ATOM     30  C   UNL     1       3.523  -1.644   5.749  0.00  0.00    -0.010 A 
ATOM     31  C   UNL     1       2.538  -2.394   6.363  0.00  0.00    +0.007 A 
ATOM     32  C   UNL     1       2.822  -3.667   6.820  0.00  0.00    +0.000 A 
ENDBRANCH  26  30
ENDBRANCH  25  26
ENDBRANCH   1  25
TORSDOF 6
