REMARK  Name = ZINC41894827
REMARK  2 active torsions:
REMARK  status: ('A' for Active; 'I' for Inactive)
REMARK    1  A    between atoms: N_5  and  C_9
REMARK    2  A    between atoms: C_9  and  C_15
REMARK                            x       y       z     vdW  Elec       q    Type
REMARK                         _______ _______ _______ _____ _____    ______ ____
ROOT
ATOM      1  C   UNL     1       3.618  -0.709  -0.037  0.00  0.00    +0.168 C 
ATOM      2  C   UNL     1       4.412  -0.340  -1.292  0.00  0.00    +0.042 C 
ATOM      3  C   UNL     1       3.593  -0.695  -2.535  0.00  0.00    +0.003 C 
ATOM      4  C   UNL     1       3.299  -2.196  -2.540  0.00  0.00    +0.000 C 
ATOM      5  C   UNL     1       2.505  -2.565  -1.285  0.00  0.00    +0.003 C 
ATOM      6  C   UNL     1       3.324  -2.210  -0.042  0.00  0.00    +0.042 C 
ENDROOT
BRANCH   1  11
ATOM      7  C   UNL     1      -0.017   1.403   0.010  0.00  0.00    +0.079 A 
ATOM      8  C   UNL     1       1.155   2.094   0.002  0.00  0.00    +0.077 A 
ATOM      9  C   UNL     1       2.373   1.385  -0.013  0.00  0.00    +0.268 A 
ATOM     10  O   UNL     1       3.435   1.987  -0.020  0.00  0.00    -0.266 OA
ATOM     11  N   UNL     1       2.357   0.037  -0.020  0.00  0.00    -0.209 N 
ATOM     12  N   UNL     1       1.139  -0.653  -0.012  0.00  0.00    -0.125 NA
ATOM     13  C   UNL     1       0.002  -0.004   0.002  0.00  0.00    +0.287 A 
ATOM     14  O   UNL     1      -1.168  -0.694   0.009  0.00  0.00    -0.264 OA
ENDBRANCH   1  11
BRANCH   1  15
ATOM     15  C   UNL     1       4.424  -0.359   1.188  0.00  0.00    +0.383 C 
ATOM     16  O   UNL     1       3.986   0.439   1.999  0.00  0.00    -0.244 OA
ATOM     17  O   UNL     1       5.515  -0.874   1.367  0.00  0.00    -0.244 OA
ENDBRANCH   1  15
TORSDOF 2
