REMARK  Name = ZINC34929773
REMARK  14 active torsions:
REMARK  status: ('A' for Active; 'I' for Inactive)
REMARK    1  A    between atoms: C_1  and  C_2
REMARK    2  A    between atoms: C_5  and  C_11
REMARK    3  A    between atoms: C_7  and  N_8
REMARK    4  A    between atoms: N_13  and  C_14
REMARK    5  A    between atoms: N_13  and  C_28
REMARK    6  A    between atoms: C_14  and  C_15
REMARK    7  A    between atoms: C_15  and  C_16
REMARK    8  A    between atoms: C_23  and  O_26
REMARK    9  A    between atoms: O_26  and  C_27
REMARK   10  A    between atoms: C_28  and  C_29
REMARK   11  A    between atoms: C_32  and  O_37
REMARK   12  A    between atoms: C_33  and  O_35
REMARK   13  A    between atoms: O_35  and  C_36
REMARK   14  A    between atoms: O_37  and  C_38
REMARK                            x       y       z     vdW  Elec       q    Type
REMARK                         _______ _______ _______ _____ _____    ______ ____
ROOT
ATOM      1  C   UNL     1       0.428  -4.454  -0.943  0.00  0.00    +0.247 C 
ATOM      2  O   UNL     1       0.746  -5.231  -0.064  0.00  0.00    -0.270 OA
ATOM      3  N   UNL     1       0.132  -4.913  -2.175  0.00  0.00    -0.293 N 
ENDROOT
BRANCH   1   8
ATOM      4  C   UNL     1       0.193   1.190   0.158  0.00  0.00    +0.046 C 
ATOM      5  C   UNL     1       0.254  -0.288  -0.131  0.00  0.00    -0.020 A 
ATOM      6  C   UNL     1      -0.883  -0.957  -0.546  0.00  0.00    +0.006 A 
ATOM      7  C   UNL     1      -0.834  -2.310  -0.812  0.00  0.00    +0.013 A 
ATOM      8  C   UNL     1       0.368  -3.004  -0.661  0.00  0.00    +0.039 A 
ATOM      9  C   UNL     1       1.512  -2.323  -0.242  0.00  0.00    +0.046 A 
ATOM     10  C   UNL     1       1.450  -0.969   0.015  0.00  0.00    +0.130 A 
BRANCH  10  11
ATOM     11  N   UNL     1       2.664  -0.244   0.454  0.00  0.00    +0.057 N 
ATOM     12  O   UNL     1       2.878   0.876   0.050  0.00  0.00    -0.126 OA
ATOM     13  O   UNL     1       3.441  -0.771   1.215  0.00  0.00    -0.126 OA
ENDBRANCH  10  11
ENDBRANCH   1   8
BRANCH   3  14
ATOM     14  C   UNL     1       0.266  -6.341  -2.476  0.00  0.00    +0.113 C 
BRANCH  14  15
ATOM     15  C   UNL     1      -1.055  -7.052  -2.172  0.00  0.00    +0.056 C 
BRANCH  15  16
ATOM     16  C   UNL     1      -0.918  -8.520  -2.481  0.00  0.00    -0.021 A 
ATOM     17  C   UNL     1      -1.258  -9.130  -3.628  0.00  0.00    +0.087 A 
ATOM     18  N   UNL     1      -0.989 -10.468  -3.543  0.00  0.00    -0.360 N 
ATOM     19  H   UNL     1      -1.150 -11.115  -4.247  0.00  0.00    +0.165 HD
ATOM     20  C   UNL     1      -0.455 -10.761  -2.306  0.00  0.00    +0.047 A 
ATOM     21  C   UNL     1      -0.382  -9.552  -1.590  0.00  0.00    +0.006 A 
ATOM     22  C   UNL     1       0.131  -9.540  -0.291  0.00  0.00    +0.056 A 
ATOM     23  C   UNL     1       0.566 -10.718   0.282  0.00  0.00    +0.121 A 
ATOM     24  C   UNL     1       0.495 -11.912  -0.430  0.00  0.00    +0.047 A 
ATOM     25  C   UNL     1      -0.015 -11.938  -1.710  0.00  0.00    +0.030 A 
BRANCH  23  26
ATOM     26  O   UNL     1       1.066 -10.712   1.546  0.00  0.00    -0.495 OA
ATOM     27  C   UNL     1       1.498 -11.966   2.079  0.00  0.00    +0.277 C 
ENDBRANCH  23  26
ENDBRANCH  15  16
ENDBRANCH  14  15
ENDBRANCH   3  14
BRANCH   3  28
ATOM     28  C   UNL     1      -0.323  -3.986  -3.213  0.00  0.00    +0.143 C 
BRANCH  28  29
ATOM     29  C   UNL     1       0.848  -3.573  -4.067  0.00  0.00    -0.026 A 
ATOM     30  C   UNL     1       1.601  -2.468  -3.718  0.00  0.00    +0.009 A 
ATOM     31  C   UNL     1       2.677  -2.086  -4.498  0.00  0.00    +0.050 A 
ATOM     32  C   UNL     1       3.001  -2.811  -5.633  0.00  0.00    +0.162 A 
ATOM     33  C   UNL     1       2.243  -3.923  -5.985  0.00  0.00    +0.162 A 
ATOM     34  C   UNL     1       1.169  -4.304  -5.196  0.00  0.00    +0.054 A 
BRANCH  33  35
ATOM     35  O   UNL     1       2.557  -4.638  -7.098  0.00  0.00    -0.491 OA
ATOM     36  C   UNL     1       1.735  -5.768  -7.398  0.00  0.00    +0.277 C 
ENDBRANCH  33  35
BRANCH  32  37
ATOM     37  O   UNL     1       4.058  -2.436  -6.402  0.00  0.00    -0.491 OA
ATOM     38  C   UNL     1       4.791  -1.284  -5.980  0.00  0.00    +0.277 C 
ENDBRANCH  32  37
ENDBRANCH  28  29
ENDBRANCH   3  28
TORSDOF 10
