REMARK  Name = ZINC41546811
REMARK  7 active torsions:
REMARK  status: ('A' for Active; 'I' for Inactive)
REMARK    1  A    between atoms: C_1  and  C_2
REMARK    2  A    between atoms: C_2  and  C_3
REMARK    3  A    between atoms: C_3  and  C_4
REMARK    4  A    between atoms: C_4  and  C_5
REMARK    5  A    between atoms: C_8  and  N_11
REMARK    6  A    between atoms: C_12  and  C_14
REMARK    7  A    between atoms: C_14  and  C_25
REMARK                            x       y       z     vdW  Elec       q    Type
REMARK                         _______ _______ _______ _____ _____    ______ ____
ROOT
ATOM      1  N   UNL     1       3.394  -3.857  -5.933  0.00  0.00    -0.282 N 
ATOM      2  C   UNL     1       4.737  -3.972  -5.943  0.00  0.00    +0.270 C 
ATOM      3  O   UNL     1       5.370  -3.772  -4.928  0.00  0.00    -0.271 OA
ATOM      4  H   UNL     1       2.882  -4.091  -6.722  0.00  0.00    +0.155 HD
ENDROOT
BRANCH   2   5
ATOM      5  C   UNL     1       5.452  -4.350  -7.215  0.00  0.00    +0.258 C 
ATOM      6  C   UNL     1       6.773  -4.993  -6.876  0.00  0.00    +0.270 C 
ATOM      7  O   UNL     1       7.779  -4.319  -6.810  0.00  0.00    -0.271 OA
ATOM      8  N   UNL     1       6.831  -6.322  -6.647  0.00  0.00    -0.279 N 
ATOM      9  C   UNL     1       5.684  -7.102  -6.852  0.00  0.00    +0.076 A 
ATOM     10  C   UNL     1       5.639  -8.416  -6.414  0.00  0.00    +0.027 A 
ATOM     11  C   UNL     1       4.496  -9.168  -6.612  0.00  0.00    +0.002 A 
ATOM     12  C   UNL     1       3.399  -8.613  -7.245  0.00  0.00    +0.004 A 
ATOM     13  C   UNL     1       3.440  -7.303  -7.688  0.00  0.00    +0.047 A 
ATOM     14  C   UNL     1       4.583  -6.546  -7.499  0.00  0.00    +0.144 A 
ATOM     15  O   UNL     1       4.646  -5.267  -7.958  0.00  0.00    -0.465 OA
ATOM     16  C   UNL     1       5.698  -3.094  -8.053  0.00  0.00    +0.076 C 
ATOM     17  H   UNL     1       7.656  -6.732  -6.345  0.00  0.00    +0.155 HD
ENDBRANCH   2   5
BRANCH   1  21
ATOM     18  C   UNL     1       1.446  -2.497  -2.510  0.00  0.00    -0.047 A 
ATOM     19  C   UNL     1       0.835  -3.431  -3.327  0.00  0.00    +0.005 A 
ATOM     20  C   UNL     1       1.478  -3.884  -4.462  0.00  0.00    +0.023 A 
ATOM     21  C   UNL     1       2.740  -3.400  -4.784  0.00  0.00    +0.034 A 
ATOM     22  C   UNL     1       3.351  -2.462  -3.962  0.00  0.00    +0.023 A 
ATOM     23  C   UNL     1       2.700  -2.010  -2.830  0.00  0.00    +0.005 A 
BRANCH  18  24
ATOM     24  C   UNL     1       0.742  -2.005  -1.272  0.00  0.00    +0.035 C 
BRANCH  24  25
ATOM     25  C   UNL     1      -0.104  -0.779  -1.620  0.00  0.00    +0.004 C 
BRANCH  25  27
ATOM     26  C   UNL     1      -1.666   0.947  -0.711  0.00  0.00    +0.004 C 
ATOM     27  C   UNL     1      -0.820  -0.280  -0.363  0.00  0.00    -0.003 C 
ENDBRANCH  25  27
ENDBRANCH  24  25
ENDBRANCH  18  24
ENDBRANCH   1  21
TORSDOF 5
