REMARK  Name = ZINC43424289
REMARK  3 active torsions:
REMARK  status: ('A' for Active; 'I' for Inactive)
REMARK    1  A    between atoms: C_2  and  N_23
REMARK    2  A    between atoms: C_6  and  S_7
REMARK    3  A    between atoms: S_7  and  N_10
REMARK                            x       y       z     vdW  Elec       q    Type
REMARK                         _______ _______ _______ _____ _____    ______ ____
ROOT
ATOM      1  S   UNL     1      -1.512  -0.904   0.012  0.00  0.00    +0.063 S 
ATOM      2  O   UNL     1      -1.709   0.442  -0.398  0.00  0.00    -0.153 OA
ATOM      3  O   UNL     1      -0.373  -1.316   0.754  0.00  0.00    -0.153 OA
ENDROOT
BRANCH   1   4
ATOM      4  N   UNL     1      -1.539  -1.826  -1.364  0.00  0.00    -0.169 NA
ATOM      5  C   UNL     1      -2.064  -1.321  -2.654  0.00  0.00    +0.138 C 
ATOM      6  C   UNL     1      -3.032  -2.327  -3.275  0.00  0.00    +0.177 C 
ATOM      7  O   UNL     1      -2.520  -3.671  -3.217  0.00  0.00    -0.374 OA
ATOM      8  C   UNL     1      -2.251  -4.056  -1.886  0.00  0.00    +0.137 C 
ATOM      9  C   UNL     1      -1.043  -3.195  -1.403  0.00  0.00    +0.109 C 
ATOM     10  C   UNL     1      -0.662  -3.846  -0.080  0.00  0.00    +0.023 C 
ATOM     11  C   UNL     1      -1.039  -5.342  -0.240  0.00  0.00    +0.004 C 
ATOM     12  C   UNL     1      -1.741  -5.473  -1.629  0.00  0.00    +0.033 C 
ENDBRANCH   1   4
BRANCH   1  18
ATOM     13  C   UNL     1      -2.762  -1.992   2.180  0.00  0.00    +0.055 A 
ATOM     14  C   UNL     1      -3.874  -2.344   2.932  0.00  0.00    +0.062 A 
ATOM     15  C   UNL     1      -5.150  -2.053   2.460  0.00  0.00    +0.145 A 
ATOM     16  C   UNL     1      -5.306  -1.412   1.245  0.00  0.00    +0.062 A 
ATOM     17  C   UNL     1      -4.194  -1.063   0.498  0.00  0.00    +0.070 A 
ATOM     18  C   UNL     1      -2.925  -1.352   0.966  0.00  0.00    +0.126 A 
ATOM     19 CL   UNL     1      -4.393  -0.260  -1.028  0.00  0.00    -0.081 Cl
ATOM     20  F   UNL     1      -6.235  -2.395   3.189  0.00  0.00    -0.204 F 
BRANCH  14  21
ATOM     21  N   UNL     1      -3.713  -2.993   4.161  0.00  0.00    -0.356 N 
ATOM     22  H   UNL     1      -2.822  -3.196   4.489  0.00  0.00    +0.142 HD
ATOM     23  H   UNL     1      -4.490  -3.239   4.686  0.00  0.00    +0.142 HD
ENDBRANCH  14  21
ENDBRANCH   1  18
TORSDOF 3
