REMARK  Name = ZINC10131263
REMARK  9 active torsions:
REMARK  status: ('A' for Active; 'I' for Inactive)
REMARK    1  A    between atoms: C_1  and  C_2
REMARK    2  A    between atoms: C_2  and  N_3
REMARK    3  A    between atoms: C_7  and  N_16
REMARK    4  A    between atoms: C_17  and  C_19
REMARK    5  A    between atoms: C_22  and  S_25
REMARK    6  A    between atoms: S_25  and  N_28
REMARK    7  A    between atoms: N_28  and  C_29
REMARK    8  A    between atoms: N_28  and  C_30
REMARK    9  A    between atoms: C_30  and  C_31
REMARK                            x       y       z     vdW  Elec       q    Type
REMARK                         _______ _______ _______ _____ _____    ______ ____
ROOT
ATOM      1  N   UNL     1       1.381  -2.017  -0.022  0.00  0.00    -0.281 N 
ATOM      2  C   UNL     1       2.594  -2.593  -0.139  0.00  0.00    +0.248 C 
ATOM      3  O   UNL     1       3.596  -1.905  -0.144  0.00  0.00    -0.270 OA
ATOM      4  H   UNL     1       0.587  -2.568   0.048  0.00  0.00    +0.155 HD
ENDROOT
BRANCH   1   9
ATOM      5  N   UNL     1       0.690   3.528  -0.079  0.00  0.00    -0.267 N 
ATOM      6  C   UNL     1       1.101   2.208   0.073  0.00  0.00    +0.045 A 
ATOM      7  C   UNL     1       2.179   1.546   0.636  0.00  0.00    +0.026 A 
ATOM      8  C   UNL     1       2.246   0.157   0.592  0.00  0.00    +0.026 A 
ATOM      9  C   UNL     1       1.269  -0.627  -0.002  0.00  0.00    +0.042 A 
ATOM     10  C   UNL     1       0.158   0.018  -0.586  0.00  0.00    +0.006 A 
ATOM     11  C   UNL     1       0.128   1.412  -0.520  0.00  0.00    +0.017 A 
ATOM     12  C   UNL     1      -0.899   2.205  -1.055  0.00  0.00    +0.047 A 
ATOM     13  C   UNL     1      -1.937   1.538  -1.684  0.00  0.00    +0.014 A 
ATOM     14  C   UNL     1      -1.920   0.147  -1.756  0.00  0.00    +0.001 A 
ATOM     15  C   UNL     1      -0.915  -0.619  -1.226  0.00  0.00    +0.010 A 
ATOM     16  C   UNL     1      -0.496   3.579  -0.741  0.00  0.00    +0.251 C 
ATOM     17  O   UNL     1      -1.113   4.589  -1.026  0.00  0.00    -0.270 OA
BRANCH   5  19
ATOM     18  C   UNL     1       2.391   5.178  -0.681  0.00  0.00    +0.025 C 
ATOM     19  C   UNL     1       1.429   4.696   0.406  0.00  0.00    +0.110 C 
ENDBRANCH   5  19
ENDBRANCH   1   9
BRANCH   2  20
ATOM     20  C   UNL     1       2.706  -4.062  -0.259  0.00  0.00    +0.037 A 
ATOM     21  C   UNL     1       1.557  -4.856  -0.247  0.00  0.00    +0.015 A 
ATOM     22  C   UNL     1       1.668  -6.226  -0.365  0.00  0.00    +0.029 A 
ATOM     23  C   UNL     1       2.915  -6.814  -0.484  0.00  0.00    +0.106 A 
ATOM     24  C   UNL     1       4.057  -6.034  -0.492  0.00  0.00    +0.029 A 
ATOM     25  C   UNL     1       3.960  -4.662  -0.380  0.00  0.00    +0.015 A 
BRANCH  23  26
ATOM     26  S   UNL     1       3.048  -8.565  -0.628  0.00  0.00    +0.061 S 
ATOM     27  O   UNL     1       1.806  -9.026  -1.143  0.00  0.00    -0.153 OA
ATOM     28  O   UNL     1       4.285  -8.827  -1.275  0.00  0.00    -0.153 OA
BRANCH  26  29
ATOM     29  N   UNL     1       3.178  -9.174   0.906  0.00  0.00    -0.172 NA
ATOM     30  C   UNL     1       1.973  -9.544   1.653  0.00  0.00    +0.132 C 
BRANCH  29  31
ATOM     31  C   UNL     1       4.499  -9.342   1.518  0.00  0.00    +0.183 C 
BRANCH  31  32
ATOM     32  C   UNL     1       4.821  -8.132   2.357  0.00  0.00    +0.120 A 
ATOM     33  C   UNL     1       4.528  -7.978   3.661  0.00  0.00    +0.046 A 
ATOM     34  C   UNL     1       5.008  -6.704   4.041  0.00  0.00    +0.041 A 
ATOM     35  C   UNL     1       5.566  -6.155   2.947  0.00  0.00    +0.195 A 
ATOM     36  O   UNL     1       5.455  -7.027   1.931  0.00  0.00    -0.466 OA
ENDBRANCH  31  32
ENDBRANCH  29  31
ENDBRANCH  26  29
ENDBRANCH  23  26
ENDBRANCH   2  20
TORSDOF 7
