REMARK  Name = ZINC49563478
REMARK  7 active torsions:
REMARK  status: ('A' for Active; 'I' for Inactive)
REMARK    1  A    between atoms: C_1  and  C_2
REMARK    2  A    between atoms: C_2  and  S_3
REMARK    3  A    between atoms: S_3  and  N_6
REMARK    4  A    between atoms: C_15  and  C_17
REMARK    5  A    between atoms: C_17  and  N_19
REMARK    6  A    between atoms: N_26  and  C_29
REMARK    7  A    between atoms: C_29  and  C_30
REMARK                            x       y       z     vdW  Elec       q    Type
REMARK                         _______ _______ _______ _____ _____    ______ ____
ROOT
ATOM      1  N   UNL     1      -1.496  -1.894   3.770  0.00  0.00    -0.155 NA
ATOM      2  C   UNL     1      -1.651  -0.893   4.639  0.00  0.00    +0.163 A 
ATOM      3  N   UNL     1      -1.970   0.404   4.384  0.00  0.00    -0.339 N 
ATOM      4  C   UNL     1      -2.083   1.287   5.422  0.00  0.00    +0.024 A 
ATOM      5  C   UNL     1      -1.859   0.772   6.642  0.00  0.00    -0.004 A 
ATOM      6  S   UNL     1      -1.506  -0.931   6.316  0.00  0.00    -0.059 S 
ATOM      7  C   UNL     1      -1.909   1.500   7.944  0.00  0.00    -0.033 C 
ATOM      8  N   UNL     1      -1.875   2.949   7.668  0.00  0.00    +0.386 N 
ATOM      9  C   UNL     1      -2.883   3.277   6.651  0.00  0.00    -0.072 C 
ATOM     10  C   UNL     1      -2.438   2.762   5.278  0.00  0.00    +0.035 C 
ATOM     11  H   UNL     1      -2.115   0.701   3.472  0.00  0.00    +0.167 HD
ATOM     12  H   UNL     1      -0.960   3.205   7.329  0.00  0.00    -0.081 HD
ENDROOT
BRANCH   1  13
ATOM     13  C   UNL     1      -1.651  -1.675   2.471  0.00  0.00    +0.258 C 
ATOM     14  O   UNL     1      -1.935  -0.562   2.071  0.00  0.00    -0.272 OA
BRANCH  13  24
ATOM     15  N   UNL     1      -2.696  -2.954   0.678  0.00  0.00    -0.165 NA
ATOM     16  C   UNL     1      -2.736  -4.064  -0.281  0.00  0.00    +0.145 C 
ATOM     17  C   UNL     1      -1.423  -4.145  -1.018  0.00  0.00    -0.028 A 
ATOM     18  C   UNL     1      -1.356  -4.973  -2.131  0.00  0.00    +0.005 A 
ATOM     19  C   UNL     1      -0.179  -5.096  -2.841  0.00  0.00    +0.000 A 
ATOM     20  C   UNL     1       0.941  -4.392  -2.440  0.00  0.00    +0.000 A 
ATOM     21  C   UNL     1       0.874  -3.567  -1.337  0.00  0.00    +0.004 A 
ATOM     22  C   UNL     1      -0.311  -3.436  -0.624  0.00  0.00    -0.041 A 
ATOM     23  C   UNL     1      -0.317  -2.496   0.553  0.00  0.00    +0.065 C 
ATOM     24  C   UNL     1      -1.476  -2.806   1.490  0.00  0.00    +0.172 C 
BRANCH  15  25
ATOM     25  S   UNL     1      -3.969  -1.907   0.837  0.00  0.00    +0.033 S 
ATOM     26  O   UNL     1      -3.994  -1.573   2.218  0.00  0.00    -0.158 OA
ATOM     27  O   UNL     1      -5.067  -2.576   0.233  0.00  0.00    -0.158 OA
BRANCH  25  29
ATOM     28  C   UNL     1      -4.522   0.663   0.080  0.00  0.00    +0.029 C 
ATOM     29  C   UNL     1      -3.503  -0.456  -0.148  0.00  0.00    +0.182 C 
ENDBRANCH  25  29
ENDBRANCH  15  25
ENDBRANCH  13  24
ENDBRANCH   1  13
BRANCH   8  30
ATOM     30  C   UNL     1      -2.165   3.690   8.902  0.00  0.00    -0.043 C 
BRANCH  30  31
ATOM     31  C   UNL     1      -1.065   3.449   9.903  0.00  0.00    -0.064 A 
ATOM     32  C   UNL     1      -1.154   2.389  10.786  0.00  0.00    +0.002 A 
ATOM     33  C   UNL     1      -0.144   2.168  11.704  0.00  0.00    +0.000 A 
ATOM     34  C   UNL     1       0.954   3.006  11.739  0.00  0.00    +0.000 A 
ATOM     35  C   UNL     1       1.043   4.066  10.856  0.00  0.00    +0.000 A 
ATOM     36  C   UNL     1       0.036   4.284   9.935  0.00  0.00    +0.002 A 
ENDBRANCH  30  31
ENDBRANCH   8  30
TORSDOF 6
