REMARK  Name = ZINC01104949
REMARK  3 active torsions:
REMARK  status: ('A' for Active; 'I' for Inactive)
REMARK    1  A    between atoms: C_3  and  C_6
REMARK    2  A    between atoms: N_8  and  C_9
REMARK    3  A    between atoms: C_10  and  C_15
REMARK                            x       y       z     vdW  Elec       q    Type
REMARK                         _______ _______ _______ _____ _____    ______ ____
ROOT
ATOM      1  C   UNL     1      -1.137  -2.088   0.002  0.00  0.00    +0.102 A 
ATOM      2  C   UNL     1      -2.184  -2.979   0.013  0.00  0.00    +0.108 A 
ATOM      3  N   UNL     1      -1.919  -4.287  -0.003  0.00  0.00    -0.223 NA
ATOM      4  C   UNL     1      -0.678  -4.733  -0.017  0.00  0.00    +0.158 A 
ATOM      5  S   UNL     1       0.255  -3.209  -0.017  0.00  0.00    -0.037 S 
ATOM      6  N   UNL     1      -0.218  -6.041  -0.028  0.00  0.00    -0.337 N 
ATOM      7  H   UNL     1       0.735  -6.220  -0.037  0.00  0.00    +0.144 HD
ATOM      8  H   UNL     1      -0.850  -6.777  -0.025  0.00  0.00    +0.144 HD
ENDROOT
BRANCH   2   9
ATOM      9  C   UNL     1      -3.579  -2.497   0.036  0.00  0.00    +0.040 A 
ATOM     10  C   UNL     1      -4.689  -3.035  -0.561  0.00  0.00    +0.018 A 
ATOM     11  C   UNL     1      -5.902  -2.400  -0.396  0.00  0.00    +0.008 A 
ATOM     12  C   UNL     1      -5.960  -1.268   0.348  0.00  0.00    +0.046 A 
ATOM     13  S   UNL     1      -4.261  -1.065   0.855  0.00  0.00    -0.095 S 
ENDBRANCH   2   9
BRANCH   1  16
ATOM     14  C   UNL     1       0.002  -0.004   0.002  0.00  0.00    +0.284 C 
ATOM     15  O   UNL     1       1.065  -0.598  -0.011  0.00  0.00    -0.266 OA
ATOM     16  N   UNL     1      -1.156  -0.694   0.009  0.00  0.00    -0.272 N 
ATOM     17  H   UNL     1      -2.002  -0.220   0.020  0.00  0.00    +0.156 HD
BRANCH  14  20
ATOM     18  C   UNL     1       0.595   3.598   0.015  0.00  0.00    +0.042 A 
ATOM     19  C   UNL     1       1.076   2.279   0.004  0.00  0.00    +0.054 A 
ATOM     20  C   UNL     1      -0.018   1.462   0.010  0.00  0.00    +0.189 A 
ATOM     21  O   UNL     1      -1.120   2.240   0.019  0.00  0.00    -0.458 OA
ATOM     22  C   UNL     1      -0.755   3.529   0.027  0.00  0.00    +0.196 A 
ENDBRANCH  14  20
ENDBRANCH   1  16
TORSDOF 3
