REMARK  Name = ZINC47145566
REMARK  6 active torsions:
REMARK  status: ('A' for Active; 'I' for Inactive)
REMARK    1  A    between atoms: C_1  and  C_2
REMARK    2  A    between atoms: C_2  and  O_3
REMARK    3  A    between atoms: O_3  and  C_4
REMARK    4  A    between atoms: C_6  and  C_11
REMARK    5  A    between atoms: C_9  and  O_10
REMARK    6  A    between atoms: N_27  and  C_30
REMARK                            x       y       z     vdW  Elec       q    Type
REMARK                         _______ _______ _______ _____ _____    ______ ____
ROOT
ATOM      1  C   UNL     1       0.654  -4.954  -0.018  0.00  0.00    +0.072 C 
ATOM      2  C   UNL     1       0.716  -5.663   1.286  0.00  0.00    +0.033 A 
ATOM      3  C   UNL     1       0.918  -6.972   1.524  0.00  0.00    +0.088 A 
ATOM      4  N   UNL     1       0.955  -7.319   2.856  0.00  0.00    -0.311 N 
ATOM      5  H   UNL     1       1.116  -8.241   3.111  0.00  0.00    +0.170 HD
ATOM      6  C   UNL     1       0.767  -6.382   3.803  0.00  0.00    +0.289 A 
ATOM      7  O   UNL     1       0.763  -6.521   5.013  0.00  0.00    -0.260 OA
ATOM      8  S   UNL     1       0.543  -4.973   2.913  0.00  0.00    -0.030 S 
ATOM      9  S   UNL     1       1.094  -8.133   0.195  0.00  0.00    -0.093 S 
ATOM     10  C   UNL     1       1.442  -7.087  -1.254  0.00  0.00    +0.152 C 
ATOM     11  C   UNL     1       0.573  -5.825  -1.214  0.00  0.00    +0.110 C 
ATOM     12  C   UNL     1      -0.766  -6.306  -1.679  0.00  0.00    +0.232 C 
ATOM     13  O   UNL     1      -1.848  -5.833  -1.406  0.00  0.00    -0.274 OA
ATOM     14  N   UNL     1      -0.521  -7.378  -2.470  0.00  0.00    -0.209 N 
ATOM     15  C   UNL     1       0.763  -7.795  -2.440  0.00  0.00    +0.240 C 
ATOM     16  O   UNL     1       1.282  -8.585  -3.199  0.00  0.00    -0.274 OA
ENDROOT
BRANCH  14  17
ATOM     17  C   UNL     1      -1.508  -7.992  -3.254  0.00  0.00    +0.044 A 
ATOM     18  C   UNL     1      -2.806  -7.500  -3.248  0.00  0.00    +0.025 A 
ATOM     19  C   UNL     1      -3.776  -8.107  -4.022  0.00  0.00    +0.022 A 
ATOM     20  C   UNL     1      -3.455  -9.204  -4.802  0.00  0.00    +0.041 A 
ATOM     21  C   UNL     1      -2.162  -9.696  -4.809  0.00  0.00    +0.022 A 
ATOM     22  C   UNL     1      -1.187  -9.089  -4.042  0.00  0.00    +0.025 A 
ATOM     23 CL   UNL     1      -4.677  -9.964  -5.773  0.00  0.00    -0.084 Cl
ENDBRANCH  14  17
BRANCH   1  26
ATOM     24  C   UNL     1      -1.632  -2.021  -0.683  0.00  0.00    +0.162 A 
ATOM     25  C   UNL     1      -0.523  -2.851  -0.691  0.00  0.00    +0.053 A 
ATOM     26  C   UNL     1      -0.553  -4.052  -0.008  0.00  0.00    -0.035 A 
ATOM     27  C   UNL     1      -1.690  -4.429   0.684  0.00  0.00    +0.008 A 
ATOM     28  C   UNL     1      -2.800  -3.605   0.696  0.00  0.00    +0.049 A 
ATOM     29  C   UNL     1      -2.774  -2.397   0.018  0.00  0.00    +0.158 A 
BRANCH  29  30
ATOM     30  O   UNL     1      -3.863  -1.583   0.034  0.00  0.00    -0.503 OA
ATOM     31  H   UNL     1      -4.489  -1.750  -0.684  0.00  0.00    +0.292 HD
ENDBRANCH  29  30
BRANCH  24  32
ATOM     32  O   UNL     1      -1.603  -0.838  -1.354  0.00  0.00    -0.489 OA
BRANCH  32  34
ATOM     33  C   UNL     1      -0.554   0.840  -2.741  0.00  0.00    +0.048 C 
ATOM     34  C   UNL     1      -0.398  -0.517  -2.052  0.00  0.00    +0.226 C 
ENDBRANCH  32  34
ENDBRANCH  24  32
ENDBRANCH   1  26
TORSDOF 5
