REMARK  Name = ZINC36305030
REMARK  16 active torsions:
REMARK  status: ('A' for Active; 'I' for Inactive)
REMARK    1  A    between atoms: C_1  and  C_2
REMARK    2  A    between atoms: C_2  and  C_3
REMARK    3  A    between atoms: C_2  and  O_4
REMARK    4  A    between atoms: O_4  and  C_5
REMARK    5  A    between atoms: C_5  and  C_6
REMARK    6  A    between atoms: C_6  and  C_8
REMARK    7  A    between atoms: C_6  and  O_35
REMARK    8  A    between atoms: C_8  and  N_9
REMARK    9  A    between atoms: N_9  and  C_10
REMARK   10  A    between atoms: N_9  and  C_31
REMARK   11  A    between atoms: C_10  and  C_11
REMARK   12  A    between atoms: C_12  and  C_25
REMARK   13  A    between atoms: N_14  and  C_24
REMARK   14  A    between atoms: C_15  and  O_16
REMARK   15  A    between atoms: O_16  and  C_17
REMARK   16  A    between atoms: C_31  and  C_32
REMARK                            x       y       z     vdW  Elec       q    Type
REMARK                         _______ _______ _______ _____ _____    ______ ____
ROOT
ATOM      1  C   UNL     1      -6.517  -5.575  -1.344  0.00  0.00    +0.025 A 
ATOM      2  C   UNL     1      -7.551  -5.173  -2.209  0.00  0.00    +0.098 A 
ATOM      3  N   UNL     1      -8.683  -5.661  -1.749  0.00  0.00    -0.168 NA
ATOM      4  N   UNL     1      -8.407  -6.386  -0.583  0.00  0.00    -0.235 N 
ATOM      5  C   UNL     1      -7.070  -6.324  -0.356  0.00  0.00    +0.221 A 
ATOM      6  C   UNL     1      -9.389  -7.092   0.245  0.00  0.00    +0.176 C 
ENDROOT
BRANCH   2   7
ATOM      7  C   UNL     1      -7.393  -4.342  -3.429  0.00  0.00    +0.002 A 
ATOM      8  C   UNL     1      -6.564  -3.222  -3.409  0.00  0.00    +0.010 A 
ATOM      9  C   UNL     1      -6.421  -2.453  -4.546  0.00  0.00    +0.001 A 
ATOM     10  C   UNL     1      -7.099  -2.791  -5.703  0.00  0.00    +0.000 A 
ATOM     11  C   UNL     1      -7.923  -3.902  -5.728  0.00  0.00    +0.001 A 
ATOM     12  C   UNL     1      -8.069  -4.682  -4.599  0.00  0.00    +0.010 A 
ENDBRANCH   2   7
BRANCH   1  13
ATOM     13  C   UNL     1      -5.055  -5.240  -1.491  0.00  0.00    -0.035 C 
BRANCH  13  14
ATOM     14  N   UNL     1      -4.743  -4.048  -0.692  0.00  0.00    +0.384 N 
ATOM     15  H   UNL     1      -5.361  -3.295  -0.956  0.00  0.00    -0.081 HD
BRANCH  14  16
ATOM     16  C   UNL     1      -4.924  -4.353   0.734  0.00  0.00    -0.044 C 
BRANCH  16  17
ATOM     17  C   UNL     1      -4.721  -3.079   1.558  0.00  0.00    +0.124 C 
BRANCH  17  18
ATOM     18  O   UNL     1      -5.747  -2.137   1.239  0.00  0.00    -0.391 OA
ATOM     19  H   UNL     1      -6.642  -2.454   1.421  0.00  0.00    +0.210 HD
ENDBRANCH  17  18
BRANCH  17  20
ATOM     20  C   UNL     1      -4.786  -3.421   3.048  0.00  0.00    +0.189 C 
BRANCH  20  21
ATOM     21  O   UNL     1      -4.481  -2.256   3.817  0.00  0.00    -0.375 OA
BRANCH  21  23
ATOM     22  C   UNL     1      -3.522  -1.521   5.910  0.00  0.00    +0.037 C 
ATOM     23  C   UNL     1      -4.514  -2.466   5.230  0.00  0.00    +0.112 C 
ATOM     24  C   UNL     1      -5.925  -2.189   5.754  0.00  0.00    +0.037 C 
ENDBRANCH  21  23
ENDBRANCH  20  21
ENDBRANCH  17  20
ENDBRANCH  16  17
ENDBRANCH  14  16
BRANCH  14  25
ATOM     25  C   UNL     1      -3.351  -3.646  -0.934  0.00  0.00    -0.075 C 
BRANCH  25  26
ATOM     26  C   UNL     1      -3.189  -3.222  -2.394  0.00  0.00    -0.028 C 
ATOM     27  C   UNL     1      -2.271  -4.069  -3.279  0.00  0.00    +0.002 C 
ATOM     28  C   UNL     1      -1.825  -2.677  -2.825  0.00  0.00    +0.002 C 
ENDBRANCH  25  26
ENDBRANCH  14  25
ENDBRANCH  13  14
ENDBRANCH   1  13
BRANCH   5  29
ATOM     29  O   UNL     1      -6.405  -6.904   0.676  0.00  0.00    -0.437 OA
BRANCH  29  30
ATOM     30  C   UNL     1      -5.933  -8.166   0.502  0.00  0.00    +0.149 A 
ATOM     31  C   UNL     1      -6.043  -8.785  -0.735  0.00  0.00    +0.048 A 
ATOM     32  C   UNL     1      -5.562 -10.068  -0.910  0.00  0.00    +0.004 A 
ATOM     33  C   UNL     1      -4.971 -10.736   0.146  0.00  0.00    +0.002 A 
ATOM     34  C   UNL     1      -4.859 -10.123   1.380  0.00  0.00    +0.024 A 
ATOM     35  C   UNL     1      -5.333  -8.837   1.560  0.00  0.00    +0.083 A 
ATOM     36 CL   UNL     1      -5.186  -8.064   3.107  0.00  0.00    -0.080 Cl
ENDBRANCH  29  30
ENDBRANCH   5  29
TORSDOF 13
