REMARK  Name = ZINC08629126
REMARK  6 active torsions:
REMARK  status: ('A' for Active; 'I' for Inactive)
REMARK    1  A    between atoms: C_7  and  C_22
REMARK    2  A    between atoms: C_12  and  C_13
REMARK    3  A    between atoms: C_16  and  O_19
REMARK    4  A    between atoms: C_22  and  O_24
REMARK    5  A    between atoms: O_24  and  C_25
REMARK    6  A    between atoms: C_25  and  C_26
REMARK                            x       y       z     vdW  Elec       q    Type
REMARK                         _______ _______ _______ _____ _____    ______ ____
ROOT
ATOM      1  C   UNL     1      -0.058   4.102  -0.155  0.00  0.00    +0.001 A 
ATOM      2  C   UNL     1      -1.252   3.389  -0.078  0.00  0.00    +0.002 A 
ATOM      3  C   UNL     1      -1.258   2.029  -0.052  0.00  0.00    +0.028 A 
ATOM      4  C   UNL     1      -0.040   1.324  -0.094  0.00  0.00    +0.072 A 
ATOM      5  C   UNL     1       1.172   2.056  -0.172  0.00  0.00    +0.015 A 
ATOM      6  C   UNL     1       1.141   3.454  -0.202  0.00  0.00    +0.011 A 
ATOM      7  C   UNL     1       2.432   1.314  -0.222  0.00  0.00    +0.073 A 
ATOM      8  C   UNL     1       2.362  -0.071  -0.188  0.00  0.00    -0.007 A 
ATOM      9  C   UNL     1       1.113  -0.709  -0.110  0.00  0.00    +0.072 A 
ATOM     10  N   UNL     1      -0.015  -0.006  -0.067  0.00  0.00    -0.247 NA
ATOM     11  C   UNL     1       1.291  -2.173  -0.087  0.00  0.00    -0.021 C 
ATOM     12  C   UNL     1       0.305  -3.085  -0.018  0.00  0.00    +0.013 C 
ATOM     13  C   UNL     1       2.768  -2.472  -0.157  0.00  0.00    +0.042 C 
ATOM     14  C   UNL     1       3.461  -1.105  -0.222  0.00  0.00    +0.043 C 
ENDROOT
BRANCH  12  15
ATOM     15  C   UNL     1       0.618  -4.519  -0.140  0.00  0.00    -0.024 A 
ATOM     16  C   UNL     1      -0.414  -5.457  -0.235  0.00  0.00    +0.011 A 
ATOM     17  C   UNL     1      -0.116  -6.796  -0.355  0.00  0.00    +0.046 A 
ATOM     18  C   UNL     1       1.208  -7.217  -0.369  0.00  0.00    +0.117 A 
ATOM     19  C   UNL     1       2.237  -6.289  -0.269  0.00  0.00    +0.046 A 
ATOM     20  C   UNL     1       1.949  -4.947  -0.154  0.00  0.00    +0.011 A 
BRANCH  18  21
ATOM     21  O   UNL     1       1.497  -8.539  -0.481  0.00  0.00    -0.507 OA
ATOM     22  H   UNL     1       1.565  -9.000   0.367  0.00  0.00    +0.292 HD
ENDBRANCH  18  21
ENDBRANCH  12  15
BRANCH   7  23
ATOM     23  C   UNL     1       3.731   2.015  -0.304  0.00  0.00    +0.341 C 
ATOM     24  O   UNL     1       4.211   2.280  -1.387  0.00  0.00    -0.245 OA
BRANCH  23  25
ATOM     25  O   UNL     1       4.382   2.360   0.824  0.00  0.00    -0.455 OA
BRANCH  25  26
ATOM     26  C   UNL     1       5.652   3.045   0.668  0.00  0.00    +0.288 C 
BRANCH  26  27
ATOM     27  C   UNL     1       6.229   3.349   2.027  0.00  0.00    +0.087 A 
ATOM     28  C   UNL     1       7.406   2.759   2.437  0.00  0.00    +0.097 A 
ATOM     29  C   UNL     1       7.924   3.052   3.699  0.00  0.00    +0.259 A 
ATOM     30  O   UNL     1       8.966   2.532   4.067  0.00  0.00    -0.267 OA
ATOM     31  N   UNL     1       7.265   3.922   4.521  0.00  0.00    -0.262 N 
ATOM     32  C   UNL     1       7.647   4.309   5.784  0.00  0.00    +0.104 A 
ATOM     33  C   UNL     1       6.914   5.169   6.491  0.00  0.00    +0.067 A 
ATOM     34  S   UNL     1       5.567   5.510   5.369  0.00  0.00    -0.058 S 
ATOM     35  C   UNL     1       6.105   4.462   4.035  0.00  0.00    +0.180 A 
ATOM     36  N   UNL     1       5.615   4.195   2.849  0.00  0.00    -0.224 NA
ENDBRANCH  26  27
ENDBRANCH  25  26
ENDBRANCH  23  25
ENDBRANCH   7  23
TORSDOF 6
