REMARK  Name = ZINC60161532
REMARK  6 active torsions:
REMARK  status: ('A' for Active; 'I' for Inactive)
REMARK    1  A    between atoms: C_4  and  C_7
REMARK    2  A    between atoms: C_7  and  N_8
REMARK    3  A    between atoms: C_13  and  C_15
REMARK    4  A    between atoms: C_15  and  N_16
REMARK    5  A    between atoms: N_22  and  S_25
REMARK    6  A    between atoms: S_25  and  C_28
REMARK                            x       y       z     vdW  Elec       q    Type
REMARK                         _______ _______ _______ _____ _____    ______ ____
ROOT
ATOM      1  N   UNL     1       5.954  -0.211  -0.510  0.00  0.00    -0.301 N 
ATOM      2  C   UNL     1       6.714   0.561  -1.312  0.00  0.00    +0.302 C 
ATOM      3  O   UNL     1       7.807   0.939  -0.934  0.00  0.00    -0.253 OA
ATOM      4  N   UNL     1       6.264   0.913  -2.532  0.00  0.00    -0.283 N 
ATOM      5  C   UNL     1       4.901   0.565  -2.955  0.00  0.00    +0.126 C 
ATOM      6  C   UNL     1       4.176   1.848  -3.380  0.00  0.00    +0.128 C 
ATOM      7  N   UNL     1       5.039   2.588  -4.311  0.00  0.00    -0.174 NA
ATOM      8  C   UNL     1       6.402   2.937  -3.887  0.00  0.00    +0.128 C 
ATOM      9  C   UNL     1       7.125   1.659  -3.461  0.00  0.00    +0.126 C 
ATOM     10  H   UNL     1       5.054  -0.453  -0.780  0.00  0.00    +0.150 HD
ENDROOT
BRANCH   7  11
ATOM     11  S   UNL     1       4.486   3.022  -5.810  0.00  0.00    +0.061 S 
ATOM     12  O   UNL     1       5.632   3.189  -6.634  0.00  0.00    -0.153 OA
ATOM     13  O   UNL     1       3.440   2.116  -6.135  0.00  0.00    -0.153 OA
BRANCH  11  14
ATOM     14  C   UNL     1       3.743   4.612  -5.652  0.00  0.00    +0.105 A 
ATOM     15  C   UNL     1       2.400   4.720  -5.345  0.00  0.00    +0.028 A 
ATOM     16  C   UNL     1       1.818   5.968  -5.221  0.00  0.00    +0.002 A 
ATOM     17  C   UNL     1       2.579   7.107  -5.404  0.00  0.00    +0.000 A 
ATOM     18  C   UNL     1       3.922   6.999  -5.710  0.00  0.00    +0.002 A 
ATOM     19  C   UNL     1       4.506   5.751  -5.830  0.00  0.00    +0.028 A 
ENDBRANCH  11  14
ENDBRANCH   7  11
BRANCH   1  20
ATOM     20  C   UNL     1       6.486  -0.685   0.770  0.00  0.00    +0.090 C 
BRANCH  20  26
ATOM     21  N   UNL     1       5.135  -2.705   0.479  0.00  0.00    +0.385 N 
ATOM     22  C   UNL     1       4.228  -3.662   1.121  0.00  0.00    -0.078 C 
ATOM     23  C   UNL     1       2.916  -2.962   1.486  0.00  0.00    -0.019 C 
ATOM     24  C   UNL     1       3.210  -1.810   2.450  0.00  0.00    -0.003 C 
ATOM     25  C   UNL     1       4.216  -0.856   1.798  0.00  0.00    -0.014 C 
ATOM     26  C   UNL     1       5.479  -1.634   1.422  0.00  0.00    -0.051 C 
ATOM     27  H   UNL     1       4.683  -2.306  -0.331  0.00  0.00    -0.081 HD
BRANCH  21  28
ATOM     28  C   UNL     1       6.361  -3.398   0.061  0.00  0.00    -0.043 C 
BRANCH  28  32
ATOM     29  C   UNL     1       5.408  -6.306  -2.920  0.00  0.00    +0.000 A 
ATOM     30  C   UNL     1       5.734  -5.015  -3.293  0.00  0.00    +0.000 A 
ATOM     31  C   UNL     1       6.042  -4.074  -2.328  0.00  0.00    +0.002 A 
ATOM     32  C   UNL     1       6.024  -4.424  -0.991  0.00  0.00    -0.064 A 
ATOM     33  C   UNL     1       5.697  -5.714  -0.618  0.00  0.00    +0.002 A 
ATOM     34  C   UNL     1       5.390  -6.655  -1.583  0.00  0.00    +0.000 A 
ENDBRANCH  28  32
ENDBRANCH  21  28
ENDBRANCH  20  26
ENDBRANCH   1  20
TORSDOF 6
