REMARK  Name = ZINC66906767
REMARK  4 active torsions:
REMARK  status: ('A' for Active; 'I' for Inactive)
REMARK    1  A    between atoms: C_10  and  C_11
REMARK    2  A    between atoms: C_10  and  O_26
REMARK    3  A    between atoms: C_11  and  N_12
REMARK    4  A    between atoms: N_15  and  C_16
REMARK                            x       y       z     vdW  Elec       q    Type
REMARK                         _______ _______ _______ _____ _____    ______ ____
ROOT
ATOM      1  N   UNL     1       4.826   1.448   0.489  0.00  0.00    -0.296 N 
ATOM      2  C   UNL     1       5.706   2.253   1.116  0.00  0.00    +0.304 C 
ATOM      3  O   UNL     1       6.375   1.823   2.036  0.00  0.00    -0.253 OA
ATOM      4  N   UNL     1       5.846   3.534   0.723  0.00  0.00    -0.268 N 
ATOM      5  H   UNL     1       4.293   1.791  -0.245  0.00  0.00    +0.150 HD
ATOM      6  H   UNL     1       5.268   3.896   0.033  0.00  0.00    +0.156 HD
ENDROOT
BRANCH   4   7
ATOM      7  C   UNL     1       6.824   4.342   1.309  0.00  0.00    +0.061 A 
ATOM      8  C   UNL     1       7.143   4.190   2.640  0.00  0.00    +0.025 A 
ATOM      9  C   UNL     1       8.114   4.988   3.237  0.00  0.00    +0.003 A 
ATOM     10  C   UNL     1       8.775   5.941   2.522  0.00  0.00    +0.010 A 
ATOM     11  C   UNL     1       8.478   6.126   1.162  0.00  0.00    +0.002 A 
ATOM     12  C   UNL     1       7.496   5.317   0.540  0.00  0.00    +0.092 A 
ATOM     13  N   UNL     1       7.215   5.488  -0.754  0.00  0.00    -0.253 NA
ATOM     14  C   UNL     1       7.835   6.391  -1.473  0.00  0.00    +0.111 A 
ATOM     15  C   UNL     1       8.815   7.216  -0.926  0.00  0.00    +0.020 A 
ATOM     16  C   UNL     1       9.143   7.102   0.395  0.00  0.00    +0.011 A 
ENDBRANCH   4   7
BRANCH   1  17
ATOM     17  C   UNL     1       4.674   0.055   0.916  0.00  0.00    +0.145 C 
BRANCH  17  27
ATOM     18  C   UNL     1       3.525  -4.774   1.147  0.00  0.00    +0.000 A 
ATOM     19  C   UNL     1       3.537  -3.767   2.093  0.00  0.00    +0.000 A 
ATOM     20  C   UNL     1       3.600  -2.449   1.689  0.00  0.00    +0.007 A 
ATOM     21  C   UNL     1       3.654  -2.126   0.339  0.00  0.00    -0.011 A 
ATOM     22  C   UNL     1       3.647  -3.130  -0.603  0.00  0.00    -0.041 A 
ATOM     23  C   UNL     1       3.579  -4.456  -0.194  0.00  0.00    +0.004 A 
ATOM     24  C   UNL     1       3.719  -2.854  -2.082  0.00  0.00    +0.035 C 
ATOM     25  C   UNL     1       3.356  -1.400  -2.376  0.00  0.00    +0.008 C 
ATOM     26  C   UNL     1       4.201  -0.498  -1.468  0.00  0.00    +0.041 C 
ATOM     27  C   UNL     1       3.713  -0.667  -0.031  0.00  0.00    +0.107 C 
BRANCH  27  28
ATOM     28  O   UNL     1       2.410  -0.095   0.095  0.00  0.00    -0.382 OA
ATOM     29  H   UNL     1       2.041  -0.150   0.987  0.00  0.00    +0.211 HD
ENDBRANCH  27  28
ENDBRANCH  17  27
ENDBRANCH   1  17
TORSDOF 4
