REMARK  Name = ZINC45599345
REMARK  7 active torsions:
REMARK  status: ('A' for Active; 'I' for Inactive)
REMARK    1  A    between atoms: C_1  and  C_2
REMARK    2  A    between atoms: C_11  and  N_30
REMARK    3  A    between atoms: C_13  and  C_15
REMARK    4  A    between atoms: C_15  and  S_16
REMARK    5  A    between atoms: S_16  and  C_17
REMARK    6  A    between atoms: C_20  and  C_23
REMARK    7  A    between atoms: N_21  and  C_22
REMARK                            x       y       z     vdW  Elec       q    Type
REMARK                         _______ _______ _______ _____ _____    ______ ____
ROOT
ATOM      1  C   UNL     1      -1.835   0.786  -0.165  0.00  0.00    +0.008 C 
ATOM      2  C   UNL     1      -1.361  -0.668  -0.178  0.00  0.00    -0.009 C 
ATOM      3  C   UNL     1      -0.309  -0.856  -1.275  0.00  0.00    +0.008 C 
ATOM      4  C   UNL     1      -0.014  -2.345  -1.460  0.00  0.00    +0.037 C 
ATOM      5  C   UNL     1       0.341  -2.951  -0.105  0.00  0.00    -0.025 A 
ATOM      6  C   UNL     1       0.001  -2.318   1.041  0.00  0.00    -0.004 A 
ATOM      7  S   UNL     1       0.598  -3.361   2.347  0.00  0.00    -0.073 S 
ATOM      8  C   UNL     1       1.303  -4.642   1.360  0.00  0.00    +0.114 A 
ATOM      9  C   UNL     1       1.048  -4.213   0.033  0.00  0.00    +0.051 A 
ATOM     10  C   UNL     1       1.509  -5.059  -1.016  0.00  0.00    +0.128 A 
ATOM     11  N   UNL     1       2.136  -6.170  -0.632  0.00  0.00    -0.216 NA
ATOM     12  C   UNL     1       2.337  -6.504   0.626  0.00  0.00    +0.143 A 
ATOM     13  N   UNL     1       1.934  -5.762   1.651  0.00  0.00    -0.224 NA
ATOM     14  C   UNL     1      -0.729  -1.016   1.177  0.00  0.00    +0.046 C 
ENDROOT
BRANCH  10  15
ATOM     15  N   UNL     1       1.318  -4.747  -2.350  0.00  0.00    -0.343 N 
ATOM     16  H   UNL     1       1.836  -5.200  -3.033  0.00  0.00    +0.144 HD
ATOM     17  H   UNL     1       0.667  -4.074  -2.602  0.00  0.00    +0.144 HD
ENDBRANCH  10  15
BRANCH  12  18
ATOM     18  C   UNL     1       3.061  -7.793   0.918  0.00  0.00    +0.153 C 
BRANCH  18  19
ATOM     19  S   UNL     1       4.845  -7.476   1.017  0.00  0.00    -0.078 S 
BRANCH  19  20
ATOM     20  C   UNL     1       5.541  -9.058   1.358  0.00  0.00    +0.192 A 
ATOM     21  N   UNL     1       4.882 -10.187   1.494  0.00  0.00    -0.122 NA
ATOM     22  N   UNL     1       5.699 -11.148   1.737  0.00  0.00    -0.128 NA
ATOM     23  C   UNL     1       6.930 -10.693   1.771  0.00  0.00    +0.167 A 
ATOM     24  N   UNL     1       6.867  -9.341   1.524  0.00  0.00    -0.305 N 
ATOM     25  C   UNL     1       7.988  -8.401   1.456  0.00  0.00    +0.153 C 
BRANCH  23  26
ATOM     26  C   UNL     1       8.153 -11.484   2.023  0.00  0.00    +0.054 A 
ATOM     27  C   UNL     1       9.107 -11.029   2.934  0.00  0.00    +0.014 A 
ATOM     28  C   UNL     1      10.246 -11.772   3.164  0.00  0.00    +0.001 A 
ATOM     29  C   UNL     1      10.445 -12.967   2.494  0.00  0.00    +0.003 A 
ATOM     30  C   UNL     1       9.505 -13.425   1.590  0.00  0.00    +0.039 A 
ATOM     31  C   UNL     1       8.356 -12.694   1.354  0.00  0.00    +0.134 A 
ATOM     32  F   UNL     1       7.435 -13.145   0.474  0.00  0.00    -0.205 F 
ENDBRANCH  23  26
ENDBRANCH  19  20
ENDBRANCH  18  19
ENDBRANCH  12  18
TORSDOF 5
