REMARK  Name = ZINC00671415
REMARK  11 active torsions:
REMARK  status: ('A' for Active; 'I' for Inactive)
REMARK    1  A    between atoms: C_1  and  C_2
REMARK    2  A    between atoms: C_2  and  N_3
REMARK    3  A    between atoms: N_3  and  C_4
REMARK    4  A    between atoms: N_3  and  S_6
REMARK    5  A    between atoms: C_4  and  C_5
REMARK    6  A    between atoms: S_6  and  C_9
REMARK    7  A    between atoms: C_12  and  N_15
REMARK    8  A    between atoms: C_16  and  C_18
REMARK    9  A    between atoms: C_18  and  C_20
REMARK   10  A    between atoms: C_18  and  O_21
REMARK   11  A    between atoms: O_21  and  C_22
REMARK                            x       y       z     vdW  Elec       q    Type
REMARK                         _______ _______ _______ _____ _____    ______ ____
ROOT
ATOM      1  N   UNL     1       3.713  -4.973  -0.729  0.00  0.00    -0.282 N 
ATOM      2  C   UNL     1       4.745  -4.136  -0.952  0.00  0.00    +0.258 C 
ATOM      3  O   UNL     1       5.658  -4.478  -1.674  0.00  0.00    -0.271 OA
ATOM      4  H   UNL     1       2.949  -4.674  -0.212  0.00  0.00    +0.155 HD
ENDROOT
BRANCH   1   8
ATOM      5  C   UNL     1       3.803  -8.847  -2.259  0.00  0.00    +0.106 A 
ATOM      6  C   UNL     1       4.977  -8.236  -1.859  0.00  0.00    +0.030 A 
ATOM      7  C   UNL     1       4.951  -6.952  -1.351  0.00  0.00    +0.025 A 
ATOM      8  C   UNL     1       3.743  -6.274  -1.243  0.00  0.00    +0.034 A 
ATOM      9  C   UNL     1       2.565  -6.893  -1.640  0.00  0.00    +0.025 A 
ATOM     10  C   UNL     1       2.599  -8.175  -2.153  0.00  0.00    +0.030 A 
BRANCH   5  11
ATOM     11  S   UNL     1       3.841 -10.485  -2.906  0.00  0.00    +0.061 S 
ATOM     12  O   UNL     1       2.682 -10.629  -3.716  0.00  0.00    -0.153 OA
ATOM     13  O   UNL     1       5.153 -10.692  -3.411  0.00  0.00    -0.153 OA
BRANCH  11  14
ATOM     14  N   UNL     1       3.657 -11.521  -1.628  0.00  0.00    -0.177 NA
BRANCH  14  16
ATOM     15  C   UNL     1       1.983 -13.286  -1.879  0.00  0.00    +0.022 C 
ATOM     16  C   UNL     1       2.317 -11.948  -1.218  0.00  0.00    +0.106 C 
ENDBRANCH  14  16
BRANCH  14  17
ATOM     17  C   UNL     1       4.835 -12.012  -0.907  0.00  0.00    +0.106 C 
ATOM     18  C   UNL     1       5.088 -11.129   0.316  0.00  0.00    +0.022 C 
ENDBRANCH  14  17
ENDBRANCH  11  14
ENDBRANCH   5  11
ENDBRANCH   1   8
BRANCH   2  19
ATOM     19  C   UNL     1       4.766  -2.775  -0.305  0.00  0.00    +0.256 C 
ATOM     20  C   UNL     1       3.540  -1.978  -0.754  0.00  0.00    +0.062 C 
BRANCH  19  21
ATOM     21  O   UNL     1       5.954  -2.082  -0.692  0.00  0.00    -0.478 OA
BRANCH  21  22
ATOM     22  C   UNL     1       6.406  -1.115   0.150  0.00  0.00    +0.140 A 
ATOM     23  C   UNL     1       5.660  -0.759   1.264  0.00  0.00    +0.048 A 
ATOM     24  C   UNL     1       6.122   0.223   2.119  0.00  0.00    +0.023 A 
ATOM     25  C   UNL     1       7.328   0.852   1.866  0.00  0.00    +0.043 A 
ATOM     26  C   UNL     1       8.074   0.499   0.756  0.00  0.00    +0.043 A 
ATOM     27  C   UNL     1       7.616  -0.483  -0.103  0.00  0.00    +0.084 A 
ATOM     28 CL   UNL     1       8.553  -0.926  -1.495  0.00  0.00    -0.080 Cl
ATOM     29 CL   UNL     1       7.905   2.085   2.942  0.00  0.00    -0.083 Cl
ENDBRANCH  21  22
ENDBRANCH  19  21
ENDBRANCH   2  19
TORSDOF 8
