REMARK  Name = ZINC08108094
REMARK  4 active torsions:
REMARK  status: ('A' for Active; 'I' for Inactive)
REMARK    1  A    between atoms: C_4  and  S_8
REMARK    2  A    between atoms: S_8  and  N_11
REMARK    3  A    between atoms: N_11  and  N_12
REMARK    4  A    between atoms: C_13  and  C_15
REMARK                            x       y       z     vdW  Elec       q    Type
REMARK                         _______ _______ _______ _____ _____    ______ ____
ROOT
ATOM      1  N   UNL     1      -0.849   3.950  -1.727  0.00  0.00    -0.227 N 
ATOM      2  C   UNL     1      -1.775   4.883  -2.026  0.00  0.00    +0.265 C 
ATOM      3  O   UNL     1      -1.475   6.062  -2.022  0.00  0.00    -0.268 OA
ATOM      4  H   UNL     1      -1.088   3.010  -1.731  0.00  0.00    +0.171 HD
ENDROOT
BRANCH   2   5
ATOM      5  C   UNL     1      -3.144   4.476  -2.355  0.00  0.00    +0.076 A 
ATOM      6  C   UNL     1      -4.231   5.258  -2.679  0.00  0.00    +0.024 A 
ATOM      7  C   UNL     1      -5.441   4.624  -2.971  0.00  0.00    -0.036 A 
ATOM      8  C   UNL     1      -5.474   3.282  -2.848  0.00  0.00    -0.006 A 
ATOM      9  S   UNL     1      -3.846   2.840  -2.433  0.00  0.00    -0.088 S 
ATOM     10  C   UNL     1      -6.590   2.274  -2.935  0.00  0.00    +0.043 C 
ATOM     11  C   UNL     1      -7.945   2.930  -3.203  0.00  0.00    +0.005 C 
ATOM     12  C   UNL     1      -8.097   3.271  -4.676  0.00  0.00    +0.000 C 
ATOM     13  C   UNL     1      -6.806   3.761  -5.301  0.00  0.00    +0.000 C 
ATOM     14  C   UNL     1      -6.706   5.261  -5.006  0.00  0.00    +0.005 C 
ATOM     15  C   UNL     1      -6.599   5.461  -3.495  0.00  0.00    +0.036 C 
ENDBRANCH   2   5
BRANCH   1  16
ATOM     16  N   UNL     1       0.460   4.339  -1.413  0.00  0.00    -0.108 NA
ATOM     17  H   UNL     1       0.963   4.894  -2.029  0.00  0.00    +0.172 HD
BRANCH  16  18
ATOM     18  S   UNL     1       1.149   3.850   0.012  0.00  0.00    +0.076 S 
ATOM     19  O   UNL     1       0.258   4.239   1.048  0.00  0.00    -0.152 OA
ATOM     20  O   UNL     1       2.505   4.275  -0.026  0.00  0.00    -0.152 OA
BRANCH  18  24
ATOM     21  C   UNL     1       1.208  -0.679  -0.013  0.00  0.00    +0.041 A 
ATOM     22  C   UNL     1       0.002  -0.004   0.002  0.00  0.00    +0.043 A 
ATOM     23  C   UNL     1      -0.017   1.380   0.010  0.00  0.00    +0.150 A 
ATOM     24  C   UNL     1       1.173   2.089   0.002  0.00  0.00    +0.145 A 
ATOM     25  C   UNL     1       2.379   1.414  -0.013  0.00  0.00    +0.069 A 
ATOM     26  C   UNL     1       2.397   0.030  -0.021  0.00  0.00    +0.125 A 
ATOM     27  F   UNL     1       3.576  -0.630  -0.035  0.00  0.00    -0.205 F 
ATOM     28  F   UNL     1      -1.196   2.040   0.019  0.00  0.00    -0.203 F 
ENDBRANCH  18  24
ENDBRANCH  16  18
ENDBRANCH   1  16
TORSDOF 4
