REMARK  Name = ZINC08111480
REMARK  8 active torsions:
REMARK  status: ('A' for Active; 'I' for Inactive)
REMARK    1  A    between atoms: C_1  and  C_2
REMARK    2  A    between atoms: C_4  and  S_25
REMARK    3  A    between atoms: C_6  and  N_9
REMARK    4  A    between atoms: C_7  and  C_8
REMARK    5  A    between atoms: N_9  and  S_10
REMARK    6  A    between atoms: S_10  and  C_13
REMARK    7  A    between atoms: C_16  and  C_19
REMARK    8  A    between atoms: S_25  and  N_28
REMARK                            x       y       z     vdW  Elec       q    Type
REMARK                         _______ _______ _______ _____ _____    ______ ____
ROOT
ATOM      1  N   UNL     1      -1.232   4.785   3.695  0.00  0.00    -0.216 N 
ATOM      2  H   UNL     1      -1.223   4.874   4.661  0.00  0.00    +0.174 HD
ENDROOT
BRANCH   1   8
ATOM      3  C   UNL     1      -4.118   0.807   3.742  0.00  0.00    +0.044 C 
ATOM      4  C   UNL     1      -3.027   1.633   3.110  0.00  0.00    -0.044 A 
ATOM      5  C   UNL     1      -2.419   1.198   1.946  0.00  0.00    +0.032 A 
ATOM      6  C   UNL     1      -1.417   1.952   1.363  0.00  0.00    +0.107 A 
ATOM      7  C   UNL     1      -1.018   3.139   1.943  0.00  0.00    +0.053 A 
ATOM      8  C   UNL     1      -1.630   3.582   3.108  0.00  0.00    +0.053 A 
ATOM      9  C   UNL     1      -2.636   2.822   3.692  0.00  0.00    -0.025 A 
ATOM     10  C   UNL     1      -3.301   3.295   4.959  0.00  0.00    +0.046 C 
BRANCH   6  11
ATOM     11  S   UNL     1      -0.646   1.393  -0.120  0.00  0.00    +0.056 S 
ATOM     12  O   UNL     1      -0.818  -0.017  -0.161  0.00  0.00    -0.153 OA
ATOM     13  O   UNL     1       0.635   2.006  -0.166  0.00  0.00    -0.153 OA
BRANCH  11  14
ATOM     14  N   UNL     1      -1.513   2.012  -1.387  0.00  0.00    -0.204 NA
ATOM     15  H   UNL     1      -2.289   2.570  -1.217  0.00  0.00    +0.144 HD
ATOM     16  H   UNL     1      -1.246   1.818  -2.299  0.00  0.00    +0.144 HD
ENDBRANCH  11  14
ENDBRANCH   6  11
ENDBRANCH   1   8
BRANCH   1  17
ATOM     17  S   UNL     1      -0.776   6.060   2.742  0.00  0.00    +0.072 S 
ATOM     18  O   UNL     1      -0.561   7.162   3.613  0.00  0.00    -0.150 OA
ATOM     19  O   UNL     1       0.232   5.573   1.867  0.00  0.00    -0.150 OA
BRANCH  17  20
ATOM     20  C   UNL     1      -2.160   6.478   1.733  0.00  0.00    +0.109 A 
ATOM     21  C   UNL     1      -2.318   5.882   0.496  0.00  0.00    +0.029 A 
ATOM     22  C   UNL     1      -3.406   6.205  -0.293  0.00  0.00    +0.006 A 
ATOM     23  C   UNL     1      -4.330   7.133   0.151  0.00  0.00    -0.044 A 
ATOM     24  C   UNL     1      -4.168   7.733   1.386  0.00  0.00    +0.006 A 
ATOM     25  C   UNL     1      -3.083   7.405   2.177  0.00  0.00    +0.029 A 
BRANCH  23  26
ATOM     26  C   UNL     1      -5.512   7.491  -0.712  0.00  0.00    +0.019 C 
ATOM     27  C   UNL     1      -6.347   6.236  -0.978  0.00  0.00    +0.008 C 
ATOM     28  C   UNL     1      -7.548   6.599  -1.854  0.00  0.00    +0.001 C 
ATOM     29  C   UNL     1      -7.054   7.175  -3.183  0.00  0.00    +0.000 C 
ATOM     30  C   UNL     1      -6.220   8.430  -2.917  0.00  0.00    +0.001 C 
ATOM     31  C   UNL     1      -5.019   8.067  -2.041  0.00  0.00    +0.008 C 
ENDBRANCH  23  26
ENDBRANCH  17  20
ENDBRANCH   1  17
TORSDOF 6
