REMARK  Name = ZINC09152629
REMARK  11 active torsions:
REMARK  status: ('A' for Active; 'I' for Inactive)
REMARK    1  A    between atoms: C_1  and  C_2
REMARK    2  A    between atoms: C_5  and  O_34
REMARK    3  A    between atoms: C_6  and  N_8
REMARK    4  A    between atoms: C_9  and  C_11
REMARK    5  A    between atoms: C_11  and  N_12
REMARK    6  A    between atoms: N_12  and  C_13
REMARK    7  A    between atoms: N_12  and  S_14
REMARK    8  A    between atoms: S_14  and  C_17
REMARK    9  A    between atoms: C_24  and  C_33
REMARK   10  A    between atoms: C_27  and  C_29
REMARK   11  A    between atoms: O_34  and  C_35
REMARK                            x       y       z     vdW  Elec       q    Type
REMARK                         _______ _______ _______ _____ _____    ______ ____
ROOT
ATOM      1  S   UNL     1      -3.325   6.096   5.681  0.00  0.00    +0.061 S 
ATOM      2  O   UNL     1      -2.780   7.172   4.929  0.00  0.00    -0.153 OA
ATOM      3  O   UNL     1      -4.664   6.101   6.157  0.00  0.00    -0.153 OA
ENDROOT
BRANCH   1   4
ATOM      4  C   UNL     1      -3.148   4.649   4.692  0.00  0.00    +0.106 A 
ATOM      5  C   UNL     1      -2.173   4.593   3.713  0.00  0.00    +0.030 A 
ATOM      6  C   UNL     1      -2.031   3.462   2.938  0.00  0.00    +0.026 A 
ATOM      7  C   UNL     1      -2.867   2.362   3.139  0.00  0.00    +0.040 A 
ATOM      8  C   UNL     1      -3.845   2.430   4.119  0.00  0.00    -0.022 A 
ATOM      9  C   UNL     1      -3.983   3.566   4.893  0.00  0.00    +0.034 A 
ATOM     10  C   UNL     1      -4.609   1.125   4.127  0.00  0.00    +0.059 C 
ATOM     11  C   UNL     1      -3.954   0.286   3.017  0.00  0.00    +0.083 C 
ATOM     12  N   UNL     1      -2.895   1.136   2.467  0.00  0.00    -0.268 N 
ATOM     13  C   UNL     1      -2.066   0.786   1.464  0.00  0.00    +0.223 C 
ATOM     14  O   UNL     1      -2.232  -0.263   0.878  0.00  0.00    -0.275 OA
ATOM     15  C   UNL     1      -4.978  -0.055   1.933  0.00  0.00    +0.029 C 
BRANCH  13  16
ATOM     16  C   UNL     1      -0.933   1.698   1.069  0.00  0.00    +0.076 C 
ATOM     17  C   UNL     1      -0.012   1.104  -0.010  0.00  0.00    +0.013 C 
ATOM     18  C   UNL     1      -0.951   1.737  -1.051  0.00  0.00    +0.001 C 
ATOM     19  C   UNL     1      -1.331   2.762   0.031  0.00  0.00    +0.013 C 
ENDBRANCH  13  16
ENDBRANCH   1   4
BRANCH   1  20
ATOM     20  N   UNL     1      -2.352   5.905   7.008  0.00  0.00    -0.171 NA
ATOM     21  C   UNL     1      -2.881   5.276   8.220  0.00  0.00    +0.132 C 
BRANCH  20  22
ATOM     22  C   UNL     1      -0.962   6.366   6.968  0.00  0.00    +0.205 C 
BRANCH  22  24
ATOM     23  N   UNL     1       0.314   8.383   7.620  0.00  0.00    -0.281 N 
ATOM     24  C   UNL     1      -0.876   7.753   7.552  0.00  0.00    +0.233 C 
ATOM     25  O   UNL     1      -1.877   8.302   7.961  0.00  0.00    -0.274 OA
ATOM     26  H   UNL     1       1.102   7.973   7.231  0.00  0.00    +0.155 HD
BRANCH  23  32
ATOM     27  C   UNL     1      -1.680  12.742   8.716  0.00  0.00    +0.044 C 
ATOM     28  C   UNL     1      -0.539  11.761   8.801  0.00  0.00    -0.048 A 
ATOM     29  C   UNL     1       0.604  12.093   9.505  0.00  0.00    +0.007 A 
ATOM     30  C   UNL     1       1.654  11.197   9.586  0.00  0.00    +0.048 A 
ATOM     31  C   UNL     1       1.563   9.964   8.962  0.00  0.00    +0.141 A 
ATOM     32  C   UNL     1       0.412   9.629   8.253  0.00  0.00    +0.076 A 
ATOM     33  C   UNL     1      -0.635  10.535   8.171  0.00  0.00    +0.030 A 
BRANCH  31  34
ATOM     34  O   UNL     1       2.595   9.082   9.041  0.00  0.00    -0.493 OA
ATOM     35  C   UNL     1       3.744   9.493   9.785  0.00  0.00    +0.277 C 
ENDBRANCH  31  34
ENDBRANCH  23  32
ENDBRANCH  22  24
ENDBRANCH  20  22
ENDBRANCH   1  20
TORSDOF 7
