REMARK  Name = ZINC63806827
REMARK  7 active torsions:
REMARK  status: ('A' for Active; 'I' for Inactive)
REMARK    1  A    between atoms: C_1  and  C_2
REMARK    2  A    between atoms: C_5  and  C_14
REMARK    3  A    between atoms: C_6  and  C_13
REMARK    4  A    between atoms: C_14  and  C_16
REMARK    5  A    between atoms: C_16  and  N_17
REMARK    6  A    between atoms: C_20  and  C_25
REMARK    7  A    between atoms: C_25  and  C_26
REMARK                            x       y       z     vdW  Elec       q    Type
REMARK                         _______ _______ _______ _____ _____    ______ ____
ROOT
ATOM      1  N   UNL     1       3.732  -2.716  -3.632  0.00  0.00    -0.217 N 
ATOM      2  C   UNL     1       4.885  -2.151  -4.040  0.00  0.00    +0.244 C 
ATOM      3  O   UNL     1       5.191  -0.980  -3.972  0.00  0.00    -0.273 OA
ATOM      4  C   UNL     1       5.721  -3.284  -4.601  0.00  0.00    +0.165 C 
ATOM      5  N   UNL     1       4.861  -4.468  -4.428  0.00  0.00    -0.287 N 
ATOM      6  C   UNL     1       3.725  -4.036  -3.850  0.00  0.00    +0.310 C 
ATOM      7  O   UNL     1       2.795  -4.764  -3.562  0.00  0.00    -0.252 OA
ATOM      8  H   UNL     1       5.074  -5.380  -4.678  0.00  0.00    +0.151 HD
ENDROOT
BRANCH   1   9
ATOM      9  C   UNL     1       2.625  -1.978  -3.019  0.00  0.00    +0.197 C 
BRANCH   9  10
ATOM     10  C   UNL     1       2.813  -1.940  -1.524  0.00  0.00    +0.178 C 
ATOM     11  O   UNL     1       3.778  -2.479  -1.020  0.00  0.00    -0.291 OA
BRANCH  10  15
ATOM     12  C   UNL     1       0.013   1.534   0.158  0.00  0.00    +0.029 C 
ATOM     13  C   UNL     1       0.014   0.006   0.089  0.00  0.00    +0.082 C 
ATOM     14  C   UNL     1       0.693  -0.475  -1.208  0.00  0.00    +0.062 C 
ATOM     15  C   UNL     1       1.873  -1.284  -0.716  0.00  0.00    +0.015 C 
ATOM     16  C   UNL     1       1.868  -1.268   0.633  0.00  0.00    +0.017 C 
ATOM     17  N   UNL     1       0.841  -0.556   1.165  0.00  0.00    -0.280 N 
ATOM     18  C   UNL     1       0.607  -0.383   2.523  0.00  0.00    +0.165 A 
ATOM     19  N   UNL     1      -0.364   0.285   3.106  0.00  0.00    -0.233 NA
ATOM     20  C   UNL     1      -0.449   0.356   4.422  0.00  0.00    +0.120 A 
ATOM     21  C   UNL     1       0.506  -0.289   5.136  0.00  0.00    +0.068 A 
ATOM     22  S   UNL     1       1.493  -0.984   3.821  0.00  0.00    -0.060 S 
ATOM     23  C   UNL     1       2.902  -1.974   1.470  0.00  0.00    +0.061 C 
ENDBRANCH  10  15
ENDBRANCH   9  10
ENDBRANCH   1   9
BRANCH   4  24
ATOM     24  C   UNL     1       7.021  -3.438  -3.809  0.00  0.00    +0.065 C 
BRANCH  24  25
ATOM     25  C   UNL     1       7.885  -4.486  -4.460  0.00  0.00    -0.039 C 
ATOM     26  C   UNL     1       8.883  -4.279  -5.350  0.00  0.00    -0.001 A 
ATOM     27  C   UNL     1       9.438  -3.063  -5.956  0.00  0.00    +0.010 A 
ATOM     28  C   UNL     1      10.459  -3.176  -6.836  0.00  0.00    +0.001 A 
ATOM     29  C   UNL     1      10.998  -4.422  -7.184  0.00  0.00    +0.002 A 
ATOM     30  C   UNL     1      10.540  -5.584  -6.670  0.00  0.00    +0.026 A 
ATOM     31  C   UNL     1       9.469  -5.583  -5.734  0.00  0.00    +0.043 A 
ATOM     32  N   UNL     1       8.859  -6.558  -5.106  0.00  0.00    -0.380 N 
ATOM     33  C   UNL     1       7.818  -5.982  -4.247  0.00  0.00    +0.144 C 
ATOM     34  H   UNL     1       9.063  -7.502  -5.191  0.00  0.00    +0.160 HD
ENDBRANCH  24  25
ENDBRANCH   4  24
TORSDOF 5
