REMARK  Name = ZINC11516971
REMARK  17 active torsions:
REMARK  status: ('A' for Active; 'I' for Inactive)
REMARK    1  A    between atoms: C_1  and  C_2
REMARK    2  A    between atoms: C_2  and  C_3
REMARK    3  A    between atoms: C_3  and  O_4
REMARK    4  A    between atoms: O_4  and  C_5
REMARK    5  A    between atoms: C_10  and  N_11
REMARK    6  A    between atoms: C_12  and  C_14
REMARK    7  A    between atoms: C_14  and  S_15
REMARK    8  A    between atoms: S_15  and  C_16
REMARK    9  A    between atoms: N_26  and  C_27
REMARK   10  A    between atoms: C_27  and  C_28
REMARK   11  A    between atoms: C_28  and  N_71
REMARK   12  A    between atoms: C_29  and  C_30
REMARK   13  A    between atoms: C_29  and  C_31
REMARK   14  A    between atoms: C_29  and  N_71
REMARK   15  A    between atoms: C_32  and  C_33
REMARK   16  A    between atoms: C_32  and  C_34
REMARK   17  A    between atoms: C_32  and  N_71
REMARK                            x       y       z     vdW  Elec       q    Type
REMARK                         _______ _______ _______ _____ _____    ______ ____
ROOT
ATOM      1  C   UNL     1      -0.716  -1.843  -1.706  0.00  0.00    +0.173 A 
ATOM      2  N   UNL     1      -0.526  -0.653  -2.221  0.00  0.00    -0.223 NA
ATOM      3  C   UNL     1       0.683  -0.264  -2.674  0.00  0.00    +0.079 A 
ATOM      4  C   UNL     1       0.886   1.005  -3.223  0.00  0.00    +0.028 A 
ATOM      5  C   UNL     1       2.128   1.358  -3.669  0.00  0.00    +0.002 A 
ATOM      6  C   UNL     1       3.196   0.474  -3.585  0.00  0.00    +0.001 A 
ATOM      7  C   UNL     1       3.029  -0.775  -3.053  0.00  0.00    +0.015 A 
ATOM      8  C   UNL     1       1.772  -1.162  -2.590  0.00  0.00    +0.065 A 
ATOM      9  C   UNL     1       1.533  -2.490  -2.008  0.00  0.00    +0.262 A 
ATOM     10  O   UNL     1       2.431  -3.306  -1.909  0.00  0.00    -0.267 OA
ATOM     11  N   UNL     1       0.278  -2.771  -1.587  0.00  0.00    -0.289 N 
ENDROOT
BRANCH   1  12
ATOM     12  S   UNL     1      -2.331  -2.264  -1.139  0.00  0.00    -0.078 S 
BRANCH  12  13
ATOM     13  C   UNL     1      -3.210  -0.730  -1.525  0.00  0.00    +0.173 C 
BRANCH  13  15
ATOM     14  N   UNL     1      -5.505   0.165  -1.308  0.00  0.00    -0.282 N 
ATOM     15  C   UNL     1      -4.654  -0.862  -1.115  0.00  0.00    +0.228 C 
ATOM     16  O   UNL     1      -5.050  -1.891  -0.612  0.00  0.00    -0.275 OA
ATOM     17  H   UNL     1      -5.204   0.966  -1.764  0.00  0.00    +0.155 HD
BRANCH  14  23
ATOM     18  C   UNL     1      -7.532   1.231  -0.523  0.00  0.00    +0.142 A 
ATOM     19  C   UNL     1      -8.838   1.135  -0.070  0.00  0.00    +0.047 A 
ATOM     20  C   UNL     1      -9.438  -0.104   0.056  0.00  0.00    +0.004 A 
ATOM     21  C   UNL     1      -8.738  -1.251  -0.269  0.00  0.00    +0.002 A 
ATOM     22  C   UNL     1      -7.437  -1.165  -0.726  0.00  0.00    +0.027 A 
ATOM     23  C   UNL     1      -6.827   0.075  -0.850  0.00  0.00    +0.076 A 
BRANCH  18  24
ATOM     24  O   UNL     1      -6.942   2.449  -0.648  0.00  0.00    -0.490 OA
BRANCH  24  25
ATOM     25  C   UNL     1      -7.726   3.590  -0.294  0.00  0.00    +0.229 C 
BRANCH  25  27
ATOM     26  C   UNL     1      -7.739   6.082  -0.120  0.00  0.00    +0.007 C 
ATOM     27  C   UNL     1      -6.899   4.861  -0.499  0.00  0.00    +0.038 C 
ENDBRANCH  25  27
ENDBRANCH  24  25
ENDBRANCH  18  24
ENDBRANCH  14  23
ENDBRANCH  13  15
ENDBRANCH  12  13
ENDBRANCH   1  12
BRANCH  11  28
ATOM     28  C   UNL     1      -0.015  -4.080  -0.999  0.00  0.00    +0.109 C 
BRANCH  28  29
ATOM     29  C   UNL     1       0.207  -4.021   0.514  0.00  0.00    -0.056 C 
BRANCH  29  30
ATOM     30  N   UNL     1      -0.073  -5.354   1.089  0.00  0.00    +0.384 N 
ATOM     31  H   UNL     1       0.463  -6.060   0.570  0.00  0.00    -0.081 HD
BRANCH  30  32
ATOM     32  C   UNL     1       0.337  -5.388   2.508  0.00  0.00    -0.074 C 
ATOM     33  C   UNL     1       1.824  -5.742   2.579  0.00  0.00    -0.014 C 
ATOM     34  C   UNL     1       0.106  -4.024   3.163  0.00  0.00    -0.014 C 
ENDBRANCH  30  32
BRANCH  30  35
ATOM     35  C   UNL     1      -1.513  -5.663   0.971  0.00  0.00    -0.074 C 
ATOM     36  C   UNL     1      -1.731  -7.138   1.315  0.00  0.00    -0.014 C 
ATOM     37  C   UNL     1      -2.328  -4.791   1.929  0.00  0.00    -0.014 C 
ENDBRANCH  30  35
ENDBRANCH  29  30
ENDBRANCH  28  29
ENDBRANCH  11  28
TORSDOF 12
