REMARK  Name = ZINC36305048
REMARK  14 active torsions:
REMARK  status: ('A' for Active; 'I' for Inactive)
REMARK    1  A    between atoms: C_1  and  N_2
REMARK    2  A    between atoms: C_3  and  O_27
REMARK    3  A    between atoms: C_4  and  C_13
REMARK    4  A    between atoms: C_5  and  C_7
REMARK    5  A    between atoms: C_13  and  N_14
REMARK    6  A    between atoms: N_14  and  C_15
REMARK    7  A    between atoms: N_14  and  C_19
REMARK    8  A    between atoms: C_15  and  C_16
REMARK    9  A    between atoms: C_19  and  C_20
REMARK   10  A    between atoms: C_20  and  C_22
REMARK   11  A    between atoms: C_20  and  O_26
REMARK   12  A    between atoms: C_22  and  C_23
REMARK   13  A    between atoms: C_23  and  C_24
REMARK   14  A    between atoms: O_27  and  C_28
REMARK                            x       y       z     vdW  Elec       q    Type
REMARK                         _______ _______ _______ _____ _____    ______ ____
ROOT
ATOM      1  C   UNL     1       0.342  -0.661   3.274  0.00  0.00    +0.176 C 
ATOM      2  N   UNL     1       0.423  -0.862   1.825  0.00  0.00    -0.235 N 
ATOM      3  C   UNL     1       0.346  -2.054   1.179  0.00  0.00    +0.221 A 
ATOM      4  C   UNL     1       0.465  -1.811  -0.152  0.00  0.00    +0.025 A 
ATOM      5  C   UNL     1       0.620  -0.423  -0.324  0.00  0.00    +0.098 A 
ATOM      6  N   UNL     1       0.588   0.143   0.863  0.00  0.00    -0.168 NA
ENDROOT
BRANCH   5   7
ATOM      7  C   UNL     1       0.783   0.281  -1.621  0.00  0.00    +0.002 A 
ATOM      8  C   UNL     1       1.619  -0.247  -2.602  0.00  0.00    +0.010 A 
ATOM      9  C   UNL     1       1.768   0.411  -3.806  0.00  0.00    +0.001 A 
ATOM     10  C   UNL     1       1.089   1.593  -4.039  0.00  0.00    +0.000 A 
ATOM     11  C   UNL     1       0.258   2.123  -3.068  0.00  0.00    +0.001 A 
ATOM     12  C   UNL     1       0.097   1.469  -1.863  0.00  0.00    +0.010 A 
ENDBRANCH   5   7
BRANCH   4  13
ATOM     13  C   UNL     1       0.437  -2.845  -1.248  0.00  0.00    -0.035 C 
BRANCH  13  14
ATOM     14  N   UNL     1       1.785  -3.398  -1.434  0.00  0.00    +0.384 N 
ATOM     15  H   UNL     1       2.437  -2.646  -1.601  0.00  0.00    -0.081 HD
BRANCH  14  16
ATOM     16  C   UNL     1       1.785  -4.310  -2.586  0.00  0.00    -0.075 C 
BRANCH  16  17
ATOM     17  C   UNL     1       1.482  -3.522  -3.861  0.00  0.00    -0.028 C 
ATOM     18  C   UNL     1       0.190  -3.857  -4.609  0.00  0.00    +0.002 C 
ATOM     19  C   UNL     1       1.542  -4.277  -5.190  0.00  0.00    +0.002 C 
ENDBRANCH  16  17
ENDBRANCH  14  16
BRANCH  14  20
ATOM     20  C   UNL     1       2.183  -4.133  -0.227  0.00  0.00    -0.047 C 
BRANCH  20  21
ATOM     21  C   UNL     1       3.632  -4.603  -0.371  0.00  0.00    +0.098 C 
BRANCH  21  22
ATOM     22  O   UNL     1       4.498  -3.468  -0.425  0.00  0.00    -0.394 OA
ATOM     23  H   UNL     1       4.457  -2.904   0.360  0.00  0.00    +0.210 HD
ENDBRANCH  21  22
BRANCH  21  24
ATOM     24  C   UNL     1       4.008  -5.474   0.830  0.00  0.00    +0.033 C 
BRANCH  24  25
ATOM     25  C   UNL     1       5.412  -6.045   0.626  0.00  0.00    +0.029 C 
BRANCH  25  26
ATOM     26  C   UNL     1       5.782  -6.903   1.809  0.00  0.00    -0.034 C 
ATOM     27  C   UNL     1       6.156  -8.145   1.626  0.00  0.00    +0.004 C 
ENDBRANCH  25  26
ENDBRANCH  24  25
ENDBRANCH  21  24
ENDBRANCH  20  21
ENDBRANCH  14  20
ENDBRANCH  13  14
ENDBRANCH   4  13
BRANCH   3  28
ATOM     28  O   UNL     1       0.181  -3.269   1.759  0.00  0.00    -0.437 OA
BRANCH  28  29
ATOM     29  C   UNL     1      -1.087  -3.714   1.959  0.00  0.00    +0.149 A 
ATOM     30  C   UNL     1      -2.164  -2.981   1.482  0.00  0.00    +0.048 A 
ATOM     31  C   UNL     1      -3.452  -3.436   1.686  0.00  0.00    +0.004 A 
ATOM     32  C   UNL     1      -3.670  -4.620   2.366  0.00  0.00    +0.002 A 
ATOM     33  C   UNL     1      -2.599  -5.353   2.843  0.00  0.00    +0.024 A 
ATOM     34  C   UNL     1      -1.308  -4.906   2.637  0.00  0.00    +0.083 A 
ATOM     35 CL   UNL     1       0.037  -5.830   3.230  0.00  0.00    -0.080 Cl
ENDBRANCH  28  29
ENDBRANCH   3  28
TORSDOF 13
