REMARK  Name = ZINC15955668
REMARK  5 active torsions:
REMARK  status: ('A' for Active; 'I' for Inactive)
REMARK    1  A    between atoms: C_1  and  O_2
REMARK    2  A    between atoms: O_2  and  C_3
REMARK    3  A    between atoms: C_8  and  C_9
REMARK    4  A    between atoms: N_28  and  C_31
REMARK    5  A    between atoms: C_31  and  C_32
REMARK                            x       y       z     vdW  Elec       q    Type
REMARK                         _______ _______ _______ _____ _____    ______ ____
ROOT
ATOM      1  C   UNL     1       3.805  -0.453  -0.301  0.00  0.00    +0.157 C 
ATOM      2  C   UNL     1       4.334   0.251   0.928  0.00  0.00    +0.046 A 
ATOM      3  C   UNL     1       3.775   1.365   1.447  0.00  0.00    -0.015 A 
ATOM      4  C   UNL     1       4.561   1.733   2.607  0.00  0.00    +0.003 A 
ATOM      5  C   UNL     1       4.462   2.781   3.526  0.00  0.00    +0.010 A 
ATOM      6  C   UNL     1       5.401   2.821   4.527  0.00  0.00    +0.001 A 
ATOM      7  C   UNL     1       6.407   1.874   4.630  0.00  0.00    +0.002 A 
ATOM      8  C   UNL     1       6.530   0.827   3.734  0.00  0.00    +0.026 A 
ATOM      9  C   UNL     1       5.589   0.760   2.708  0.00  0.00    +0.047 A 
ATOM     10  N   UNL     1       5.420  -0.118   1.677  0.00  0.00    -0.356 N 
ATOM     11  H   UNL     1       5.983  -0.888   1.502  0.00  0.00    +0.166 HD
ATOM     12  C   UNL     1       2.558   2.055   0.887  0.00  0.00    +0.069 C 
ATOM     13  C   UNL     1       2.333   1.575  -0.553  0.00  0.00    +0.167 C 
ATOM     14  N   UNL     1       2.477   0.120  -0.602  0.00  0.00    -0.276 N 
ATOM     15  C   UNL     1       1.469  -0.702  -0.902  0.00  0.00    +0.234 C 
ATOM     16  O   UNL     1       1.678  -1.896  -0.846  0.00  0.00    -0.274 OA
ATOM     17  C   UNL     1       0.102  -0.252  -1.301  0.00  0.00    +0.204 C 
ATOM     18  N   UNL     1      -0.002   1.196  -1.358  0.00  0.00    -0.284 N 
ATOM     19  C   UNL     1       0.989   2.023  -1.029  0.00  0.00    +0.237 C 
ATOM     20  O   UNL     1       0.788   3.215  -1.121  0.00  0.00    -0.274 OA
ENDROOT
BRANCH   1  26
ATOM     21  C   UNL     1       3.881  -2.844  -1.053  0.00  0.00    +0.125 A 
ATOM     22  C   UNL     1       3.766  -4.203  -0.799  0.00  0.00    +0.046 A 
ATOM     23  C   UNL     1       3.438  -4.642   0.469  0.00  0.00    +0.004 A 
ATOM     24  C   UNL     1       3.230  -3.729   1.486  0.00  0.00    +0.001 A 
ATOM     25  C   UNL     1       3.349  -2.374   1.237  0.00  0.00    +0.009 A 
ATOM     26  C   UNL     1       3.677  -1.930  -0.030  0.00  0.00    +0.020 A 
BRANCH  21  28
ATOM     27  C   UNL     1       4.394  -3.407  -3.305  0.00  0.00    +0.277 C 
ATOM     28  O   UNL     1       4.198  -2.409  -2.301  0.00  0.00    -0.495 OA
ENDBRANCH  21  28
ENDBRANCH   1  26
BRANCH  18  29
ATOM     29  C   UNL     1      -1.267   1.781  -1.810  0.00  0.00    +0.182 C 
BRANCH  29  30
ATOM     30  C   UNL     1      -2.170   2.001  -0.624  0.00  0.00    +0.122 A 
ATOM     31  C   UNL     1      -2.226   3.116   0.127  0.00  0.00    +0.046 A 
ATOM     32  C   UNL     1      -3.203   2.889   1.124  0.00  0.00    +0.041 A 
ATOM     33  C   UNL     1      -3.685   1.650   0.923  0.00  0.00    +0.195 A 
ATOM     34  O   UNL     1      -3.060   1.118  -0.140  0.00  0.00    -0.466 OA
ENDBRANCH  29  30
ENDBRANCH  18  29
TORSDOF 4
