REMARK  Name = ZINC02371933
REMARK  7 active torsions:
REMARK  status: ('A' for Active; 'I' for Inactive)
REMARK    1  A    between atoms: C_2  and  C_3
REMARK    2  A    between atoms: C_3  and  N_4
REMARK    3  A    between atoms: C_5  and  C_26
REMARK    4  A    between atoms: C_6  and  O_16
REMARK    5  A    between atoms: O_16  and  C_17
REMARK    6  A    between atoms: C_17  and  C_19
REMARK    7  A    between atoms: C_26  and  C_28
REMARK                            x       y       z     vdW  Elec       q    Type
REMARK                         _______ _______ _______ _____ _____    ______ ____
ROOT
ATOM      1  N   UNL     1      -2.417   1.242  -0.474  0.00  0.00    -0.192 N 
ATOM      2  C   UNL     1      -3.011   0.093  -1.023  0.00  0.00    +0.142 C 
ATOM      3  C   UNL     1      -3.548   0.077  -2.266  0.00  0.00    +0.167 C 
ATOM      4  C   UNL     1      -3.578   1.234  -3.168  0.00  0.00    +0.046 A 
ATOM      5  C   UNL     1      -4.429   1.243  -4.279  0.00  0.00    +0.013 A 
ATOM      6  C   UNL     1      -4.450   2.337  -5.118  0.00  0.00    +0.001 A 
ATOM      7  C   UNL     1      -3.635   3.428  -4.871  0.00  0.00    +0.002 A 
ATOM      8  C   UNL     1      -2.789   3.430  -3.773  0.00  0.00    +0.029 A 
ATOM      9  C   UNL     1      -2.760   2.346  -2.932  0.00  0.00    +0.119 A 
ATOM     10  S   UNL     1      -1.696   2.315  -1.526  0.00  0.00    +0.076 S 
ATOM     11  O   UNL     1      -1.766   3.600  -0.924  0.00  0.00    -0.150 OA
ATOM     12  O   UNL     1      -0.473   1.726  -1.947  0.00  0.00    -0.150 OA
ENDROOT
BRANCH   2  13
ATOM     13  C   UNL     1      -3.051  -1.091  -0.246  0.00  0.00    +0.212 C 
ATOM     14  O   UNL     1      -2.023  -1.549   0.220  0.00  0.00    -0.285 OA
BRANCH  13  15
ATOM     15  C   UNL     1      -4.341  -1.772  -0.002  0.00  0.00    +0.024 A 
ATOM     16  C   UNL     1      -5.535  -1.186  -0.425  0.00  0.00    +0.012 A 
ATOM     17  C   UNL     1      -6.734  -1.829  -0.199  0.00  0.00    +0.001 A 
ATOM     18  C   UNL     1      -6.756  -3.047   0.456  0.00  0.00    +0.000 A 
ATOM     19  C   UNL     1      -5.577  -3.631   0.884  0.00  0.00    +0.001 A 
ATOM     20  C   UNL     1      -4.371  -3.002   0.659  0.00  0.00    +0.012 A 
ENDBRANCH  13  15
ENDBRANCH   2  13
BRANCH   1  21
ATOM     21  C   UNL     1      -2.436   1.491   0.969  0.00  0.00    +0.158 C 
BRANCH  21  23
ATOM     22  C   UNL     1      -0.424   1.552   2.351  0.00  0.00    +0.005 C 
ATOM     23  C   UNL     1      -1.235   0.841   1.607  0.00  0.00    -0.014 C 
ENDBRANCH  21  23
ENDBRANCH   1  21
BRANCH   3  24
ATOM     24  O   UNL     1      -4.093  -1.083  -2.706  0.00  0.00    -0.420 OA
BRANCH  24  25
ATOM     25  C   UNL     1      -3.500  -1.677  -3.760  0.00  0.00    +0.345 C 
ATOM     26  O   UNL     1      -2.567  -1.133  -4.318  0.00  0.00    -0.245 OA
BRANCH  25  27
ATOM     27  C   UNL     1      -3.983  -2.988  -4.237  0.00  0.00    +0.059 A 
ATOM     28  C   UNL     1      -5.103  -3.579  -3.648  0.00  0.00    +0.016 A 
ATOM     29  C   UNL     1      -5.552  -4.801  -4.102  0.00  0.00    +0.016 A 
ATOM     30  C   UNL     1      -4.888  -5.448  -5.131  0.00  0.00    +0.018 A 
ATOM     31  C   UNL     1      -3.773  -4.870  -5.715  0.00  0.00    +0.016 A 
ATOM     32  C   UNL     1      -3.318  -3.645  -5.274  0.00  0.00    +0.016 A 
ATOM     33 BR   UNL     1      -5.506  -7.128  -5.741  0.00  0.00    -0.050 Br
ENDBRANCH  25  27
ENDBRANCH  24  25
ENDBRANCH   3  24
TORSDOF 7
