REMARK  Name = ZINC09885176
REMARK  8 active torsions:
REMARK  status: ('A' for Active; 'I' for Inactive)
REMARK    1  A    between atoms: C_1  and  O_2
REMARK    2  A    between atoms: O_2  and  C_3
REMARK    3  A    between atoms: C_6  and  C_9
REMARK    4  A    between atoms: C_12  and  C_15
REMARK    5  A    between atoms: C_20  and  C_22
REMARK    6  A    between atoms: C_22  and  S_23
REMARK    7  A    between atoms: S_23  and  C_24
REMARK    8  A    between atoms: C_28  and  C_30
REMARK                            x       y       z     vdW  Elec       q    Type
REMARK                         _______ _______ _______ _____ _____    ______ ____
ROOT
ATOM      1  C   UNL     1       2.492  -2.491  -4.359  0.00  0.00    +0.069 C 
ATOM      2  N   UNL     1       3.054  -1.878  -5.343  0.00  0.00    -0.181 NA
ATOM      3  N   UNL     1       3.602  -2.725  -6.304  0.00  0.00    -0.181 N 
ATOM      4  C   UNL     1       3.370  -4.120  -5.896  0.00  0.00    +0.173 C 
ATOM      5  C   UNL     1       2.614  -3.985  -4.559  0.00  0.00    +0.090 C 
ATOM      6  C   UNL     1       4.240  -2.332  -7.424  0.00  0.00    +0.246 C 
ATOM      7  O   UNL     1       4.679  -3.160  -8.194  0.00  0.00    -0.273 OA
ENDROOT
BRANCH   1  11
ATOM      8  C   UNL     1       0.606  -0.607  -1.055  0.00  0.00    +0.120 A 
ATOM      9  C   UNL     1       1.172   0.165  -2.061  0.00  0.00    +0.046 A 
ATOM     10  C   UNL     1       1.786  -0.442  -3.135  0.00  0.00    +0.013 A 
ATOM     11  C   UNL     1       1.837  -1.837  -3.212  0.00  0.00    -0.002 A 
ATOM     12  C   UNL     1       1.266  -2.609  -2.197  0.00  0.00    +0.013 A 
ATOM     13  C   UNL     1       0.659  -1.993  -1.124  0.00  0.00    +0.046 A 
BRANCH   8  15
ATOM     14  C   UNL     1      -0.017   1.425   0.010  0.00  0.00    +0.277 C 
ATOM     15  O   UNL     1       0.002  -0.004   0.002  0.00  0.00    -0.495 OA
ENDBRANCH   8  15
ENDBRANCH   1  11
BRANCH   4  16
ATOM     16  C   UNL     1       4.679  -4.838  -5.692  0.00  0.00    +0.128 A 
ATOM     17  C   UNL     1       4.938  -6.113  -6.035  0.00  0.00    +0.046 A 
ATOM     18  C   UNL     1       6.278  -6.371  -5.666  0.00  0.00    +0.041 A 
ATOM     19  C   UNL     1       6.758  -5.239  -5.120  0.00  0.00    +0.195 A 
ATOM     20  O   UNL     1       5.787  -4.312  -5.145  0.00  0.00    -0.466 OA
ENDBRANCH   4  16
BRANCH   6  21
ATOM     21  C   UNL     1       4.408  -0.864  -7.719  0.00  0.00    +0.175 C 
BRANCH  21  22
ATOM     22  S   UNL     1       5.301  -0.660  -9.285  0.00  0.00    -0.077 S 
BRANCH  22  23
ATOM     23  C   UNL     1       5.415   1.086  -9.487  0.00  0.00    +0.185 A 
ATOM     24  N   UNL     1       5.999   1.729 -10.523  0.00  0.00    -0.253 N 
ATOM     25  H   UNL     1       6.432   1.321 -11.289  0.00  0.00    +0.191 HD
ATOM     26  N   UNL     1       5.857   3.103 -10.272  0.00  0.00    -0.151 NA
ATOM     27  C   UNL     1       5.214   3.219  -9.130  0.00  0.00    +0.189 A 
ATOM     28  N   UNL     1       4.943   1.992  -8.659  0.00  0.00    -0.200 NA
BRANCH  27  29
ATOM     29  C   UNL     1       4.845   4.492  -8.476  0.00  0.00    +0.058 A 
ATOM     30  C   UNL     1       5.075   5.776  -8.894  0.00  0.00    +0.019 A 
ATOM     31  C   UNL     1       4.633   6.818  -8.109  0.00  0.00    +0.008 A 
ATOM     32  C   UNL     1       3.986   6.543  -6.948  0.00  0.00    +0.046 A 
ATOM     33  S   UNL     1       3.978   4.757  -6.938  0.00  0.00    -0.093 S 
ENDBRANCH  27  29
ENDBRANCH  22  23
ENDBRANCH  21  22
ENDBRANCH   6  21
TORSDOF 7
