REMARK  Name = ZINC11591934
REMARK  7 active torsions:
REMARK  status: ('A' for Active; 'I' for Inactive)
REMARK    1  A    between atoms: C_1  and  C_2
REMARK    2  A    between atoms: C_2  and  C_4
REMARK    3  A    between atoms: C_2  and  S_20
REMARK    4  A    between atoms: C_9  and  C_12
REMARK    5  A    between atoms: S_20  and  C_21
REMARK    6  A    between atoms: C_24  and  C_27
REMARK    7  A    between atoms: N_25  and  N_26
REMARK                            x       y       z     vdW  Elec       q    Type
REMARK                         _______ _______ _______ _____ _____    ______ ____
ROOT
ATOM      1  C   UNL     1       0.002  -0.004   0.002  0.00  0.00    +0.232 C 
ATOM      2  O   UNL     1       0.994  -0.595  -0.370  0.00  0.00    -0.274 OA
ATOM      3  N   UNL     1      -1.082  -0.695   0.408  0.00  0.00    -0.264 N 
ATOM      4  C   UNL     1      -1.063  -2.084   0.400  0.00  0.00    +0.165 A 
ATOM      5  N   UNL     1      -2.009  -2.934   0.754  0.00  0.00    -0.225 NA
ATOM      6  C   UNL     1      -1.819  -4.243   0.683  0.00  0.00    +0.080 A 
ATOM      7  C   UNL     1      -0.620  -4.724   0.233  0.00  0.00    +0.076 A 
ATOM      8  S   UNL     1       0.246  -3.195  -0.099  0.00  0.00    -0.060 S 
ATOM      9  H   UNL     1      -1.875  -0.222   0.705  0.00  0.00    +0.157 HD
ENDROOT
BRANCH   6  10
ATOM     10  C   UNL     1      -2.896  -5.179   1.087  0.00  0.00    +0.004 A 
ATOM     11  C   UNL     1      -4.117  -4.684   1.544  0.00  0.00    +0.013 A 
ATOM     12  C   UNL     1      -5.117  -5.558   1.919  0.00  0.00    +0.042 A 
ATOM     13  C   UNL     1      -4.911  -6.925   1.842  0.00  0.00    +0.158 A 
ATOM     14  C   UNL     1      -3.698  -7.423   1.388  0.00  0.00    +0.159 A 
ATOM     15  C   UNL     1      -2.693  -6.556   1.004  0.00  0.00    +0.051 A 
ATOM     16  F   UNL     1      -3.502  -8.758   1.315  0.00  0.00    -0.202 F 
ATOM     17  F   UNL     1      -5.893  -7.776   2.211  0.00  0.00    -0.202 F 
ENDBRANCH   6  10
BRANCH   1  19
ATOM     18  C   UNL     1      -0.758   2.010  -1.229  0.00  0.00    +0.029 C 
ATOM     19  C   UNL     1      -0.018   1.503   0.010  0.00  0.00    +0.137 C 
BRANCH  19  20
ATOM     20  S   UNL     1       1.680   2.129  -0.003  0.00  0.00    -0.072 S 
BRANCH  20  21
ATOM     21  C   UNL     1       1.370   3.856   0.161  0.00  0.00    +0.209 A 
ATOM     22  N   UNL     1       0.193   4.430   0.259  0.00  0.00    -0.121 NA
ATOM     23  N   UNL     1       0.329   5.704   0.364  0.00  0.00    -0.126 NA
ATOM     24  C   UNL     1       1.604   6.022   0.341  0.00  0.00    +0.188 A 
ATOM     25  N   UNL     1       2.311   4.847   0.216  0.00  0.00    -0.223 N 
BRANCH  24  26
ATOM     26  C   UNL     1       2.170   7.378   0.437  0.00  0.00    +0.058 A 
ATOM     27  C   UNL     1       1.562   8.542   0.835  0.00  0.00    +0.019 A 
ATOM     28  C   UNL     1       2.303   9.703   0.848  0.00  0.00    +0.008 A 
ATOM     29  C   UNL     1       3.603   9.663   0.458  0.00  0.00    +0.046 A 
ATOM     30  S   UNL     1       3.823   7.937   0.059  0.00  0.00    -0.093 S 
ENDBRANCH  24  26
BRANCH  25  31
ATOM     31  N   UNL     1       3.668   4.701   0.155  0.00  0.00    -0.295 N 
ATOM     32  H   UNL     1       3.994   4.746  -0.798  0.00  0.00    +0.163 HD
ATOM     33  H   UNL     1       4.131   5.390   0.729  0.00  0.00    +0.163 HD
ENDBRANCH  25  31
ENDBRANCH  20  21
ENDBRANCH  19  20
ENDBRANCH   1  19
TORSDOF 6
