REMARK  Name = ZINC49506220
REMARK  4 active torsions:
REMARK  status: ('A' for Active; 'I' for Inactive)
REMARK    1  A    between atoms: C_4  and  C_7
REMARK    2  A    between atoms: C_17  and  N_19
REMARK    3  A    between atoms: C_20  and  C_22
REMARK    4  A    between atoms: C_23  and  C_24
REMARK                            x       y       z     vdW  Elec       q    Type
REMARK                         _______ _______ _______ _____ _____    ______ ____
ROOT
ATOM      1  C   UNL     1       3.704  -0.692  -0.062  0.00  0.00    +0.251 C 
ATOM      2  O   UNL     1       2.644  -0.099  -0.002  0.00  0.00    -0.270 OA
ATOM      3  N   UNL     1       3.720  -2.035  -0.175  0.00  0.00    -0.267 N 
ATOM      4  C   UNL     1       4.993  -2.767  -0.198  0.00  0.00    +0.114 C 
ATOM      5  C   UNL     1       4.912  -3.812  -1.319  0.00  0.00    +0.024 C 
ATOM      6  C   UNL     1       3.804  -4.811  -0.983  0.00  0.00    +0.038 C 
ATOM      7  C   UNL     1       2.523  -4.088  -0.658  0.00  0.00    -0.024 A 
ATOM      8  C   UNL     1       2.521  -2.757  -0.266  0.00  0.00    +0.040 A 
ATOM      9  C   UNL     1       1.323  -2.119   0.037  0.00  0.00    +0.025 A 
ATOM     10  C   UNL     1       0.131  -2.808  -0.048  0.00  0.00    +0.025 A 
ATOM     11  C   UNL     1       0.129  -4.141  -0.438  0.00  0.00    +0.034 A 
ATOM     12  C   UNL     1       1.326  -4.776  -0.750  0.00  0.00    +0.028 A 
ENDROOT
BRANCH   1  16
ATOM     13  C   UNL     1       7.356   1.471   0.084  0.00  0.00    +0.000 A 
ATOM     14  C   UNL     1       6.232   2.055  -0.473  0.00  0.00    +0.001 A 
ATOM     15  C   UNL     1       5.043   1.358  -0.524  0.00  0.00    +0.013 A 
ATOM     16  C   UNL     1       4.975   0.061  -0.012  0.00  0.00    +0.037 A 
ATOM     17  C   UNL     1       6.113  -0.522   0.548  0.00  0.00    +0.013 A 
ATOM     18  C   UNL     1       7.296   0.186   0.593  0.00  0.00    +0.001 A 
ENDBRANCH   1  16
BRANCH  11  19
ATOM     19  N   UNL     1      -1.079  -4.843  -0.526  0.00  0.00    -0.282 N 
ATOM     20  C   UNL     1      -1.125  -6.150  -0.201  0.00  0.00    +0.241 C 
ATOM     21  O   UNL     1      -0.100  -6.741   0.088  0.00  0.00    -0.270 OA
ATOM     22  H   UNL     1      -1.884  -4.388  -0.821  0.00  0.00    +0.155 HD
BRANCH  20  23
ATOM     23  C   UNL     1      -2.364  -6.835  -0.195  0.00  0.00    +0.068 C 
ATOM     24  C   UNL     1      -2.409  -8.147   0.131  0.00  0.00    +0.013 C 
BRANCH  24  25
ATOM     25  C   UNL     1      -3.692  -8.858   0.137  0.00  0.00    -0.018 A 
ATOM     26  C   UNL     1      -3.782 -10.256   0.485  0.00  0.00    +0.015 A 
ATOM     27  C   UNL     1      -5.019 -10.790   0.453  0.00  0.00    +0.046 A 
ATOM     28  S   UNL     1      -6.039  -9.418  -0.041  0.00  0.00    -0.104 S 
ATOM     29  C   UNL     1      -4.873  -8.220  -0.184  0.00  0.00    +0.053 A 
ENDBRANCH  24  25
ENDBRANCH  20  23
ENDBRANCH  11  19
TORSDOF 4
