REMARK  Name = ZINC63137358
REMARK  9 active torsions:
REMARK  status: ('A' for Active; 'I' for Inactive)
REMARK    1  A    between atoms: C_1  and  C_2
REMARK    2  A    between atoms: C_6  and  C_8
REMARK    3  A    between atoms: N_27  and  C_30
REMARK    4  A    between atoms: C_30  and  C_31
REMARK    5  A    between atoms: C_31  and  C_32
REMARK    6  A    between atoms: C_35  and  O_40
REMARK    7  A    between atoms: C_36  and  O_38
REMARK    8  A    between atoms: O_38  and  C_39
REMARK    9  A    between atoms: O_40  and  C_41
REMARK                            x       y       z     vdW  Elec       q    Type
REMARK                         _______ _______ _______ _____ _____    ______ ____
ROOT
ATOM      1  C   UNL     1       0.054  -2.845   2.489  0.00  0.00    +0.133 C 
ATOM      2  C   UNL     1      -1.367  -3.305   2.813  0.00  0.00    +0.131 C 
ATOM      3  C   UNL     1      -1.646  -4.483   1.883  0.00  0.00    -0.034 C 
ATOM      4  C   UNL     1      -2.680  -4.138   1.128  0.00  0.00    -0.001 A 
ATOM      5  C   UNL     1      -3.413  -4.864   0.078  0.00  0.00    +0.010 A 
ATOM      6  C   UNL     1      -4.441  -4.196  -0.507  0.00  0.00    +0.001 A 
ATOM      7  C   UNL     1      -4.810  -2.894  -0.158  0.00  0.00    +0.002 A 
ATOM      8  C   UNL     1      -4.194  -2.151   0.796  0.00  0.00    +0.026 A 
ATOM      9  C   UNL     1      -3.097  -2.747   1.484  0.00  0.00    +0.043 A 
ATOM     10  N   UNL     1      -2.340  -2.266   2.450  0.00  0.00    -0.375 N 
ATOM     11  C   UNL     1      -0.796  -5.723   1.919  0.00  0.00    +0.065 C 
ATOM     12  C   UNL     1       0.654  -5.345   2.072  0.00  0.00    +0.167 C 
ATOM     13  N   UNL     1       0.974  -3.966   2.370  0.00  0.00    -0.279 N 
ATOM     14  C   UNL     1       2.313  -3.691   2.507  0.00  0.00    +0.234 C 
ATOM     15  O   UNL     1       2.706  -2.588   2.822  0.00  0.00    -0.274 OA
ATOM     16  C   UNL     1       3.276  -4.830   2.245  0.00  0.00    +0.203 C 
ATOM     17  N   UNL     1       2.841  -5.540   1.028  0.00  0.00    -0.291 N 
ATOM     18  C   UNL     1       1.514  -5.829   0.932  0.00  0.00    +0.237 C 
ATOM     19  O   UNL     1       1.054  -6.439  -0.010  0.00  0.00    -0.274 OA
ATOM     20  H   UNL     1      -2.403  -1.386   2.853  0.00  0.00    +0.160 HD
ENDROOT
BRANCH   1  26
ATOM     21  C   UNL     1      -0.018   1.503   0.010  0.00  0.00    +0.044 C 
ATOM     22  C   UNL     1       0.002  -0.004   0.002  0.00  0.00    -0.050 A 
ATOM     23  C   UNL     1       0.006  -0.689  -1.199  0.00  0.00    +0.003 A 
ATOM     24  C   UNL     1       0.025  -2.071  -1.207  0.00  0.00    +0.001 A 
ATOM     25  C   UNL     1       0.040  -2.768  -0.013  0.00  0.00    +0.005 A 
ATOM     26  C   UNL     1       0.037  -2.084   1.188  0.00  0.00    -0.024 A 
ATOM     27  C   UNL     1       0.023  -0.702   1.195  0.00  0.00    +0.009 A 
ENDBRANCH   1  26
BRANCH  17  28
ATOM     28  C   UNL     1       3.789  -5.914  -0.024  0.00  0.00    +0.113 C 
BRANCH  28  29
ATOM     29  C   UNL     1       4.348  -7.308   0.265  0.00  0.00    +0.054 C 
BRANCH  29  30
ATOM     30  C   UNL     1       5.323  -7.693  -0.818  0.00  0.00    -0.042 A 
ATOM     31  C   UNL     1       4.874  -8.353  -1.947  0.00  0.00    +0.007 A 
ATOM     32  C   UNL     1       5.765  -8.708  -2.943  0.00  0.00    +0.049 A 
ATOM     33  C   UNL     1       7.110  -8.402  -2.811  0.00  0.00    +0.161 A 
ATOM     34  C   UNL     1       7.561  -7.738  -1.675  0.00  0.00    +0.162 A 
ATOM     35  C   UNL     1       6.662  -7.380  -0.682  0.00  0.00    +0.053 A 
BRANCH  34  36
ATOM     36  O   UNL     1       8.880  -7.435  -1.541  0.00  0.00    -0.491 OA
ATOM     37  C   UNL     1       9.271  -6.752  -0.348  0.00  0.00    +0.277 C 
ENDBRANCH  34  36
BRANCH  33  38
ATOM     38  O   UNL     1       7.987  -8.751  -3.790  0.00  0.00    -0.491 OA
ATOM     39  C   UNL     1       7.453  -9.432  -4.927  0.00  0.00    +0.277 C 
ENDBRANCH  33  38
ENDBRANCH  29  30
ENDBRANCH  28  29
ENDBRANCH  17  28
TORSDOF 6
