REMARK  Name = ZINC28060305
REMARK  2 active torsions:
REMARK  status: ('A' for Active; 'I' for Inactive)
REMARK    1  A    between atoms: C_3  and  C_7
REMARK    2  A    between atoms: C_18  and  C_20
REMARK                            x       y       z     vdW  Elec       q    Type
REMARK                         _______ _______ _______ _____ _____    ______ ____
ROOT
ATOM      1  C   UNL     1       0.073   1.019  -0.004  0.00  0.00    +0.175 C 
ATOM      2  C   UNL     1      -0.696   1.544  -1.191  0.00  0.00    +0.026 C 
ATOM      3  C   UNL     1      -1.629   2.489  -1.079  0.00  0.00    +0.050 C 
ATOM      4  C   UNL     1      -2.306   2.963  -2.310  0.00  0.00    +0.039 A 
ATOM      5  C   UNL     1      -3.491   3.687  -2.253  0.00  0.00    +0.033 A 
ATOM      6  C   UNL     1      -4.088   4.110  -3.426  0.00  0.00    +0.042 A 
ATOM      7  C   UNL     1      -3.510   3.815  -4.650  0.00  0.00    +0.023 A 
ATOM      8  C   UNL     1      -2.341   3.095  -4.709  0.00  0.00    +0.048 A 
ATOM      9  C   UNL     1      -1.732   2.665  -3.545  0.00  0.00    +0.131 A 
ATOM     10  O   UNL     1      -0.575   1.955  -3.569  0.00  0.00    -0.479 OA
ATOM     11  C   UNL     1      -0.399   0.965  -2.556  0.00  0.00    +0.235 C 
ATOM     12 CL   UNL     1      -5.569   5.014  -3.365  0.00  0.00    -0.084 Cl
ATOM     13  N   UNL     1      -1.981   3.048   0.155  0.00  0.00    -0.282 N 
ATOM     14  C   UNL     1      -1.525   2.407   1.296  0.00  0.00    +0.240 A 
ATOM     15  N   UNL     1      -0.565   1.448   1.232  0.00  0.00    -0.201 N 
ATOM     16  N   UNL     1      -0.374   1.026   2.547  0.00  0.00    -0.042 NA
ATOM     17  N   UNL     1      -1.181   1.724   3.279  0.00  0.00    -0.021 NA
ATOM     18  N   UNL     1      -1.860   2.539   2.547  0.00  0.00    -0.092 NA
ATOM     19  H   UNL     1      -2.595   3.959   0.191  0.00  0.00    +0.155 HD
ENDROOT
BRANCH  11  20
ATOM     20  C   UNL     1      -1.332  -0.188  -2.821  0.00  0.00    +0.015 A 
ATOM     21  C   UNL     1      -2.528   0.028  -3.481  0.00  0.00    +0.010 A 
ATOM     22  C   UNL     1      -3.381  -1.030  -3.729  0.00  0.00    +0.020 A 
ATOM     23  C   UNL     1      -3.045  -2.305  -3.308  0.00  0.00    +0.042 A 
ATOM     24  C   UNL     1      -1.852  -2.521  -2.643  0.00  0.00    +0.040 A 
ATOM     25  C   UNL     1      -0.995  -1.462  -2.399  0.00  0.00    +0.049 A 
ATOM     26 CL   UNL     1       0.503  -1.731  -1.564  0.00  0.00    -0.083 Cl
ATOM     27 CL   UNL     1      -4.120  -3.633  -3.614  0.00  0.00    -0.083 Cl
ENDBRANCH  11  20
BRANCH   1  30
ATOM     28  C   UNL     1       3.838   1.212  -0.163  0.00  0.00    +0.020 A 
ATOM     29  C   UNL     1       2.559   0.679  -0.124  0.00  0.00    +0.009 A 
ATOM     30  C   UNL     1       1.483   1.550  -0.048  0.00  0.00    -0.001 A 
ATOM     31  C   UNL     1       1.720   2.911  -0.020  0.00  0.00    +0.116 A 
ATOM     32  N   UNL     1       2.950   3.383  -0.053  0.00  0.00    -0.263 NA
ATOM     33  C   UNL     1       3.997   2.584  -0.125  0.00  0.00    +0.111 A 
ENDBRANCH   1  30
TORSDOF 2
