REMARK  Name = ZINC39500327
REMARK  4 active torsions:
REMARK  status: ('A' for Active; 'I' for Inactive)
REMARK    1  A    between atoms: N_8  and  C_18
REMARK    2  A    between atoms: C_10  and  C_13
REMARK    3  A    between atoms: C_18  and  C_19
REMARK    4  A    between atoms: C_26  and  C_28
REMARK                            x       y       z     vdW  Elec       q    Type
REMARK                         _______ _______ _______ _____ _____    ______ ____
ROOT
ATOM      1  C   UNL     1      -0.515  -3.714   3.090  0.00  0.00    +0.200 C 
ATOM      2  O   UNL     1      -1.124  -2.733   2.720  0.00  0.00    -0.278 OA
ATOM      3  N   UNL     1      -1.005  -4.945   2.842  0.00  0.00    -0.293 N 
ATOM      4  C   UNL     1      -0.225  -6.143   3.180  0.00  0.00    +0.108 C 
ATOM      5  C   UNL     1      -0.110  -7.024   1.933  0.00  0.00    +0.019 C 
ATOM      6  C   UNL     1      -1.510  -7.318   1.389  0.00  0.00    +0.004 C 
ATOM      7  C   UNL     1      -2.191  -6.006   0.993  0.00  0.00    +0.030 C 
ATOM      8  C   UNL     1      -2.332  -5.114   2.235  0.00  0.00    +0.142 C 
ENDROOT
BRANCH   8   9
ATOM      9  C   UNL     1      -2.879  -3.768   1.833  0.00  0.00    +0.129 A 
ATOM     10  N   UNL     1      -2.269  -2.916   1.062  0.00  0.00    -0.231 NA
ATOM     11  C   UNL     1      -3.041  -1.810   0.904  0.00  0.00    +0.089 A 
ATOM     12  C   UNL     1      -2.878  -0.615   0.197  0.00  0.00    +0.032 A 
ATOM     13  C   UNL     1      -3.857   0.336   0.233  0.00  0.00    +0.040 A 
ATOM     14  C   UNL     1      -5.019   0.130   0.968  0.00  0.00    +0.125 A 
ATOM     15  C   UNL     1      -5.200  -1.042   1.674  0.00  0.00    +0.066 A 
ATOM     16  C   UNL     1      -4.214  -2.020   1.647  0.00  0.00    +0.069 A 
ATOM     17  N   UNL     1      -4.085  -3.269   2.219  0.00  0.00    -0.340 N 
ATOM     18  F   UNL     1      -5.977   1.083   0.991  0.00  0.00    -0.205 F 
ATOM     19  H   UNL     1      -4.732  -3.709   2.792  0.00  0.00    +0.167 HD
ENDBRANCH   8   9
BRANCH   1  20
ATOM     20  C   UNL     1       0.790  -3.557   3.828  0.00  0.00    +0.019 C 
BRANCH  20  28
ATOM     21  C   UNL     1      -0.307   1.820   2.082  0.00  0.00    +0.000 A 
ATOM     22  C   UNL     1       0.522   2.661   2.802  0.00  0.00    +0.004 A 
ATOM     23  C   UNL     1       1.599   2.145   3.498  0.00  0.00    +0.046 A 
ATOM     24  C   UNL     1       1.847   0.780   3.467  0.00  0.00    +0.123 A 
ATOM     25  C   UNL     1       1.024  -0.054   2.735  0.00  0.00    -0.022 A 
ATOM     26  C   UNL     1      -0.057   0.460   2.048  0.00  0.00    +0.005 A 
ATOM     27  C   UNL     1       1.332  -1.537   2.668  0.00  0.00    -0.038 C 
ATOM     28  N   UNL     1       1.093  -2.129   3.989  0.00  0.00    +0.391 N 
ATOM     29  C   UNL     1       2.259  -1.982   4.853  0.00  0.00    -0.028 C 
ATOM     30  C   UNL     1       2.527  -0.559   5.288  0.00  0.00    +0.188 C 
ATOM     31  O   UNL     1       2.891   0.257   4.167  0.00  0.00    -0.486 OA
ATOM     32  H   UNL     1       0.303  -1.671   4.418  0.00  0.00    -0.080 HD
BRANCH  30  33
ATOM     33  C   UNL     1       3.652  -0.551   6.291  0.00  0.00    -0.002 A 
ATOM     34  C   UNL     1       3.382  -0.571   7.647  0.00  0.00    +0.015 A 
ATOM     35  C   UNL     1       4.416  -0.563   8.523  0.00  0.00    +0.045 A 
ATOM     36  S   UNL     1       5.827  -0.526   7.429  0.00  0.00    -0.105 S 
ATOM     37  C   UNL     1       4.942  -0.530   5.878  0.00  0.00    +0.052 A 
ENDBRANCH  30  33
ENDBRANCH  20  28
ENDBRANCH   1  20
TORSDOF 4
