REMARK  Name = ZINC15303781
REMARK  6 active torsions:
REMARK  status: ('A' for Active; 'I' for Inactive)
REMARK    1  A    between atoms: C_1  and  C_2
REMARK    2  A    between atoms: C_2  and  C_22
REMARK    3  A    between atoms: N_5  and  C_9
REMARK    4  A    between atoms: C_9  and  C_10
REMARK    5  A    between atoms: N_12  and  C_13
REMARK    6  A    between atoms: C_13  and  C_14
REMARK                            x       y       z     vdW  Elec       q    Type
REMARK                         _______ _______ _______ _____ _____    ______ ____
ROOT
ATOM      1  C   UNL     1       0.952   7.989  -1.399  0.00  0.00    +0.047 C 
ATOM      2  C   UNL     1       1.044   7.447   0.029  0.00  0.00    +0.135 C 
ATOM      3  C   UNL     1       2.272   7.994   0.729  0.00  0.00    +0.251 C 
ATOM      4  O   UNL     1       3.430   7.837   0.406  0.00  0.00    -0.272 OA
ATOM      5  N   UNL     1       1.809   8.691   1.786  0.00  0.00    -0.215 N 
ATOM      6  C   UNL     1       0.473   8.660   1.850  0.00  0.00    +0.310 C 
ATOM      7  O   UNL     1      -0.175   9.216   2.715  0.00  0.00    -0.252 OA
ATOM      8  N   UNL     1      -0.074   7.946   0.849  0.00  0.00    -0.281 N 
ATOM      9  H   UNL     1      -1.019   7.790   0.697  0.00  0.00    +0.152 HD
ENDROOT
BRANCH   2  10
ATOM     10  C   UNL     1       1.064   5.940   0.022  0.00  0.00    -0.015 A 
ATOM     11  C   UNL     1       2.286   5.270   0.007  0.00  0.00    +0.007 A 
ATOM     12  C   UNL     1       2.340   3.910  -0.000  0.00  0.00    +0.009 A 
ATOM     13  C   UNL     1       1.147   3.167   0.008  0.00  0.00    -0.018 A 
ATOM     14  C   UNL     1       1.163   1.762   0.000  0.00  0.00    +0.008 A 
ATOM     15  C   UNL     1      -0.013   1.076   0.008  0.00  0.00    +0.001 A 
ATOM     16  C   UNL     1      -1.235   1.746   0.017  0.00  0.00    +0.001 A 
ATOM     17  C   UNL     1      -1.288   3.106   0.031  0.00  0.00    +0.008 A 
ATOM     18  C   UNL     1      -0.096   3.849   0.023  0.00  0.00    -0.018 A 
ATOM     19  C   UNL     1      -0.111   5.254   0.030  0.00  0.00    +0.014 A 
ENDBRANCH   2  10
BRANCH   5  20
ATOM     20  C   UNL     1       2.663   9.393   2.746  0.00  0.00    +0.213 C 
BRANCH  20  21
ATOM     21  C   UNL     1       2.892  10.806   2.275  0.00  0.00    +0.231 C 
ATOM     22  O   UNL     1       2.391  11.188   1.238  0.00  0.00    -0.274 OA
ATOM     23  N   UNL     1       3.654  11.645   3.005  0.00  0.00    -0.310 N 
ATOM     24  H   UNL     1       4.054  11.340   3.833  0.00  0.00    +0.149 HD
BRANCH  23  25
ATOM     25  C   UNL     1       3.876  13.019   2.546  0.00  0.00    +0.141 C 
BRANCH  25  26
ATOM     26  C   UNL     1       4.755  13.742   3.534  0.00  0.00    -0.012 A 
ATOM     27  C   UNL     1       4.193  14.602   4.459  0.00  0.00    +0.008 A 
ATOM     28  C   UNL     1       4.997  15.261   5.369  0.00  0.00    +0.020 A 
ATOM     29  C   UNL     1       6.368  15.069   5.348  0.00  0.00    +0.042 A 
ATOM     30  C   UNL     1       6.931  14.213   4.419  0.00  0.00    +0.040 A 
ATOM     31  C   UNL     1       6.125  13.549   3.512  0.00  0.00    +0.047 A 
ATOM     32 CL   UNL     1       6.831  12.474   2.346  0.00  0.00    -0.083 Cl
ATOM     33 CL   UNL     1       7.379  15.902   6.486  0.00  0.00    -0.083 Cl
ENDBRANCH  25  26
ENDBRANCH  23  25
ENDBRANCH  20  21
ENDBRANCH   5  20
TORSDOF 5
