REMARK  Name = ZINC28675866
REMARK  7 active torsions:
REMARK  status: ('A' for Active; 'I' for Inactive)
REMARK    1  A    between atoms: C_1  and  C_2
REMARK    2  A    between atoms: C_2  and  C_4
REMARK    3  A    between atoms: C_2  and  S_19
REMARK    4  A    between atoms: N_6  and  C_7
REMARK    5  A    between atoms: C_12  and  C_13
REMARK    6  A    between atoms: S_19  and  C_20
REMARK    7  A    between atoms: N_30  and  C_31
REMARK                            x       y       z     vdW  Elec       q    Type
REMARK                         _______ _______ _______ _____ _____    ______ ____
ROOT
ATOM      1  C   UNL     1       1.978   2.625   1.528  0.00  0.00    +0.029 C 
ATOM      2  C   UNL     1       1.491   2.311   0.113  0.00  0.00    +0.137 C 
ENDROOT
BRANCH   2   3
ATOM      3  C   UNL     1       0.140   1.647   0.182  0.00  0.00    +0.230 C 
ATOM      4  O   UNL     1       0.058   0.437   0.166  0.00  0.00    -0.274 OA
ATOM      5  N   UNL     1      -0.977   2.397   0.255  0.00  0.00    -0.284 N 
ATOM      6  H   UNL     1      -0.900   3.489   0.362  0.00  0.00    +0.155 HD
BRANCH   5   7
ATOM      7  C   UNL     1      -2.233   1.787   0.196  0.00  0.00    +0.041 A 
ATOM      8  C   UNL     1      -2.382   0.558  -0.431  0.00  0.00    +0.024 A 
ATOM      9  C   UNL     1      -3.623  -0.045  -0.484  0.00  0.00    +0.002 A 
ATOM     10  C   UNL     1      -4.726   0.576   0.076  0.00  0.00    +0.001 A 
ATOM     11  C   UNL     1      -4.594   1.801   0.698  0.00  0.00    +0.010 A 
ATOM     12  C   UNL     1      -3.347   2.416   0.763  0.00  0.00    +0.003 A 
BRANCH  12  13
ATOM     13  C   UNL     1      -3.199   3.732   1.431  0.00  0.00    -0.016 A 
ATOM     14  C   UNL     1      -2.207   3.922   2.391  0.00  0.00    +0.008 A 
ATOM     15  C   UNL     1      -2.071   5.151   3.006  0.00  0.00    +0.001 A 
ATOM     16  C   UNL     1      -2.925   6.189   2.678  0.00  0.00    +0.000 A 
ATOM     17  C   UNL     1      -3.914   6.005   1.729  0.00  0.00    +0.001 A 
ATOM     18  C   UNL     1      -4.056   4.782   1.104  0.00  0.00    +0.008 A 
ENDBRANCH  12  13
ENDBRANCH   5   7
ENDBRANCH   2   3
BRANCH   2  19
ATOM     19  S   UNL     1       2.669   1.202  -0.699  0.00  0.00    -0.075 S 
BRANCH  19  20
ATOM     20  C   UNL     1       4.077   2.257  -0.780  0.00  0.00    +0.177 A 
ATOM     21  N   UNL     1       3.978   3.470  -0.295  0.00  0.00    -0.223 NA
ATOM     22  C   UNL     1       5.021   4.332  -0.325  0.00  0.00    +0.079 A 
ATOM     23  C   UNL     1       4.918   5.626   0.193  0.00  0.00    +0.028 A 
ATOM     24  C   UNL     1       5.997   6.463   0.142  0.00  0.00    +0.002 A 
ATOM     25  C   UNL     1       7.198   6.047  -0.418  0.00  0.00    +0.001 A 
ATOM     26  C   UNL     1       7.330   4.787  -0.933  0.00  0.00    +0.015 A 
ATOM     27  C   UNL     1       6.245   3.912  -0.895  0.00  0.00    +0.065 A 
ATOM     28  C   UNL     1       6.329   2.548  -1.432  0.00  0.00    +0.267 A 
ATOM     29  O   UNL     1       7.356   2.130  -1.934  0.00  0.00    -0.267 OA
ATOM     30  N   UNL     1       5.225   1.771  -1.343  0.00  0.00    -0.255 N 
BRANCH  30  31
ATOM     31  C   UNL     1       5.256   0.460  -1.836  0.00  0.00    +0.052 A 
ATOM     32  C   UNL     1       4.461   0.104  -2.917  0.00  0.00    +0.026 A 
ATOM     33  C   UNL     1       4.499  -1.187  -3.405  0.00  0.00    +0.002 A 
ATOM     34  C   UNL     1       5.318  -2.129  -2.809  0.00  0.00    +0.000 A 
ATOM     35  C   UNL     1       6.106  -1.780  -1.728  0.00  0.00    +0.002 A 
ATOM     36  C   UNL     1       6.077  -0.488  -1.240  0.00  0.00    +0.026 A 
ENDBRANCH  30  31
ENDBRANCH  19  20
ENDBRANCH   2  19
TORSDOF 6
