REMARK  Name = ZINC15941919
REMARK  8 active torsions:
REMARK  status: ('A' for Active; 'I' for Inactive)
REMARK    1  A    between atoms: C_1  and  C_2
REMARK    2  A    between atoms: C_2  and  C_4
REMARK    3  A    between atoms: C_2  and  N_10
REMARK    4  A    between atoms: N_10  and  S_11
REMARK    5  A    between atoms: S_11  and  C_14
REMARK    6  A    between atoms: C_20  and  C_25
REMARK    7  A    between atoms: C_20  and  C_26
REMARK    8  A    between atoms: N_23  and  C_24
REMARK                            x       y       z     vdW  Elec       q    Type
REMARK                         _______ _______ _______ _____ _____    ______ ____
ROOT
ATOM      1  S   UNL     1      -0.188  -0.875  -2.551  0.00  0.00    +0.059 S 
ATOM      2  O   UNL     1       0.751  -1.265  -3.545  0.00  0.00    -0.153 OA
ATOM      3  O   UNL     1      -1.236  -1.730  -2.117  0.00  0.00    -0.153 OA
ENDROOT
BRANCH   1   4
ATOM      4  C   UNL     1      -0.951   0.603  -3.133  0.00  0.00    +0.106 A 
ATOM      5  C   UNL     1      -2.203   0.965  -2.671  0.00  0.00    +0.030 A 
ATOM      6  C   UNL     1      -2.806   2.120  -3.122  0.00  0.00    +0.026 A 
ATOM      7  C   UNL     1      -2.155   2.934  -4.048  0.00  0.00    +0.040 A 
ATOM      8  C   UNL     1      -0.897   2.560  -4.503  0.00  0.00    -0.010 A 
ATOM      9  C   UNL     1      -0.295   1.409  -4.048  0.00  0.00    +0.035 A 
ATOM     10  C   UNL     1      -0.464   3.629  -5.481  0.00  0.00    +0.068 C 
ATOM     11  C   UNL     1      -1.621   4.605  -5.495  0.00  0.00    +0.230 C 
ATOM     12  O   UNL     1      -1.696   5.623  -6.149  0.00  0.00    -0.274 OA
ATOM     13  N   UNL     1      -2.549   4.131  -4.646  0.00  0.00    -0.273 N 
ATOM     14  C   UNL     1      -3.826   4.796  -4.379  0.00  0.00    +0.138 C 
ATOM     15  C   UNL     1      -0.251   3.029  -6.872  0.00  0.00    +0.025 C 
ATOM     16  C   UNL     1       0.812   4.317  -4.991  0.00  0.00    +0.025 C 
ENDBRANCH   1   4
BRANCH   1  17
ATOM     17  N   UNL     1       0.688  -0.476  -1.203  0.00  0.00    -0.183 NA
ATOM     18  H   UNL     1       1.655  -0.556  -1.212  0.00  0.00    +0.149 HD
BRANCH  17  20
ATOM     19  C   UNL     1      -0.019   1.526   0.010  0.00  0.00    +0.031 C 
ATOM     20  C   UNL     1       0.002  -0.004   0.002  0.00  0.00    +0.103 C 
BRANCH  20  21
ATOM     21  C   UNL     1       0.731  -0.503   1.223  0.00  0.00    -0.029 A 
ATOM     22  C   UNL     1       2.113  -0.514   1.247  0.00  0.00    +0.005 A 
ATOM     23  C   UNL     1       2.782  -0.972   2.366  0.00  0.00    +0.000 A 
ATOM     24  C   UNL     1       2.068  -1.419   3.463  0.00  0.00    +0.000 A 
ATOM     25  C   UNL     1       0.686  -1.407   3.439  0.00  0.00    +0.000 A 
ATOM     26  C   UNL     1       0.017  -0.945   2.321  0.00  0.00    +0.005 A 
ENDBRANCH  20  21
ENDBRANCH  17  20
ENDBRANCH   1  17
TORSDOF 4
