REMARK  Name = ZINC02423267
REMARK  7 active torsions:
REMARK  status: ('A' for Active; 'I' for Inactive)
REMARK    1  A    between atoms: C_1  and  C_2
REMARK    2  A    between atoms: C_10  and  C_18
REMARK    3  A    between atoms: C_25  and  C_28
REMARK    4  A    between atoms: C_31  and  O_36
REMARK    5  A    between atoms: C_33  and  O_34
REMARK    6  A    between atoms: O_34  and  C_35
REMARK    7  A    between atoms: O_36  and  C_37
REMARK                            x       y       z     vdW  Elec       q    Type
REMARK                         _______ _______ _______ _____ _____    ______ ____
ROOT
ATOM      1  C   UNL     1      -0.079   1.565   0.460  0.00  0.00    +0.044 C 
ATOM      2  C   UNL     1      -0.043   0.062   0.345  0.00  0.00    -0.050 A 
ATOM      3  C   UNL     1      -0.026  -0.534  -0.903  0.00  0.00    +0.007 A 
ATOM      4  C   UNL     1       0.008  -1.911  -1.023  0.00  0.00    +0.046 A 
ATOM      5  C   UNL     1       0.025  -2.702   0.112  0.00  0.00    +0.131 A 
ATOM      6  C   UNL     1       0.007  -2.098   1.376  0.00  0.00    +0.043 A 
ATOM      7  C   UNL     1      -0.021  -0.714   1.488  0.00  0.00    +0.017 A 
ATOM      8  C   UNL     1       0.021  -2.974   2.574  0.00  0.00    +0.083 C 
ATOM      9  C   UNL     1      -0.275  -4.278   2.395  0.00  0.00    +0.028 C 
ATOM     10  C   UNL     1      -0.256  -5.184   3.606  0.00  0.00    +0.163 C 
ATOM     11  N   UNL     1       0.089  -4.544   4.885  0.00  0.00    -0.182 N 
ATOM     12  C   UNL     1       0.359  -3.206   4.898  0.00  0.00    +0.209 C 
ATOM     13  N   UNL     1       0.321  -2.482   3.801  0.00  0.00    -0.216 NA
ATOM     14  N   UNL     1       0.642  -2.883   6.199  0.00  0.00    -0.275 N 
ATOM     15  C   UNL     1       0.543  -4.026   6.956  0.00  0.00    +0.208 C 
ATOM     16  N   UNL     1       0.216  -5.018   6.191  0.00  0.00    -0.169 NA
ATOM     17  C   UNL     1      -0.620  -4.804   1.032  0.00  0.00    +0.238 C 
ATOM     18  O   UNL     1       0.061  -4.055   0.023  0.00  0.00    -0.479 OA
ATOM     19  H   UNL     1       0.873  -2.001   6.529  0.00  0.00    +0.156 HD
ENDROOT
BRANCH  10  20
ATOM     20  C   UNL     1       0.741  -6.286   3.353  0.00  0.00    -0.021 A 
ATOM     21  C   UNL     1       2.091  -6.051   3.536  0.00  0.00    +0.008 A 
ATOM     22  C   UNL     1       3.005  -7.061   3.304  0.00  0.00    +0.038 A 
ATOM     23  C   UNL     1       2.569  -8.308   2.890  0.00  0.00    +0.123 A 
ATOM     24  C   UNL     1       1.216  -8.542   2.708  0.00  0.00    +0.038 A 
ATOM     25  C   UNL     1       0.303  -7.532   2.945  0.00  0.00    +0.008 A 
ATOM     26  F   UNL     1       3.462  -9.296   2.663  0.00  0.00    -0.205 F 
ENDBRANCH  10  20
BRANCH  17  27
ATOM     27  C   UNL     1      -2.107  -4.688   0.815  0.00  0.00    +0.039 A 
ATOM     28  C   UNL     1      -2.627  -3.578   0.178  0.00  0.00    +0.015 A 
ATOM     29  C   UNL     1      -3.990  -3.469  -0.022  0.00  0.00    +0.046 A 
ATOM     30  C   UNL     1      -4.839  -4.475   0.415  0.00  0.00    +0.124 A 
ATOM     31  C   UNL     1      -4.320  -5.590   1.054  0.00  0.00    +0.091 A 
ATOM     32  C   UNL     1      -2.951  -5.700   1.250  0.00  0.00    +0.131 A 
BRANCH  32  33
ATOM     33  O   UNL     1      -2.438  -6.794   1.870  0.00  0.00    -0.495 OA
ATOM     34  C   UNL     1      -3.367  -7.796   2.291  0.00  0.00    +0.277 C 
ENDBRANCH  32  33
BRANCH  30  35
ATOM     35  O   UNL     1      -6.180  -4.367   0.218  0.00  0.00    -0.495 OA
ATOM     36  C   UNL     1      -6.645  -3.191  -0.446  0.00  0.00    +0.277 C 
ENDBRANCH  30  35
ENDBRANCH  17  27
TORSDOF 4
