REMARK  Name = ZINC40956551
REMARK  9 active torsions:
REMARK  status: ('A' for Active; 'I' for Inactive)
REMARK    1  A    between atoms: C_1  and  C_2
REMARK    2  A    between atoms: C_2  and  C_3
REMARK    3  A    between atoms: C_2  and  C_4
REMARK    4  A    between atoms: C_2  and  C_5
REMARK    5  A    between atoms: C_8  and  C_11
REMARK    6  A    between atoms: N_13  and  C_14
REMARK    7  A    between atoms: N_17  and  C_20
REMARK    8  A    between atoms: C_20  and  C_21
REMARK    9  A    between atoms: C_23  and  C_26
REMARK                            x       y       z     vdW  Elec       q    Type
REMARK                         _______ _______ _______ _____ _____    ______ ____
ROOT
ATOM      1  C   UNL     1       4.667  -1.994  -6.158  0.00  0.00    +0.070 C 
ATOM      2  C   UNL     1       5.243  -3.390  -5.905  0.00  0.00    +0.004 C 
ATOM      3  C   UNL     1       6.025  -3.844  -7.139  0.00  0.00    -0.076 C 
ATOM      4  N   UNL     1       7.120  -2.902  -7.404  0.00  0.00    +0.386 N 
ATOM      5  C   UNL     1       6.572  -1.577  -7.718  0.00  0.00    -0.076 C 
ATOM      6  C   UNL     1       5.810  -1.036  -6.506  0.00  0.00    +0.004 C 
ATOM      7  H   UNL     1       7.710  -2.837  -6.588  0.00  0.00    -0.081 HD
ENDROOT
BRANCH   1  10
ATOM      8  C   UNL     1       2.696  -1.860  -4.732  0.00  0.00    +0.244 C 
ATOM      9  O   UNL     1       2.106  -2.559  -5.533  0.00  0.00    -0.270 OA
ATOM     10  N   UNL     1       3.981  -1.521  -4.953  0.00  0.00    -0.309 N 
ATOM     11  H   UNL     1       4.452  -0.963  -4.314  0.00  0.00    +0.149 HD
BRANCH   8  15
ATOM     12  C   UNL     1       0.707  -0.490  -1.238  0.00  0.00    -0.042 A 
ATOM     13  C   UNL     1       0.033  -1.285  -2.147  0.00  0.00    +0.005 A 
ATOM     14  C   UNL     1       0.672  -1.733  -3.284  0.00  0.00    +0.013 A 
ATOM     15  C   UNL     1       2.004  -1.383  -3.516  0.00  0.00    +0.037 A 
ATOM     16  C   UNL     1       2.679  -0.581  -2.595  0.00  0.00    +0.013 A 
ATOM     17  C   UNL     1       2.025  -0.135  -1.464  0.00  0.00    +0.005 A 
BRANCH  12  19
ATOM     18  C   UNL     1      -0.019   1.526   0.010  0.00  0.00    +0.015 C 
ATOM     19  C   UNL     1       0.002  -0.004   0.002  0.00  0.00    -0.013 C 
ATOM     20  C   UNL     1       0.742  -0.511   1.242  0.00  0.00    +0.015 C 
ATOM     21  C   UNL     1      -1.433  -0.534   0.013  0.00  0.00    +0.015 C 
ENDBRANCH  12  19
ENDBRANCH   8  15
ENDBRANCH   1  10
BRANCH   4  22
ATOM     22  C   UNL     1       7.914  -3.384  -8.541  0.00  0.00    +0.022 C 
BRANCH  22  23
ATOM     23  C   UNL     1       9.108  -2.486  -8.737  0.00  0.00    +0.211 A 
ATOM     24  N   UNL     1      10.278  -2.644  -8.186  0.00  0.00    -0.193 NA
ATOM     25  C   UNL     1      11.108  -1.661  -8.579  0.00  0.00    +0.202 A 
ATOM     26  N   UNL     1      10.459  -0.864  -9.390  0.00  0.00    -0.056 NA
ATOM     27  O   UNL     1       9.147  -1.393  -9.510  0.00  0.00    -0.340 OA
BRANCH  25  28
ATOM     28  C   UNL     1      12.524  -1.505  -8.160  0.00  0.00    +0.025 A 
ATOM     29  C   UNL     1      13.120  -2.421  -7.290  0.00  0.00    +0.031 A 
ATOM     30  C   UNL     1      14.440  -2.239  -6.927  0.00  0.00    +0.111 A 
ATOM     31  N   UNL     1      15.134  -1.218  -7.390  0.00  0.00    -0.263 NA
ATOM     32  C   UNL     1      14.610  -0.331  -8.213  0.00  0.00    +0.111 A 
ATOM     33  C   UNL     1      13.298  -0.442  -8.631  0.00  0.00    +0.031 A 
ENDBRANCH  25  28
ENDBRANCH  22  23
ENDBRANCH   4  22
TORSDOF 6
