REMARK  Name = ZINC46560502
REMARK  14 active torsions:
REMARK  status: ('A' for Active; 'I' for Inactive)
REMARK    1  A    between atoms: C_1  and  C_2
REMARK    2  A    between atoms: C_2  and  C_3
REMARK    3  A    between atoms: C_3  and  C_4
REMARK    4  A    between atoms: C_4  and  N_5
REMARK    5  A    between atoms: N_14  and  C_32
REMARK    6  A    between atoms: C_15  and  C_17
REMARK    7  A    between atoms: C_17  and  N_18
REMARK    8  A    between atoms: N_18  and  C_19
REMARK    9  A    between atoms: N_18  and  C_20
REMARK   10  A    between atoms: C_20  and  C_21
REMARK   11  A    between atoms: N_23  and  C_24
REMARK   12  A    between atoms: C_29  and  C_30
REMARK   13  A    between atoms: C_30  and  C_31
REMARK   14  A    between atoms: C_32  and  C_33
REMARK                            x       y       z     vdW  Elec       q    Type
REMARK                         _______ _______ _______ _____ _____    ______ ____
ROOT
ATOM      1  N   UNL     1       1.444  -2.500  -2.500  0.00  0.00    -0.277 N 
ATOM      2  C   UNL     1       0.722  -2.733  -3.659  0.00  0.00    +0.168 A 
ATOM      3  C   UNL     1       1.392  -3.192  -4.786  0.00  0.00    +0.151 A 
ATOM      4  C   UNL     1       2.785  -3.406  -4.718  0.00  0.00    +0.280 A 
ATOM      5  O   UNL     1       3.395  -3.807  -5.693  0.00  0.00    -0.265 OA
ATOM      6  N   UNL     1       3.434  -3.161  -3.561  0.00  0.00    -0.273 N 
ATOM      7  H   UNL     1       4.391  -3.306  -3.510  0.00  0.00    +0.173 HD
ATOM      8  C   UNL     1       2.774  -2.712  -2.479  0.00  0.00    +0.331 A 
ATOM      9  O   UNL     1       3.392  -2.497  -1.455  0.00  0.00    -0.246 OA
ATOM     10  N   UNL     1       0.436  -3.333  -5.773  0.00  0.00    -0.324 N 
ATOM     11  C   UNL     1      -0.743  -2.968  -5.234  0.00  0.00    +0.096 A 
ATOM     12  N   UNL     1      -0.568  -2.616  -3.986  0.00  0.00    -0.216 NA
ENDROOT
BRANCH  10  13
ATOM     13  C   UNL     1       0.662  -3.791  -7.146  0.00  0.00    +0.120 C 
ATOM     14  C   UNL     1       0.512  -5.312  -7.207  0.00  0.00    +0.027 C 
ENDBRANCH  10  13
BRANCH   1  15
ATOM     15  C   UNL     1       0.762  -2.017  -1.297  0.00  0.00    +0.128 C 
BRANCH  15  16
ATOM     16  C   UNL     1       0.748  -0.487  -1.299  0.00  0.00    +0.021 C 
BRANCH  16  18
ATOM     17  C   UNL     1       0.021   1.548  -0.045  0.00  0.00    +0.004 C 
ATOM     18  C   UNL     1       0.035   0.018  -0.043  0.00  0.00    -0.002 C 
ENDBRANCH  16  18
ENDBRANCH  15  16
ENDBRANCH   1  15
BRANCH  11  19
ATOM     19  C   UNL     1      -2.065  -2.967  -5.958  0.00  0.00    -0.003 C 
BRANCH  19  20
ATOM     20  N   UNL     1      -2.715  -4.274  -5.794  0.00  0.00    +0.388 N 
ATOM     21  C   UNL     1      -3.048  -4.480  -4.378  0.00  0.00    -0.095 C 
ATOM     22  H   UNL     1      -2.088  -5.002  -6.101  0.00  0.00    -0.081 HD
BRANCH  20  23
ATOM     23  C   UNL     1      -3.944  -4.313  -6.597  0.00  0.00    +0.019 C 
BRANCH  23  24
ATOM     24  C   UNL     1      -4.546  -5.693  -6.526  0.00  0.00    +0.201 C 
ATOM     25  O   UNL     1      -4.004  -6.558  -5.871  0.00  0.00    -0.278 OA
ATOM     26  N   UNL     1      -5.686  -5.966  -7.191  0.00  0.00    -0.287 N 
ATOM     27  H   UNL     1      -6.163  -5.255  -7.649  0.00  0.00    +0.155 HD
BRANCH  26  28
ATOM     28  C   UNL     1      -6.183  -7.274  -7.221  0.00  0.00    +0.036 A 
ATOM     29  C   UNL     1      -5.322  -8.349  -7.046  0.00  0.00    +0.023 A 
ATOM     30  C   UNL     1      -5.816  -9.639  -7.076  0.00  0.00    +0.002 A 
ATOM     31  C   UNL     1      -7.166  -9.860  -7.280  0.00  0.00    +0.000 A 
ATOM     32  C   UNL     1      -8.025  -8.791  -7.454  0.00  0.00    +0.005 A 
ATOM     33  C   UNL     1      -7.539  -7.498  -7.418  0.00  0.00    -0.026 A 
BRANCH  33  34
ATOM     34  C   UNL     1      -8.478  -6.334  -7.601  0.00  0.00    +0.033 C 
ATOM     35  C   UNL     1      -8.484  -5.909  -9.071  0.00  0.00    +0.009 C 
ENDBRANCH  33  34
ENDBRANCH  26  28
ENDBRANCH  23  24
ENDBRANCH  20  23
ENDBRANCH  19  20
ENDBRANCH  11  19
TORSDOF 10
