REMARK  Name = ZINC20664357
REMARK  5 active torsions:
REMARK  status: ('A' for Active; 'I' for Inactive)
REMARK    1  A    between atoms: N_10  and  C_13
REMARK    2  A    between atoms: C_16  and  C_22
REMARK    3  A    between atoms: C_18  and  N_19
REMARK    4  A    between atoms: N_24  and  C_25
REMARK    5  A    between atoms: C_25  and  C_26
REMARK                            x       y       z     vdW  Elec       q    Type
REMARK                         _______ _______ _______ _____ _____    ______ ____
ROOT
ATOM      1  C   UNL     1       1.184   1.788   0.000  0.00  0.00    +0.060 A 
ATOM      2  C   UNL     1      -0.013   1.076   0.008  0.00  0.00    +0.026 A 
ATOM      3  C   UNL     1      -1.214   1.747   0.017  0.00  0.00    +0.015 A 
ATOM      4  C   UNL     1      -1.232   3.145   0.031  0.00  0.00    +0.039 A 
ATOM      5  C   UNL     1      -0.029   3.856   0.024  0.00  0.00    +0.047 A 
ATOM      6  C   UNL     1       1.169   3.179   0.008  0.00  0.00    +0.148 A 
ENDROOT
BRANCH   1  16
ATOM      7  C   UNL     1       6.808  -3.353  -1.195  0.00  0.00    +0.005 A 
ATOM      8  C   UNL     1       7.651  -3.205  -0.101  0.00  0.00    +0.018 A 
ATOM      9  C   UNL     1       7.260  -2.398   0.949  0.00  0.00    +0.084 A 
ATOM     10  N   UNL     1       6.103  -1.765   0.922  0.00  0.00    -0.350 N 
ATOM     11  C   UNL     1       5.270  -1.885  -0.100  0.00  0.00    +0.099 A 
ATOM     12  C   UNL     1       5.599  -2.681  -1.192  0.00  0.00    +0.042 A 
ATOM     13  N   UNL     1       4.058  -1.204  -0.085  0.00  0.00    -0.314 N 
ATOM     14  C   UNL     1       3.908  -0.425   1.152  0.00  0.00    +0.125 C 
ATOM     15  C   UNL     1       2.531   0.244   1.167  0.00  0.00    +0.124 C 
ATOM     16  N   UNL     1       2.396   1.107  -0.015  0.00  0.00    -0.325 N 
ATOM     17  C   UNL     1       2.547   0.328  -1.252  0.00  0.00    +0.124 C 
ATOM     18  C   UNL     1       3.923  -0.341  -1.266  0.00  0.00    +0.125 C 
ATOM     19  H   UNL     1       5.810  -1.118   1.762  0.00  0.00    +0.166 HD
ENDBRANCH   1  16
BRANCH   4  20
ATOM     20  C   UNL     1      -2.518   3.867   0.048  0.00  0.00    +0.244 C 
ATOM     21  O   UNL     1      -2.532   5.083   0.055  0.00  0.00    -0.270 OA
ATOM     22  N   UNL     1      -3.677   3.180   0.055  0.00  0.00    -0.307 N 
ATOM     23  H   UNL     1      -3.664   2.080   0.049  0.00  0.00    +0.149 HD
BRANCH  22  24
ATOM     24  C   UNL     1      -4.954   3.897   0.072  0.00  0.00    +0.140 C 
BRANCH  24  25
ATOM     25  C   UNL     1      -6.088   2.904   0.077  0.00  0.00    -0.029 A 
ATOM     26  C   UNL     1      -6.623   2.460  -1.118  0.00  0.00    +0.007 A 
ATOM     27  C   UNL     1      -7.659   1.546  -1.114  0.00  0.00    +0.022 A 
ATOM     28  C   UNL     1      -8.169   1.082   0.085  0.00  0.00    +0.059 A 
ATOM     29  C   UNL     1      -7.637   1.531   1.282  0.00  0.00    +0.060 A 
ATOM     30  C   UNL     1      -6.596   2.442   1.277  0.00  0.00    +0.026 A 
ATOM     31 CL   UNL     1      -8.275   0.950   2.788  0.00  0.00    -0.082 Cl
ATOM     32 CL   UNL     1      -9.475  -0.062   0.090  0.00  0.00    -0.082 Cl
ENDBRANCH  24  25
ENDBRANCH  22  24
ENDBRANCH   4  20
BRANCH   6  33
ATOM     33  N   UNL     1       2.444   3.932  -0.000  0.00  0.00    +0.058 N 
ATOM     34  O   UNL     1       2.432   5.150   0.006  0.00  0.00    -0.126 OA
ATOM     35  O   UNL     1       3.505   3.334  -0.013  0.00  0.00    -0.126 OA
ENDBRANCH   6  33
TORSDOF 5
