REMARK  Name = ZINC28938963
REMARK  6 active torsions:
REMARK  status: ('A' for Active; 'I' for Inactive)
REMARK    1  A    between atoms: C_1  and  C_2
REMARK    2  A    between atoms: C_9  and  O_12
REMARK    3  A    between atoms: O_12  and  C_13
REMARK    4  A    between atoms: C_13  and  C_14
REMARK    5  A    between atoms: C_16  and  O_17
REMARK    6  A    between atoms: C_26  and  C_28
REMARK                            x       y       z     vdW  Elec       q    Type
REMARK                         _______ _______ _______ _____ _____    ______ ____
ROOT
ATOM      1  C   UNL     1      -0.286  -6.287  -0.968  0.00  0.00    +0.007 A 
ATOM      2  C   UNL     1      -0.279  -6.960  -2.147  0.00  0.00    +0.095 A 
ATOM      3  C   UNL     1      -0.200  -6.248  -3.361  0.00  0.00    +0.285 A 
ATOM      4  O   UNL     1      -0.132  -4.908  -3.389  0.00  0.00    -0.425 OA
ATOM      5  C   UNL     1      -0.136  -4.178  -2.253  0.00  0.00    +0.141 A 
ATOM      6  C   UNL     1      -0.211  -4.825  -1.005  0.00  0.00    +0.024 A 
ATOM      7  C   UNL     1      -0.215  -4.073   0.175  0.00  0.00    +0.014 A 
ATOM      8  C   UNL     1      -0.140  -2.712   0.112  0.00  0.00    +0.024 A 
ATOM      9  C   UNL     1      -0.071  -2.064  -1.121  0.00  0.00    +0.037 A 
ATOM     10  C   UNL     1      -0.065  -2.794  -2.300  0.00  0.00    +0.070 A 
ATOM     11  N   UNL     1       0.000  -0.672  -1.169  0.00  0.00    -0.286 N 
ATOM     12  C   UNL     1      -0.605  -0.000  -2.168  0.00  0.00    +0.214 C 
ATOM     13  O   UNL     1      -1.141  -0.609  -3.070  0.00  0.00    -0.276 OA
ATOM     14  C   UNL     1      -0.617   1.507  -2.165  0.00  0.00    +0.109 C 
ATOM     15  H   UNL     1       0.550  -0.122  -0.391  0.00  0.00    +0.155 HD
ENDROOT
BRANCH   3  16
ATOM     16  O   UNL     1      -0.194  -6.865  -4.412  0.00  0.00    -0.480 OA
ATOM     17  H   UNL     1      -0.133  -6.323  -5.367  0.00  0.00    +0.295 HD
ENDBRANCH   3  16
BRANCH   1  18
ATOM     18  C   UNL     1      -0.369  -7.024   0.344  0.00  0.00    +0.265 C 
BRANCH  18  19
ATOM     19  O   UNL     1      -0.430  -8.430   0.098  0.00  0.00    -0.484 OA
BRANCH  19  28
ATOM     20  C   UNL     1       4.304  -9.452   1.308  0.00  0.00    +0.065 C 
ATOM     21  C   UNL     1       2.969  -9.852   1.882  0.00  0.00    +0.039 A 
ATOM     22  C   UNL     1       2.932 -10.687   2.996  0.00  0.00    +0.024 A 
ATOM     23  C   UNL     1       1.731 -11.059   3.530  0.00  0.00    +0.013 A 
ATOM     24  C   UNL     1       0.557 -10.576   2.923  0.00  0.00    +0.022 A 
ATOM     25  C   UNL     1      -0.714 -10.918   3.418  0.00  0.00    +0.052 A 
ATOM     26  C   UNL     1      -1.832 -10.433   2.808  0.00  0.00    +0.044 A 
ATOM     27  C   UNL     1      -1.736  -9.600   1.695  0.00  0.00    +0.086 A 
ATOM     28  C   UNL     1      -0.509  -9.244   1.183  0.00  0.00    +0.165 A 
ATOM     29  C   UNL     1       0.666  -9.734   1.789  0.00  0.00    +0.116 A 
ATOM     30  N   UNL     1       1.873  -9.404   1.320  0.00  0.00    -0.248 NA
ATOM     31 CL   UNL     1      -3.183  -9.002   0.946  0.00  0.00    -0.080 Cl
ATOM     32 CL   UNL     1      -0.858 -11.955   4.802  0.00  0.00    -0.083 Cl
ENDBRANCH  19  28
ENDBRANCH  18  19
ENDBRANCH   1  18
TORSDOF 4
