REMARK  Name = ZINC05040224
REMARK  8 active torsions:
REMARK  status: ('A' for Active; 'I' for Inactive)
REMARK    1  A    between atoms: C_2  and  C_3
REMARK    2  A    between atoms: C_3  and  N_4
REMARK    3  A    between atoms: C_7  and  C_10
REMARK    4  A    between atoms: C_10  and  O_12
REMARK    5  A    between atoms: O_12  and  C_13
REMARK    6  A    between atoms: C_13  and  C_14
REMARK    7  A    between atoms: N_16  and  C_17
REMARK    8  A    between atoms: C_18  and  C_25
REMARK                            x       y       z     vdW  Elec       q    Type
REMARK                         _______ _______ _______ _____ _____    ______ ____
ROOT
ATOM      1  C   UNL     1       0.492  -6.979  -0.733  0.00  0.00    +0.255 C 
ATOM      2  O   UNL     1      -0.037  -6.401   0.193  0.00  0.00    -0.272 OA
ATOM      3  N   UNL     1       0.522  -8.326  -0.759  0.00  0.00    -0.277 N 
ATOM      4  H   UNL     1       0.946  -8.787  -1.499  0.00  0.00    +0.155 HD
ENDROOT
BRANCH   3   5
ATOM      5  C   UNL     1      -0.053  -9.052   0.273  0.00  0.00    +0.084 A 
ATOM      6  C   UNL     1      -0.128 -10.426   0.420  0.00  0.00    +0.068 A 
ATOM      7  C   UNL     1      -0.793 -10.944   1.616  0.00  0.00    -0.023 A 
ATOM      8  C   UNL     1      -1.275 -10.007   2.451  0.00  0.00    -0.004 A 
ATOM      9  S   UNL     1      -0.860  -8.460   1.685  0.00  0.00    -0.077 S 
ATOM     10  C   UNL     1      -1.946 -10.616   3.654  0.00  0.00    +0.043 C 
ATOM     11  C   UNL     1      -1.442 -12.076   3.683  0.00  0.00    +0.010 C 
ATOM     12  C   UNL     1      -1.109 -12.322   2.198  0.00  0.00    +0.037 C 
BRANCH   6  13
ATOM     13  C   UNL     1       0.442 -11.330  -0.584  0.00  0.00    +0.244 C 
ATOM     14  O   UNL     1       1.597 -11.700  -0.484  0.00  0.00    -0.270 OA
ATOM     15  N   UNL     1      -0.314 -11.751  -1.618  0.00  0.00    -0.325 N 
ATOM     16  H   UNL     1      -1.234 -11.456  -1.698  0.00  0.00    +0.145 HD
ATOM     17  H   UNL     1       0.063 -12.349  -2.282  0.00  0.00    +0.145 HD
ENDBRANCH   6  13
ENDBRANCH   3   5
BRANCH   1  18
ATOM     18  C   UNL     1       1.118  -6.190  -1.854  0.00  0.00    +0.328 C 
BRANCH  18  19
ATOM     19  O   UNL     1       0.956  -4.770  -1.596  0.00  0.00    -0.451 OA
BRANCH  19  20
ATOM     20  C   UNL     1       1.464  -3.920  -2.511  0.00  0.00    +0.359 C 
ATOM     21  O   UNL     1       2.027  -4.353  -3.497  0.00  0.00    -0.243 OA
BRANCH  20  25
ATOM     22  N   UNL     1       0.002  -0.004   0.002  0.00  0.00    -0.320 N 
ATOM     23  C   UNL     1       0.601  -0.682  -1.046  0.00  0.00    +0.159 A 
ATOM     24  N   UNL     1       0.726  -1.981  -1.232  0.00  0.00    -0.218 NA
ATOM     25  C   UNL     1       1.338  -2.468  -2.315  0.00  0.00    +0.157 A 
ATOM     26  C   UNL     1       1.851  -1.593  -3.240  0.00  0.00    +0.083 A 
ATOM     27  S   UNL     1       1.414  -0.027  -2.496  0.00  0.00    -0.060 S 
ATOM     28  H   UNL     1      -0.404  -0.499   0.731  0.00  0.00    +0.148 HD
BRANCH  22  29
ATOM     29  C   UNL     1      -0.018   1.461   0.010  0.00  0.00    +0.130 C 
BRANCH  29  31
ATOM     30  C   UNL     1      -0.122   2.782   2.060  0.00  0.00    +0.005 C 
ATOM     31  C   UNL     1      -0.723   1.947   1.250  0.00  0.00    -0.016 C 
ENDBRANCH  29  31
ENDBRANCH  22  29
ENDBRANCH  20  25
ENDBRANCH  19  20
ENDBRANCH  18  19
ENDBRANCH   1  18
TORSDOF 8
