REMARK  Name = ZINC44391816
REMARK  5 active torsions:
REMARK  status: ('A' for Active; 'I' for Inactive)
REMARK    1  A    between atoms: C_1  and  C_2
REMARK    2  A    between atoms: C_2  and  C_4
REMARK    3  A    between atoms: C_2  and  N_15
REMARK    4  A    between atoms: N_6  and  C_7
REMARK    5  A    between atoms: C_20  and  C_22
REMARK                            x       y       z     vdW  Elec       q    Type
REMARK                         _______ _______ _______ _____ _____    ______ ____
ROOT
ATOM      1  N   UNL     1       0.695  -0.499  -1.191  0.00  0.00    -0.217 N 
ATOM      2  C   UNL     1       1.790  -1.270  -1.057  0.00  0.00    +0.268 A 
ATOM      3  O   UNL     1       2.202  -1.565   0.054  0.00  0.00    -0.266 OA
ATOM      4  C   UNL     1       2.459  -1.736  -2.211  0.00  0.00    +0.074 A 
ATOM      5  C   UNL     1       1.958  -1.379  -3.427  0.00  0.00    +0.035 A 
ATOM      6  C   UNL     1       0.801  -0.565  -3.462  0.00  0.00    +0.092 A 
ATOM      7  N   UNL     1       0.233  -0.175  -2.345  0.00  0.00    -0.168 NA
ENDROOT
BRANCH   6   8
ATOM      8  C   UNL     1       0.226  -0.154  -4.766  0.00  0.00    +0.006 A 
ATOM      9  C   UNL     1      -0.910   0.653  -4.804  0.00  0.00    +0.014 A 
ATOM     10  C   UNL     1      -1.445   1.034  -6.018  0.00  0.00    +0.050 A 
ATOM     11  C   UNL     1      -0.855   0.617  -7.202  0.00  0.00    +0.166 A 
ATOM     12  C   UNL     1       0.281  -0.189  -7.169  0.00  0.00    +0.167 A 
ATOM     13  C   UNL     1       0.823  -0.569  -5.955  0.00  0.00    +0.059 A 
ATOM     14  O   UNL     1       0.662  -0.458  -8.452  0.00  0.00    -0.453 OA
ATOM     15  C   UNL     1      -0.484  -0.149  -9.266  0.00  0.00    +0.466 C 
ATOM     16  O   UNL     1      -1.185   0.853  -8.505  0.00  0.00    -0.453 OA
ENDBRANCH   6   8
BRANCH   1  18
ATOM     17  C   UNL     1      -0.002   1.509   0.019  0.00  0.00    +0.043 C 
ATOM     18  C   UNL     1       0.008  -0.021   0.011  0.00  0.00    +0.194 C 
BRANCH  18  19
ATOM     19  C   UNL     1      -1.410  -0.532   0.016  0.00  0.00    +0.242 C 
ATOM     20  O   UNL     1      -1.807  -1.227  -0.895  0.00  0.00    -0.273 OA
ATOM     21  N   UNL     1      -2.236  -0.217   1.033  0.00  0.00    -0.281 N 
ATOM     22  H   UNL     1      -1.901   0.284   1.793  0.00  0.00    +0.155 HD
BRANCH  21  23
ATOM     23  C   UNL     1      -3.579  -0.613   0.993  0.00  0.00    +0.069 A 
ATOM     24  C   UNL     1      -3.930  -1.822   0.409  0.00  0.00    +0.027 A 
ATOM     25  C   UNL     1      -5.255  -2.211   0.370  0.00  0.00    +0.017 A 
ATOM     26  C   UNL     1      -6.234  -1.397   0.913  0.00  0.00    +0.021 A 
ATOM     27  C   UNL     1      -5.888  -0.190   1.496  0.00  0.00    +0.055 A 
ATOM     28  C   UNL     1      -4.563   0.202   1.543  0.00  0.00    +0.146 A 
ATOM     29  F   UNL     1      -4.224   1.377   2.118  0.00  0.00    -0.204 F 
ATOM     30 BR   UNL     1      -8.046  -1.933   0.857  0.00  0.00    -0.050 Br
ENDBRANCH  21  23
ENDBRANCH  18  19
ENDBRANCH   1  18
TORSDOF 4
