REMARK  Name = ZINC39780953
REMARK  8 active torsions:
REMARK  status: ('A' for Active; 'I' for Inactive)
REMARK    1  A    between atoms: C_6  and  C_7
REMARK    2  A    between atoms: C_10  and  C_12
REMARK    3  A    between atoms: C_12  and  O_14
REMARK    4  A    between atoms: O_14  and  C_15
REMARK    5  A    between atoms: C_15  and  C_16
REMARK    6  A    between atoms: N_18  and  C_19
REMARK    7  A    between atoms: C_22  and  S_25
REMARK    8  A    between atoms: S_25  and  C_26
REMARK                            x       y       z     vdW  Elec       q    Type
REMARK                         _______ _______ _______ _____ _____    ______ ____
ROOT
ATOM      1  O   UNL     1      -5.082  -3.572   0.030  0.00  0.00    -0.451 OA
ENDROOT
BRANCH   1   2
ATOM      2  C   UNL     1      -3.735  -3.634   0.015  0.00  0.00    +0.356 C 
ATOM      3  O   UNL     1      -3.175  -4.713   0.002  0.00  0.00    -0.244 OA
BRANCH   2   7
ATOM      4  C   UNL     1      -1.255  -0.759   0.005  0.00  0.00    +0.077 C 
ATOM      5  N   UNL     1      -2.478  -0.279   0.022  0.00  0.00    -0.153 NA
ATOM      6  N   UNL     1      -3.390  -1.169   0.027  0.00  0.00    -0.146 NA
ATOM      7  C   UNL     1      -2.945  -2.399   0.014  0.00  0.00    +0.153 C 
ATOM      8  C   UNL     1      -1.431  -2.269  -0.009  0.00  0.00    +0.122 C 
BRANCH   4  14
ATOM      9  C   UNL     1      -0.016   1.396   0.011  0.00  0.00    +0.011 A 
ATOM     10  C   UNL     1       1.170   2.097   0.002  0.00  0.00    +0.020 A 
ATOM     11  C   UNL     1       2.379   1.420  -0.023  0.00  0.00    +0.041 A 
ATOM     12  C   UNL     1       2.406   0.034  -0.039  0.00  0.00    +0.020 A 
ATOM     13  C   UNL     1       1.230  -0.681  -0.030  0.00  0.00    +0.011 A 
ATOM     14  C   UNL     1       0.003  -0.005  -0.004  0.00  0.00    -0.002 A 
ATOM     15 CL   UNL     1       3.868   2.313  -0.035  0.00  0.00    -0.084 Cl
ENDBRANCH   4  14
ENDBRANCH   2   7
ENDBRANCH   1   2
BRANCH   1  16
ATOM     16  C   UNL     1      -5.788  -4.815   0.031  0.00  0.00    +0.328 C 
BRANCH  16  17
ATOM     17  C   UNL     1      -7.271  -4.550   0.049  0.00  0.00    +0.255 C 
ATOM     18  O   UNL     1      -7.684  -3.409   0.060  0.00  0.00    -0.272 OA
ATOM     19  N   UNL     1      -8.140  -5.580   0.052  0.00  0.00    -0.283 N 
ATOM     20  H   UNL     1      -7.813  -6.490  -0.025  0.00  0.00    +0.155 HD
BRANCH  19  21
ATOM     21  C   UNL     1      -9.515  -5.337   0.167  0.00  0.00    +0.034 A 
ATOM     22  C   UNL     1     -10.320  -6.221   0.873  0.00  0.00    +0.024 A 
ATOM     23  C   UNL     1     -11.675  -5.982   0.986  0.00  0.00    +0.017 A 
ATOM     24  C   UNL     1     -12.233  -4.856   0.394  0.00  0.00    +0.013 A 
ATOM     25  C   UNL     1     -11.428  -3.971  -0.313  0.00  0.00    +0.017 A 
ATOM     26  C   UNL     1     -10.072  -4.209  -0.421  0.00  0.00    +0.024 A 
BRANCH  24  27
ATOM     27  S   UNL     1     -13.963  -4.551   0.537  0.00  0.00    -0.056 S 
BRANCH  27  28
ATOM     28  C   UNL     1     -14.212  -3.004  -0.377  0.00  0.00    +0.404 C 
ATOM     29  F   UNL     1     -13.447  -1.988   0.207  0.00  0.00    -0.197 F 
ATOM     30  F   UNL     1     -13.817  -3.179  -1.707  0.00  0.00    -0.197 F 
ENDBRANCH  27  28
ENDBRANCH  24  27
ENDBRANCH  19  21
ENDBRANCH  16  17
ENDBRANCH   1  16
TORSDOF 8
