REMARK  Name = ZINC39844449
REMARK  7 active torsions:
REMARK  status: ('A' for Active; 'I' for Inactive)
REMARK    1  A    between atoms: C_1  and  C_2
REMARK    2  A    between atoms: C_2  and  C_4
REMARK    3  A    between atoms: C_2  and  N_10
REMARK    4  A    between atoms: N_10  and  C_11
REMARK    5  A    between atoms: C_12  and  S_23
REMARK    6  A    between atoms: C_14  and  C_16
REMARK    7  A    between atoms: S_23  and  C_26
REMARK                            x       y       z     vdW  Elec       q    Type
REMARK                         _______ _______ _______ _____ _____    ______ ____
ROOT
ATOM      1  C   UNL     1       2.097  -0.603   1.173  0.00  0.00    +0.233 A 
ATOM      2  C   UNL     1       2.880  -1.040   2.189  0.00  0.00    +0.243 A 
ATOM      3  N   UNL     1       4.154  -0.999   1.770  0.00  0.00    -0.188 NA
ATOM      4  C   UNL     1       4.177  -0.553   0.536  0.00  0.00    +0.231 A 
ATOM      5  O   UNL     1       2.913  -0.306   0.142  0.00  0.00    -0.420 OA
ENDROOT
BRANCH   4   6
ATOM      6  C   UNL     1       5.389  -0.360  -0.286  0.00  0.00    +0.037 A 
ATOM      7  C   UNL     1       6.647  -0.664   0.238  0.00  0.00    +0.016 A 
ATOM      8  C   UNL     1       7.775  -0.482  -0.535  0.00  0.00    +0.039 A 
ATOM      9  C   UNL     1       7.661   0.003  -1.828  0.00  0.00    +0.123 A 
ATOM     10  C   UNL     1       6.415   0.307  -2.353  0.00  0.00    +0.039 A 
ATOM     11  C   UNL     1       5.280   0.123  -1.591  0.00  0.00    +0.016 A 
ATOM     12  F   UNL     1       8.770   0.181  -2.580  0.00  0.00    -0.205 F 
ENDBRANCH   4   6
BRANCH   2  13
ATOM     13  S   UNL     1       2.325  -1.567   3.776  0.00  0.00    +0.047 S 
ATOM     14  O   UNL     1       3.420  -1.397   4.666  0.00  0.00    -0.163 OA
ATOM     15  O   UNL     1       1.065  -0.947   3.992  0.00  0.00    -0.163 OA
BRANCH  13  16
ATOM     16  C   UNL     1       2.023  -3.300   3.674  0.00  0.00    +0.095 A 
ATOM     17  C   UNL     1       0.775  -3.763   3.304  0.00  0.00    +0.028 A 
ATOM     18  C   UNL     1       0.538  -5.122   3.223  0.00  0.00    +0.017 A 
ATOM     19  C   UNL     1       1.550  -6.019   3.512  0.00  0.00    +0.018 A 
ATOM     20  C   UNL     1       2.800  -5.555   3.882  0.00  0.00    +0.017 A 
ATOM     21  C   UNL     1       3.037  -4.195   3.958  0.00  0.00    +0.028 A 
ATOM     22 BR   UNL     1       1.227  -7.879   3.402  0.00  0.00    -0.050 Br
ENDBRANCH  13  16
ENDBRANCH   2  13
BRANCH   1  23
ATOM     23  N   UNL     1       0.711  -0.489   1.189  0.00  0.00    -0.306 N 
ATOM     24  H   UNL     1       0.213  -0.731   1.986  0.00  0.00    +0.150 HD
BRANCH  23  26
ATOM     25  C   UNL     1      -0.019   1.526   0.010  0.00  0.00    +0.033 C 
ATOM     26  C   UNL     1       0.002  -0.004   0.002  0.00  0.00    +0.100 C 
BRANCH  26  27
ATOM     27  C   UNL     1      -1.412  -0.526   0.013  0.00  0.00    -0.027 A 
ATOM     28  C   UNL     1      -2.123  -0.571   1.197  0.00  0.00    +0.005 A 
ATOM     29  C   UNL     1      -3.420  -1.049   1.207  0.00  0.00    +0.000 A 
ATOM     30  C   UNL     1      -4.006  -1.482   0.032  0.00  0.00    +0.000 A 
ATOM     31  C   UNL     1      -3.295  -1.436  -1.153  0.00  0.00    +0.000 A 
ATOM     32  C   UNL     1      -2.000  -0.954  -1.163  0.00  0.00    +0.005 A 
ENDBRANCH  26  27
ENDBRANCH  23  26
ENDBRANCH   1  23
TORSDOF 6
