REMARK  Name = ZINC26835160
REMARK  14 active torsions:
REMARK  status: ('A' for Active; 'I' for Inactive)
REMARK    1  A    between atoms: C_1  and  C_2
REMARK    2  A    between atoms: C_2  and  O_3
REMARK    3  A    between atoms: O_3  and  C_4
REMARK    4  A    between atoms: C_4  and  C_6
REMARK    5  A    between atoms: C_7  and  C_37
REMARK    6  A    between atoms: C_9  and  C_36
REMARK    7  A    between atoms: C_11  and  O_13
REMARK    8  A    between atoms: O_13  and  C_14
REMARK    9  A    between atoms: C_14  and  C_15
REMARK   10  A    between atoms: C_16  and  C_18
REMARK   11  A    between atoms: C_19  and  C_35
REMARK   12  A    between atoms: C_22  and  C_23
REMARK   13  A    between atoms: C_23  and  C_24
REMARK   14  A    between atoms: C_24  and  C_25
REMARK                            x       y       z     vdW  Elec       q    Type
REMARK                         _______ _______ _______ _____ _____    ______ ____
ROOT
ATOM      1  C   UNL     1       2.186  -2.645   2.030  0.00  0.00    +0.070 C 
ATOM      2  C   UNL     1       2.199  -4.019   2.211  0.00  0.00    +0.049 C 
ATOM      3  N   UNL     1       2.754  -4.581   3.267  0.00  0.00    -0.256 NA
ATOM      4  C   UNL     1       3.346  -3.935   4.252  0.00  0.00    +0.049 C 
ATOM      5  C   UNL     1       3.446  -2.553   4.271  0.00  0.00    +0.070 C 
ATOM      6  C   UNL     1       4.074  -1.888   5.318  0.00  0.00    +0.338 C 
ATOM      7  O   UNL     1       4.064  -0.556   5.363  0.00  0.00    -0.245 OA
ATOM      8  C   UNL     1       2.846  -1.795   3.101  0.00  0.00    +0.101 C 
ATOM      9  C   UNL     1       3.934  -4.725   5.393  0.00  0.00    +0.066 C 
ATOM     10  C   UNL     1       1.558  -4.898   1.168  0.00  0.00    +0.066 C 
ENDROOT
BRANCH   8  11
ATOM     11  C   UNL     1       3.937  -0.983   2.451  0.00  0.00    +0.030 A 
ATOM     12  C   UNL     1       5.132  -1.491   1.909  0.00  0.00    +0.085 A 
ATOM     13  N   UNL     1       5.820  -0.489   1.440  0.00  0.00    -0.083 NA
ATOM     14  O   UNL     1       5.079   0.696   1.671  0.00  0.00    -0.359 OA
ATOM     15  C   UNL     1       3.935   0.353   2.284  0.00  0.00    +0.142 A 
ATOM     16  C   UNL     1       5.544  -2.940   1.878  0.00  0.00    +0.069 C 
BRANCH  15  17
ATOM     17  C   UNL     1       2.843   1.298   2.713  0.00  0.00    +0.082 C 
BRANCH  17  18
ATOM     18  C   UNL     1       3.232   1.960   4.036  0.00  0.00    +0.043 C 
BRANCH  18  19
ATOM     19  C   UNL     1       2.208   3.007   4.394  0.00  0.00    -0.039 A 
ATOM     20  C   UNL     1       2.412   4.308   4.052  0.00  0.00    +0.004 A 
ATOM     21  C   UNL     1       1.477   5.290   4.375  0.00  0.00    +0.001 A 
ATOM     22  C   UNL     1       0.333   4.975   5.042  0.00  0.00    +0.008 A 
ATOM     23  C   UNL     1       0.088   3.642   5.412  0.00  0.00    -0.018 A 
ATOM     24  C   UNL     1       1.036   2.643   5.078  0.00  0.00    -0.015 A 
ATOM     25  C   UNL     1       0.788   1.308   5.443  0.00  0.00    +0.009 A 
ATOM     26  C   UNL     1      -0.358   0.993   6.105  0.00  0.00    +0.001 A 
ATOM     27  C   UNL     1      -1.294   1.975   6.427  0.00  0.00    +0.001 A 
ATOM     28  C   UNL     1      -1.082   3.279   6.102  0.00  0.00    +0.008 A 
ENDBRANCH  18  19
ENDBRANCH  17  18
ENDBRANCH  15  17
ENDBRANCH   8  11
BRANCH   1  29
ATOM     29  C   UNL     1       1.597  -2.068   0.911  0.00  0.00    +0.338 C 
ATOM     30  O   UNL     1       1.181  -2.838  -0.095  0.00  0.00    -0.245 OA
BRANCH  29  31
ATOM     31  O   UNL     1       1.446  -0.730   0.842  0.00  0.00    -0.462 OA
BRANCH  31  33
ATOM     32  C   UNL     1       0.747   1.318  -0.234  0.00  0.00    +0.048 C 
ATOM     33  C   UNL     1       0.832  -0.206  -0.338  0.00  0.00    +0.229 C 
ENDBRANCH  31  33
ENDBRANCH  29  31
ENDBRANCH   1  29
BRANCH   6  34
ATOM     34  O   UNL     1       4.694  -2.590   6.288  0.00  0.00    -0.462 OA
BRANCH  34  35
ATOM     35  C   UNL     1       5.319  -1.842   7.333  0.00  0.00    +0.229 C 
ATOM     36  C   UNL     1       5.965  -2.803   8.332  0.00  0.00    +0.048 C 
ENDBRANCH  34  35
ENDBRANCH   6  34
TORSDOF 9
