REMARK  Name = ZINC59310426
REMARK  11 active torsions:
REMARK  status: ('A' for Active; 'I' for Inactive)
REMARK    1  A    between atoms: C_1  and  C_2
REMARK    2  A    between atoms: C_2  and  O_3
REMARK    3  A    between atoms: O_3  and  C_4
REMARK    4  A    between atoms: C_4  and  C_6
REMARK    5  A    between atoms: C_10  and  N_11
REMARK    6  A    between atoms: C_12  and  C_14
REMARK    7  A    between atoms: C_14  and  S_15
REMARK    8  A    between atoms: S_15  and  C_16
REMARK    9  A    between atoms: N_21  and  N_22
REMARK   10  A    between atoms: C_23  and  C_24
REMARK   11  A    between atoms: C_23  and  C_25
REMARK                            x       y       z     vdW  Elec       q    Type
REMARK                         _______ _______ _______ _____ _____    ______ ____
ROOT
ATOM      1  C   UNL     1       8.277   1.259   2.016  0.00  0.00    +0.173 C 
ENDROOT
BRANCH   1   3
ATOM      2  N   UNL     1       6.718   2.491   3.488  0.00  0.00    -0.279 N 
ATOM      3  C   UNL     1       7.679   1.555   3.367  0.00  0.00    +0.228 C 
ATOM      4  O   UNL     1       8.062   0.950   4.346  0.00  0.00    -0.275 OA
ATOM      5  H   UNL     1       6.411   2.975   2.705  0.00  0.00    +0.155 HD
BRANCH   2  10
ATOM      6  C   UNL     1       5.178   3.685   5.042  0.00  0.00    +0.091 A 
ATOM      7  C   UNL     1       4.768   3.774   6.433  0.00  0.00    -0.021 A 
ATOM      8  C   UNL     1       5.425   2.930   7.257  0.00  0.00    -0.004 A 
ATOM      9  S   UNL     1       6.546   2.055   6.205  0.00  0.00    -0.077 S 
ATOM     10  C   UNL     1       6.167   2.764   4.730  0.00  0.00    +0.086 A 
ATOM     11  C   UNL     1       5.232   2.785   8.735  0.00  0.00    +0.043 C 
ATOM     12  C   UNL     1       4.442   4.001   9.240  0.00  0.00    +0.005 C 
ATOM     13  C   UNL     1       3.232   4.220   8.328  0.00  0.00    +0.005 C 
ATOM     14  C   UNL     1       3.697   4.718   6.957  0.00  0.00    +0.037 C 
BRANCH   6  15
ATOM     15  C   UNL     1       4.570   4.529   4.011  0.00  0.00    +0.342 C 
ATOM     16  O   UNL     1       3.580   4.145   3.417  0.00  0.00    -0.245 OA
BRANCH  15  17
ATOM     17  O   UNL     1       5.106   5.732   3.721  0.00  0.00    -0.461 OA
BRANCH  17  19
ATOM     18  C   UNL     1       5.206   7.825   2.517  0.00  0.00    +0.048 C 
ATOM     19  C   UNL     1       4.460   6.502   2.705  0.00  0.00    +0.229 C 
ENDBRANCH  17  19
ENDBRANCH  15  17
ENDBRANCH   6  15
ENDBRANCH   2  10
ENDBRANCH   1   3
BRANCH   1  20
ATOM     20  S   UNL     1       9.534  -0.039   2.183  0.00  0.00    -0.075 S 
BRANCH  20  21
ATOM     21  C   UNL     1      10.131  -0.268   0.541  0.00  0.00    +0.211 A 
ATOM     22  N   UNL     1      11.075  -1.140   0.172  0.00  0.00    -0.186 NA
ATOM     23  C   UNL     1      11.279  -1.050  -1.126  0.00  0.00    +0.232 A 
ATOM     24  N   UNL     1      10.451  -0.101  -1.613  0.00  0.00    -0.245 N 
ATOM     25  N   UNL     1       9.717   0.386  -0.519  0.00  0.00    -0.144 NA
ATOM     26  N   UNL     1      12.182  -1.795  -1.861  0.00  0.00    -0.205 N 
ATOM     27  H   UNL     1      12.261  -1.656  -2.818  0.00  0.00    +0.177 HD
ATOM     28  H   UNL     1      10.376   0.186  -2.536  0.00  0.00    +0.192 HD
BRANCH  26  29
ATOM     29  N   UNL     1      12.983  -2.751  -1.224  0.00  0.00    -0.184 NA
ATOM     30  C   UNL     1      13.911  -3.369  -1.890  0.00  0.00    +0.065 C 
ATOM     31  C   UNL     1      14.645  -4.526  -1.264  0.00  0.00    +0.068 C 
BRANCH  30  32
ATOM     32  C   UNL     1      14.245  -2.938  -3.260  0.00  0.00    +0.016 A 
ATOM     33  C   UNL     1      14.585  -3.880  -4.240  0.00  0.00    +0.013 A 
ATOM     34  C   UNL     1      14.890  -3.424  -5.510  0.00  0.00    +0.020 A 
ATOM     35  C   UNL     1      14.850  -2.065  -5.770  0.00  0.00    +0.111 A 
ATOM     36  N   UNL     1      14.527  -1.201  -4.827  0.00  0.00    -0.263 NA
ATOM     37  C   UNL     1      14.223  -1.585  -3.605  0.00  0.00    +0.120 A 
ENDBRANCH  30  32
ENDBRANCH  26  29
ENDBRANCH  20  21
ENDBRANCH   1  20
TORSDOF 9
