REMARK  Name = ZINC00042538
REMARK  1 active torsions:
REMARK  status: ('A' for Active; 'I' for Inactive)
REMARK    1  A    between atoms: C_2  and  N_9
REMARK                            x       y       z     vdW  Elec       q    Type
REMARK                         _______ _______ _______ _____ _____    ______ ____
ROOT
ATOM      1  C   UNL     1      -0.010   1.374   0.006  0.00  0.00    +0.043 A 
ATOM      2  C   UNL     1       1.181   2.088  -0.005  0.00  0.00    +0.039 A 
ATOM      3  C   UNL     1       2.393   1.411  -0.029  0.00  0.00    +0.043 A 
ATOM      4  C   UNL     1       2.411   0.028  -0.044  0.00  0.00    +0.044 A 
ATOM      5  C   UNL     1       1.223  -0.680  -0.033  0.00  0.00    +0.040 A 
ATOM      6  C   UNL     1       0.014  -0.008  -0.009  0.00  0.00    +0.044 A 
ATOM      7 CL   UNL     1      -1.475  -0.900   0.004  0.00  0.00    -0.083 Cl
ATOM      8 CL   UNL     1       3.926  -0.819  -0.075  0.00  0.00    -0.083 Cl
ENDROOT
BRANCH   2   9
ATOM      9  N   UNL     1       1.161   3.487   0.009  0.00  0.00    -0.248 N 
ATOM     10  C   UNL     1       2.115   4.169   0.673  0.00  0.00    +0.448 C 
ATOM     11  O   UNL     1       3.046   3.569   1.192  0.00  0.00    -0.222 OA
ATOM     12  O   UNL     1       2.050   5.387   0.757  0.00  0.00    -0.222 OA
ATOM     13  H   UNL     1       0.459   3.966  -0.459  0.00  0.00    +0.158 HD
ENDBRANCH   2   9
TORSDOF 1
