REMARK  Name = ZINC50039413
REMARK  4 active torsions:
REMARK  status: ('A' for Active; 'I' for Inactive)
REMARK    1  A    between atoms: C_1  and  N_2
REMARK    2  A    between atoms: C_3  and  N_21
REMARK    3  A    between atoms: C_4  and  C_13
REMARK    4  A    between atoms: C_5  and  C_7
REMARK                            x       y       z     vdW  Elec       q    Type
REMARK                         _______ _______ _______ _____ _____    ______ ____
ROOT
ATOM      1  C   UNL     1      -0.018   1.461   0.010  0.00  0.00    +0.174 C 
ATOM      2  N   UNL     1       0.002  -0.004   0.002  0.00  0.00    -0.253 N 
ATOM      3  C   UNL     1       0.008  -0.792  -1.104  0.00  0.00    +0.123 A 
ATOM      4  C   UNL     1       0.028  -2.106  -0.676  0.00  0.00    +0.052 A 
ATOM      5  C   UNL     1       0.034  -2.085   0.743  0.00  0.00    +0.137 A 
ATOM      6  N   UNL     1       0.025  -0.828   1.133  0.00  0.00    -0.166 NA
ENDROOT
BRANCH   4   7
ATOM      7  C   UNL     1       0.039  -3.311  -1.538  0.00  0.00    -0.011 A 
ATOM      8  C   UNL     1      -1.045  -4.188  -1.529  0.00  0.00    +0.010 A 
ATOM      9  C   UNL     1      -1.030  -5.309  -2.334  0.00  0.00    +0.022 A 
ATOM     10  C   UNL     1       0.060  -5.564  -3.148  0.00  0.00    +0.059 A 
ATOM     11  C   UNL     1       1.140  -4.697  -3.161  0.00  0.00    +0.060 A 
ATOM     12  C   UNL     1       1.132  -3.569  -2.365  0.00  0.00    +0.030 A 
ATOM     13 CL   UNL     1       2.503  -5.025  -4.185  0.00  0.00    -0.082 Cl
ATOM     14 CL   UNL     1       0.073  -6.977  -4.157  0.00  0.00    -0.082 Cl
ENDBRANCH   4   7
BRANCH   5  15
ATOM     15  C   UNL     1       0.054  -3.268   1.628  0.00  0.00    +0.157 A 
ATOM     16  C   UNL     1       0.688  -3.356   2.828  0.00  0.00    +0.053 A 
ATOM     17  C   UNL     1       0.443  -4.653   3.322  0.00  0.00    +0.057 A 
ATOM     18  C   UNL     1      -0.320  -5.286   2.408  0.00  0.00    +0.171 A 
ATOM     19  O   UNL     1      -0.558  -4.444   1.389  0.00  0.00    -0.447 OA
ATOM     20 BR   UNL     1      -0.955  -7.062   2.543  0.00  0.00    -0.008 Br
ENDBRANCH   5  15
BRANCH   3  21
ATOM     21  N   UNL     1      -0.004  -0.357  -2.422  0.00  0.00    -0.343 N 
ATOM     22  H   UNL     1      -0.018   0.593  -2.620  0.00  0.00    +0.144 HD
ATOM     23  H   UNL     1       0.001  -1.003  -3.146  0.00  0.00    +0.144 HD
ENDBRANCH   3  21
TORSDOF 3
