REMARK  Name = ZINC04518162
REMARK  3 active torsions:
REMARK  status: ('A' for Active; 'I' for Inactive)
REMARK    1  A    between atoms: C_3  and  C_9
REMARK    2  A    between atoms: N_10  and  N_11
REMARK    3  A    between atoms: C_12  and  C_14
REMARK                            x       y       z     vdW  Elec       q    Type
REMARK                         _______ _______ _______ _____ _____    ______ ____
ROOT
ATOM      1  N   UNL     1      -2.349   0.993   0.019  0.00  0.00    -0.202 N 
ATOM      2  C   UNL     1      -3.525   1.650   0.028  0.00  0.00    +0.284 C 
ATOM      3  O   UNL     1      -3.542   2.866   0.034  0.00  0.00    -0.267 OA
ATOM      4  H   UNL     1      -2.336   0.023   0.013  0.00  0.00    +0.178 HD
ENDROOT
BRANCH   2   5
ATOM      5  C   UNL     1      -4.794   0.895   0.030  0.00  0.00    +0.152 A 
ATOM      6  C   UNL     1      -6.099   1.439   0.044  0.00  0.00    +0.005 A 
ATOM      7  C   UNL     1      -6.938   0.381   0.038  0.00  0.00    +0.040 A 
ATOM      8  N   UNL     1      -6.172  -0.734   0.028  0.00  0.00    -0.281 N 
ATOM      9  H   UNL     1      -6.524  -1.669   0.025  0.00  0.00    +0.189 HD
ATOM     10  N   UNL     1      -4.927  -0.417   0.024  0.00  0.00    -0.169 NA
ATOM     11  C   UNL     1      -8.374   0.855   0.049  0.00  0.00    +0.055 C 
ATOM     12  C   UNL     1      -8.310   2.339  -0.376  0.00  0.00    +0.011 C 
ATOM     13  C   UNL     1      -6.877   2.732   0.049  0.00  0.00    +0.039 C 
ENDBRANCH   2   5
BRANCH   1  15
ATOM     14  C   UNL     1      -0.013   1.076   0.008  0.00  0.00    +0.139 C 
ATOM     15  N   UNL     1      -1.145   1.709   0.017  0.00  0.00    -0.187 NA
BRANCH  14  18
ATOM     16  C   UNL     1       3.657   1.864  -0.023  0.00  0.00    +0.002 A 
ATOM     17  C   UNL     1       2.475   1.152  -0.015  0.00  0.00    +0.011 A 
ATOM     18  C   UNL     1       1.254   1.830  -0.000  0.00  0.00    +0.014 A 
ATOM     19  C   UNL     1       1.239   3.228   0.002  0.00  0.00    +0.068 A 
ATOM     20  C   UNL     1       2.430   3.928  -0.001  0.00  0.00    +0.060 A 
ATOM     21  C   UNL     1       3.636   3.247  -0.016  0.00  0.00    +0.021 A 
ATOM     22 CL   UNL     1       2.416   5.664   0.008  0.00  0.00    -0.082 Cl
ATOM     23 CL   UNL     1      -0.272   4.082   0.014  0.00  0.00    -0.081 Cl
ENDBRANCH  14  18
ENDBRANCH   1  15
TORSDOF 3
