REMARK  Name = ZINC44938893
REMARK  7 active torsions:
REMARK  status: ('A' for Active; 'I' for Inactive)
REMARK    1  A    between atoms: C_4  and  C_7
REMARK    2  A    between atoms: C_7  and  C_34
REMARK    3  A    between atoms: C_13  and  C_15
REMARK    4  A    between atoms: C_21  and  C_23
REMARK    5  A    between atoms: N_25  and  C_26
REMARK    6  A    between atoms: C_26  and  C_27
REMARK    7  A    between atoms: C_27  and  C_28
REMARK                            x       y       z     vdW  Elec       q    Type
REMARK                         _______ _______ _______ _____ _____    ______ ____
ROOT
ATOM      1  C   UNL     1       5.878  -4.817  -1.761  0.00  0.00    +0.091 C 
ATOM      2  C   UNL     1       6.392  -5.179  -0.366  0.00  0.00    +0.040 C 
ATOM      3  C   UNL     1       7.892  -5.155  -0.345  0.00  0.00    -0.030 C 
ATOM      4  C   UNL     1       8.633  -5.185  -1.407  0.00  0.00    -0.030 C 
ATOM      5  C   UNL     1       8.094  -5.237  -2.806  0.00  0.00    +0.040 C 
ATOM      6  C   UNL     1       6.623  -5.671  -2.794  0.00  0.00    +0.091 C 
ENDROOT
BRANCH   1  13
ATOM      7  C   UNL     1       3.178  -0.993  -3.627  0.00  0.00    +0.085 C 
ATOM      8  C   UNL     1       4.654  -0.588  -3.645  0.00  0.00    +0.045 C 
ATOM      9  C   UNL     1       5.327  -1.068  -2.356  0.00  0.00    +0.109 C 
ATOM     10  N   UNL     1       5.099  -2.513  -2.213  0.00  0.00    -0.301 N 
ATOM     11  C   UNL     1       3.722  -3.020  -2.273  0.00  0.00    +0.109 C 
ATOM     12  C   UNL     1       3.067  -2.518  -3.563  0.00  0.00    +0.045 C 
ATOM     13  C   UNL     1       6.135  -3.357  -2.032  0.00  0.00    +0.220 C 
ATOM     14  O   UNL     1       7.273  -2.941  -2.087  0.00  0.00    -0.275 OA
BRANCH   7  18
ATOM     15  C   UNL     1       1.271   0.427  -7.176  0.00  0.00    +0.000 A 
ATOM     16  C   UNL     1       1.860   1.322  -6.303  0.00  0.00    +0.000 A 
ATOM     17  C   UNL     1       2.477   0.862  -5.154  0.00  0.00    +0.005 A 
ATOM     18  C   UNL     1       2.505  -0.492  -4.879  0.00  0.00    -0.027 A 
ATOM     19  C   UNL     1       1.915  -1.387  -5.751  0.00  0.00    +0.005 A 
ATOM     20  C   UNL     1       1.299  -0.928  -6.901  0.00  0.00    +0.000 A 
ENDBRANCH   7  18
BRANCH   7  21
ATOM     21  C   UNL     1       2.522  -0.404  -2.448  0.00  0.00    +0.074 C 
ATOM     22  N   UNL     1       2.017   0.051  -1.538  0.00  0.00    -0.196 NA
ENDBRANCH   7  21
ENDBRANCH   1  13
BRANCH   6  23
ATOM     23  C   UNL     1       6.014  -5.464  -4.157  0.00  0.00    +0.217 C 
ATOM     24  O   UNL     1       5.076  -4.707  -4.293  0.00  0.00    -0.275 OA
ATOM     25  N   UNL     1       6.512  -6.119  -5.225  0.00  0.00    -0.315 N 
ATOM     26  H   UNL     1       7.263  -6.724  -5.116  0.00  0.00    +0.149 HD
BRANCH  25  27
ATOM     27  C   UNL     1       5.920  -5.917  -6.550  0.00  0.00    +0.108 C 
BRANCH  27  28
ATOM     28  C   UNL     1       6.666  -6.771  -7.577  0.00  0.00    +0.049 C 
BRANCH  28  29
ATOM     29  C   UNL     1       6.058  -6.564  -8.940  0.00  0.00    -0.072 C 
ATOM     30  C   UNL     1       6.603  -5.688  -9.721  0.00  0.00    -0.028 C 
ATOM     31  C   UNL     1       6.104  -5.364 -11.099  0.00  0.00    +0.027 C 
ATOM     32  C   UNL     1       5.174  -6.472 -11.596  0.00  0.00    +0.004 C 
ATOM     33  C   UNL     1       4.137  -6.762 -10.504  0.00  0.00    +0.005 C 
ATOM     34  C   UNL     1       4.860  -7.390  -9.309  0.00  0.00    +0.030 C 
ENDBRANCH  28  29
ENDBRANCH  27  28
ENDBRANCH  25  27
ENDBRANCH   6  23
TORSDOF 7
