REMARK  Name = ZINC16695581
REMARK  5 active torsions:
REMARK  status: ('A' for Active; 'I' for Inactive)
REMARK    1  A    between atoms: C_6  and  N_7
REMARK    2  A    between atoms: C_8  and  C_10
REMARK    3  A    between atoms: C_15  and  C_16
REMARK    4  A    between atoms: C_15  and  N_60
REMARK    5  A    between atoms: C_23  and  C_27
REMARK                            x       y       z     vdW  Elec       q    Type
REMARK                         _______ _______ _______ _____ _____    ______ ____
ROOT
ATOM      1  C   UNL     1      -1.330   1.945   0.012  0.00  0.00    +0.072 C 
ATOM      2  C   UNL     1      -1.424   2.820   1.265  0.00  0.00    -0.006 C 
ATOM      3  C   UNL     1      -2.786   3.518   1.292  0.00  0.00    -0.078 C 
ATOM      4  C   UNL     1      -3.812   1.687   0.080  0.00  0.00    -0.078 C 
ATOM      5  C   UNL     1      -2.481   0.935   0.017  0.00  0.00    -0.006 C 
ATOM      6  N   UNL     1      -3.850   2.492   1.320  0.00  0.00    +0.382 N 
ATOM      7  H   UNL     1      -3.695   1.872   2.123  0.00  0.00    -0.081 HD
ENDROOT
BRANCH   1   9
ATOM      8  N   UNL     1       1.143   1.898   0.001  0.00  0.00    -0.285 N 
ATOM      9  C   UNL     1      -0.014   1.209   0.011  0.00  0.00    +0.220 C 
ATOM     10  O   UNL     1       0.002  -0.004   0.013  0.00  0.00    -0.275 OA
ATOM     11  H   UNL     1       1.131   2.866  -0.068  0.00  0.00    +0.155 HD
BRANCH   8  17
ATOM     12  C   UNL     1       2.513  -0.025  -0.508  0.00  0.00    +0.027 A 
ATOM     13  C   UNL     1       3.717  -0.698  -0.419  0.00  0.00    +0.051 A 
ATOM     14  C   UNL     1       4.779  -0.134   0.268  0.00  0.00    +0.166 A 
ATOM     15  C   UNL     1       4.634   1.114   0.871  0.00  0.00    +0.168 A 
ATOM     16  C   UNL     1       3.429   1.789   0.776  0.00  0.00    +0.072 A 
ATOM     17  C   UNL     1       2.365   1.218   0.092  0.00  0.00    +0.037 A 
ATOM     18  O   UNL     1       5.811   1.445   1.478  0.00  0.00    -0.453 OA
ATOM     19  C   UNL     1       6.801   0.577   0.895  0.00  0.00    +0.466 C 
ATOM     20  O   UNL     1       6.048  -0.584   0.498  0.00  0.00    -0.453 OA
ENDBRANCH   8  17
ENDBRANCH   1   9
BRANCH   6  21
ATOM     21  C   UNL     1      -5.171   3.138   1.461  0.00  0.00    -0.039 C 
BRANCH  21  22
ATOM     22  C   UNL     1      -5.260   3.767   2.828  0.00  0.00    -0.019 A 
ATOM     23  C   UNL     1      -5.925   3.113   3.847  0.00  0.00    +0.043 A 
ATOM     24  C   UNL     1      -6.003   3.689   5.103  0.00  0.00    +0.124 A 
ATOM     25  C   UNL     1      -5.423   4.924   5.337  0.00  0.00    +0.047 A 
ATOM     26  C   UNL     1      -4.760   5.582   4.318  0.00  0.00    +0.023 A 
ATOM     27  C   UNL     1      -4.678   5.005   3.060  0.00  0.00    +0.131 A 
ATOM     28  O   UNL     1      -4.033   5.645   2.047  0.00  0.00    -0.459 OA
ATOM     29  C   UNL     1      -3.158   6.715   2.413  0.00  0.00    +0.341 C 
ATOM     30  O   UNL     1      -3.840   7.568   3.340  0.00  0.00    -0.333 OA
ATOM     31  C   UNL     1      -4.128   6.925   4.585  0.00  0.00    +0.203 C 
ATOM     32  F   UNL     1      -6.650   3.047   6.101  0.00  0.00    -0.205 F 
BRANCH  29  33
ATOM     33  C   UNL     1      -2.780   7.502   1.185  0.00  0.00    +0.027 A 
ATOM     34  C   UNL     1      -1.941   8.596   1.282  0.00  0.00    +0.017 A 
ATOM     35  C   UNL     1      -1.617   9.279   0.157  0.00  0.00    +0.045 A 
ATOM     36  S   UNL     1      -2.520   8.380  -1.093  0.00  0.00    -0.105 S 
ATOM     37  C   UNL     1      -3.263   7.151  -0.032  0.00  0.00    +0.055 A 
ENDBRANCH  29  33
ENDBRANCH  21  22
ENDBRANCH   6  21
TORSDOF 5
