REMARK  Name = ZINC04229658
REMARK  9 active torsions:
REMARK  status: ('A' for Active; 'I' for Inactive)
REMARK    1  A    between atoms: C_1  and  C_2
REMARK    2  A    between atoms: C_2  and  C_4
REMARK    3  A    between atoms: C_2  and  O_28
REMARK    4  A    between atoms: N_6  and  N_7
REMARK    5  A    between atoms: C_8  and  C_9
REMARK    6  A    between atoms: C_12  and  O_15
REMARK    7  A    between atoms: O_15  and  C_16
REMARK    8  A    between atoms: C_16  and  C_18
REMARK    9  A    between atoms: O_28  and  C_29
REMARK                            x       y       z     vdW  Elec       q    Type
REMARK                         _______ _______ _______ _____ _____    ______ ____
ROOT
ATOM      1  C   UNL     1      -0.756   4.106   0.109  0.00  0.00    -0.005 A 
ATOM      2  C   UNL     1       0.310   3.203   0.145  0.00  0.00    +0.013 A 
ATOM      3  C   UNL     1       0.061   1.848   0.175  0.00  0.00    +0.047 A 
ATOM      4  C   UNL     1      -1.246   1.379   0.168  0.00  0.00    +0.132 A 
ATOM      5  C   UNL     1      -2.309   2.273   0.127  0.00  0.00    +0.047 A 
ATOM      6  C   UNL     1      -2.070   3.630   0.103  0.00  0.00    +0.013 A 
ENDROOT
BRANCH   1   8
ATOM      7  N   UNL     1      -1.487   6.394   0.045  0.00  0.00    -0.188 NA
ATOM      8  C   UNL     1      -0.496   5.557   0.078  0.00  0.00    +0.138 C 
BRANCH   7  11
ATOM      9  C   UNL     1      -2.269   8.641  -0.020  0.00  0.00    +0.273 C 
ATOM     10  O   UNL     1      -3.410   8.230  -0.026  0.00  0.00    -0.270 OA
ATOM     11  N   UNL     1      -1.239   7.772   0.015  0.00  0.00    -0.204 N 
ATOM     12  H   UNL     1      -0.327   8.101   0.020  0.00  0.00    +0.177 HD
BRANCH   9  14
ATOM     13  C   UNL     1      -1.294  10.487  -1.358  0.00  0.00    +0.062 C 
ATOM     14  C   UNL     1      -2.003  10.124  -0.051  0.00  0.00    +0.257 C 
BRANCH  14  15
ATOM     15  O   UNL     1      -3.241  10.832   0.032  0.00  0.00    -0.480 OA
BRANCH  15  16
ATOM     16  C   UNL     1      -3.190  12.112   0.487  0.00  0.00    +0.123 A 
ATOM     17  C   UNL     1      -1.987  12.647   0.924  0.00  0.00    +0.046 A 
ATOM     18  C   UNL     1      -1.936  13.950   1.381  0.00  0.00    +0.005 A 
ATOM     19  C   UNL     1      -3.086  14.717   1.415  0.00  0.00    +0.020 A 
ATOM     20  C   UNL     1      -4.288  14.185   0.985  0.00  0.00    +0.044 A 
ATOM     21  C   UNL     1      -4.343  12.883   0.522  0.00  0.00    +0.065 A 
ATOM     22 CL   UNL     1      -5.730  15.151   1.029  0.00  0.00    -0.083 Cl
ENDBRANCH  15  16
ENDBRANCH  14  15
ENDBRANCH   9  14
ENDBRANCH   7  11
ENDBRANCH   1   8
BRANCH   4  23
ATOM     23  O   UNL     1      -1.486   0.042   0.197  0.00  0.00    -0.422 OA
BRANCH  23  24
ATOM     24  C   UNL     1      -1.155  -0.615   1.327  0.00  0.00    +0.353 C 
ATOM     25  O   UNL     1      -0.759   0.003   2.296  0.00  0.00    -0.244 OA
BRANCH  24  26
ATOM     26  C   UNL     1      -1.274  -2.076   1.387  0.00  0.00    +0.116 A 
ATOM     27  C   UNL     1      -0.986  -2.909   2.425  0.00  0.00    +0.070 A 
ATOM     28  C   UNL     1      -1.173  -4.296   2.283  0.00  0.00    +0.008 A 
ATOM     29  C   UNL     1      -0.936  -5.316   3.240  0.00  0.00    +0.010 A 
ATOM     30  C   UNL     1      -1.165  -6.620   2.936  0.00  0.00    +0.001 A 
ATOM     31  C   UNL     1      -1.638  -7.005   1.687  0.00  0.00    +0.001 A 
ATOM     32  C   UNL     1      -1.881  -6.045   0.727  0.00  0.00    +0.016 A 
ATOM     33  C   UNL     1      -1.652  -4.717   1.020  0.00  0.00    +0.022 A 
ATOM     34  S   UNL     1      -1.823  -3.200   0.115  0.00  0.00    -0.080 S 
ATOM     35 CL   UNL     1      -0.394  -2.260   3.923  0.00  0.00    -0.082 Cl
ENDBRANCH  24  26
ENDBRANCH  23  24
ENDBRANCH   4  23
TORSDOF 8
