REMARK  Name = ZINC28056113
REMARK  6 active torsions:
REMARK  status: ('A' for Active; 'I' for Inactive)
REMARK    1  A    between atoms: C_1  and  O_2
REMARK    2  A    between atoms: O_2  and  C_3
REMARK    3  A    between atoms: C_6  and  C_9
REMARK    4  A    between atoms: C_20  and  C_22
REMARK    5  A    between atoms: C_25  and  S_28
REMARK    6  A    between atoms: S_28  and  C_29
REMARK                            x       y       z     vdW  Elec       q    Type
REMARK                         _______ _______ _______ _____ _____    ______ ____
ROOT
ATOM      1  C   UNL     1      -0.032   3.320  -0.514  0.00  0.00    +0.174 C 
ATOM      2  C   UNL     1       1.343   2.800  -0.175  0.00  0.00    +0.025 C 
ATOM      3  C   UNL     1       1.560   1.533   0.182  0.00  0.00    +0.050 C 
ATOM      4  C   UNL     1       2.945   1.120   0.513  0.00  0.00    +0.039 A 
ATOM      5  C   UNL     1       3.312  -0.219   0.561  0.00  0.00    +0.033 A 
ATOM      6  C   UNL     1       4.615  -0.557   0.876  0.00  0.00    +0.042 A 
ATOM      7  C   UNL     1       5.549   0.431   1.141  0.00  0.00    +0.023 A 
ATOM      8  C   UNL     1       5.191   1.766   1.094  0.00  0.00    +0.048 A 
ATOM      9  C   UNL     1       3.891   2.118   0.780  0.00  0.00    +0.131 A 
ATOM     10  O   UNL     1       3.501   3.417   0.722  0.00  0.00    -0.479 OA
ATOM     11  C   UNL     1       2.513   3.755  -0.252  0.00  0.00    +0.234 C 
ATOM     12 CL   UNL     1       5.084  -2.228   0.939  0.00  0.00    -0.084 Cl
ATOM     13  N   UNL     1       0.526   0.592   0.267  0.00  0.00    -0.282 N 
ATOM     14  C   UNL     1      -0.772   1.073   0.241  0.00  0.00    +0.240 A 
ATOM     15  N   UNL     1      -1.046   2.355  -0.112  0.00  0.00    -0.201 N 
ATOM     16  N   UNL     1      -2.430   2.484  -0.004  0.00  0.00    -0.042 NA
ATOM     17  N   UNL     1      -2.878   1.333   0.383  0.00  0.00    -0.021 NA
ATOM     18  N   UNL     1      -1.906   0.499   0.531  0.00  0.00    -0.092 NA
ATOM     19  H   UNL     1       0.762  -0.479   0.351  0.00  0.00    +0.155 HD
ENDROOT
BRANCH   1  23
ATOM     20  C   UNL     1      -0.298   3.982  -4.727  0.00  0.00    +0.120 A 
ATOM     21  C   UNL     1      -0.486   5.036  -3.845  0.00  0.00    +0.046 A 
ATOM     22  C   UNL     1      -0.400   4.819  -2.484  0.00  0.00    +0.009 A 
ATOM     23  C   UNL     1      -0.126   3.553  -2.000  0.00  0.00    -0.018 A 
ATOM     24  C   UNL     1       0.067   2.502  -2.877  0.00  0.00    +0.009 A 
ATOM     25  C   UNL     1      -0.024   2.712  -4.239  0.00  0.00    +0.046 A 
BRANCH  20  27
ATOM     26  C   UNL     1      -0.177   3.061  -6.916  0.00  0.00    +0.277 C 
ATOM     27  O   UNL     1      -0.382   4.193  -6.067  0.00  0.00    -0.495 OA
ENDBRANCH  20  27
ENDBRANCH   1  23
BRANCH  11  28
ATOM     28  C   UNL     1       3.126   3.681  -1.626  0.00  0.00    -0.003 A 
ATOM     29  C   UNL     1       2.924   4.710  -2.528  0.00  0.00    +0.008 A 
ATOM     30  C   UNL     1       3.489   4.649  -3.786  0.00  0.00    +0.015 A 
ATOM     31  C   UNL     1       4.252   3.546  -4.151  0.00  0.00    +0.008 A 
ATOM     32  C   UNL     1       4.448   2.511  -3.244  0.00  0.00    +0.015 A 
ATOM     33  C   UNL     1       3.885   2.582  -1.985  0.00  0.00    +0.008 A 
BRANCH  31  34
ATOM     34  S   UNL     1       4.969   3.460  -5.758  0.00  0.00    -0.129 S 
ATOM     35  C   UNL     1       4.445   5.003  -6.555  0.00  0.00    +0.090 C 
ENDBRANCH  31  34
ENDBRANCH  11  28
TORSDOF 4
