REMARK  Name = ZINC13064571
REMARK  15 active torsions:
REMARK  status: ('A' for Active; 'I' for Inactive)
REMARK    1  A    between atoms: C_1  and  C_2
REMARK    2  A    between atoms: C_2  and  C_3
REMARK    3  A    between atoms: C_3  and  C_5
REMARK    4  A    between atoms: C_3  and  N_72
REMARK    5  A    between atoms: N_9  and  C_10
REMARK    6  A    between atoms: C_10  and  C_11
REMARK    7  A    between atoms: C_10  and  C_12
REMARK    8  A    between atoms: C_10  and  C_13
REMARK    9  A    between atoms: C_13  and  C_14
REMARK   10  A    between atoms: C_15  and  C_16
REMARK   11  A    between atoms: C_15  and  N_72
REMARK   12  A    between atoms: C_20  and  C_29
REMARK   13  A    between atoms: C_21  and  C_28
REMARK   14  A    between atoms: C_30  and  C_31
REMARK   15  A    between atoms: C_30  and  N_72
REMARK                            x       y       z     vdW  Elec       q    Type
REMARK                         _______ _______ _______ _____ _____    ______ ____
ROOT
ATOM      1  N   UNL     1       3.235   0.512  -1.245  0.00  0.00    +0.391 N 
ATOM      2  H   UNL     1       2.694  -0.044  -1.918  0.00  0.00    -0.080 HD
ENDROOT
BRANCH   1   3
ATOM      3  C   UNL     1       4.583  -0.077  -1.109  0.00  0.00    +0.003 C 
BRANCH   3   4
ATOM      4  C   UNL     1       5.307   0.526   0.068  0.00  0.00    +0.139 A 
ATOM      5  N   UNL     1       4.808   0.760   1.257  0.00  0.00    -0.115 NA
ATOM      6  N   UNL     1       5.737   1.277   1.984  0.00  0.00    -0.023 NA
ATOM      7  N   UNL     1       6.814   1.387   1.286  0.00  0.00    -0.043 NA
ATOM      8  N   UNL     1       6.589   0.934   0.099  0.00  0.00    -0.225 N 
BRANCH   8   9
ATOM      9  C   UNL     1       7.548   0.875  -1.006  0.00  0.00    +0.061 C 
ATOM     10  C   UNL     1       7.620  -0.556  -1.544  0.00  0.00    +0.036 C 
ATOM     11  C   UNL     1       7.098   1.818  -2.123  0.00  0.00    +0.036 C 
BRANCH   9  12
ATOM     12  C   UNL     1       8.930   1.301  -0.506  0.00  0.00    +0.026 C 
ATOM     13  C   UNL     1       9.932   1.240  -1.660  0.00  0.00    +0.006 C 
ENDBRANCH   9  12
ENDBRANCH   8   9
ENDBRANCH   3   4
BRANCH   3  15
ATOM     14  C   UNL     1       3.816  -2.216  -2.148  0.00  0.00    +0.002 C 
ATOM     15  C   UNL     1       4.442  -1.587  -0.902  0.00  0.00    -0.011 C 
ENDBRANCH   3  15
ENDBRANCH   1   3
BRANCH   1  16
ATOM     16  C   UNL     1       2.541   0.491   0.060  0.00  0.00    -0.036 C 
BRANCH  16  17
ATOM     17  C   UNL     1       1.058   0.622  -0.179  0.00  0.00    +0.001 A 
ATOM     18  C   UNL     1       0.288  -0.491  -0.268  0.00  0.00    +0.017 A 
ATOM     19  C   UNL     1      -1.148  -0.330  -0.506  0.00  0.00    -0.001 A 
ATOM     20  C   UNL     1      -1.992  -1.440  -0.612  0.00  0.00    +0.013 A 
ATOM     21  C   UNL     1      -3.327  -1.256  -0.835  0.00  0.00    -0.047 A 
ATOM     22  C   UNL     1      -3.854   0.022  -0.957  0.00  0.00    -0.046 A 
ATOM     23  C   UNL     1      -3.042   1.131  -0.846  0.00  0.00    +0.030 A 
ATOM     24  C   UNL     1      -1.678   0.968  -0.625  0.00  0.00    +0.049 A 
ATOM     25  N   UNL     1      -0.841   2.059  -0.525  0.00  0.00    -0.322 N 
ATOM     26  H   UNL     1      -1.208   2.953  -0.611  0.00  0.00    +0.169 HD
ATOM     27  C   UNL     1       0.477   1.901  -0.311  0.00  0.00    +0.251 A 
ATOM     28  O   UNL     1       1.188   2.888  -0.228  0.00  0.00    -0.268 OA
ATOM     29  C   UNL     1      -5.330   0.201  -1.202  0.00  0.00    +0.044 C 
ATOM     30  C   UNL     1      -4.237  -2.453  -0.949  0.00  0.00    +0.044 C 
ENDBRANCH  16  17
ENDBRANCH   1  16
BRANCH   1  31
ATOM     31  C   UNL     1       3.337   1.900  -1.740  0.00  0.00    -0.045 C 
BRANCH  31  32
ATOM     32  C   UNL     1       3.683   1.865  -3.231  0.00  0.00    +0.102 C 
ATOM     33  C   UNL     1       3.884   3.299  -3.770  0.00  0.00    +0.032 C 
ATOM     34  C   UNL     1       3.281   3.253  -5.192  0.00  0.00    +0.030 C 
ATOM     35  C   UNL     1       2.787   1.797  -5.343  0.00  0.00    +0.160 C 
ATOM     36  O   UNL     1       2.574   1.337  -3.991  0.00  0.00    -0.378 OA
ENDBRANCH  31  32
ENDBRANCH   1  31
TORSDOF 9
