REMARK  Name = ZINC15565537
REMARK  10 active torsions:
REMARK  status: ('A' for Active; 'I' for Inactive)
REMARK    1  A    between atoms: C_1  and  C_2
REMARK    2  A    between atoms: C_2  and  C_3
REMARK    3  A    between atoms: C_2  and  C_4
REMARK    4  A    between atoms: C_2  and  C_5
REMARK    5  A    between atoms: C_8  and  C_11
REMARK    6  A    between atoms: N_13  and  C_14
REMARK    7  A    between atoms: C_14  and  C_15
REMARK    8  A    between atoms: C_15  and  C_16
REMARK    9  A    between atoms: N_21  and  C_24
REMARK   10  A    between atoms: C_24  and  C_25
REMARK                            x       y       z     vdW  Elec       q    Type
REMARK                         _______ _______ _______ _____ _____    ______ ____
ROOT
ATOM      1  C   UNL     1       4.521   8.526  -4.547  0.00  0.00    +0.217 C 
ATOM      2  O   UNL     1       4.789   9.709  -4.589  0.00  0.00    -0.276 OA
ATOM      3  N   UNL     1       3.571   8.080  -3.701  0.00  0.00    -0.299 N 
ATOM      4  C   UNL     1       2.846   9.010  -2.821  0.00  0.00    +0.123 C 
ATOM      5  C   UNL     1       2.910   8.473  -1.388  0.00  0.00    +0.104 C 
ATOM      6  N   UNL     1       2.421   7.088  -1.365  0.00  0.00    -0.294 NA
ATOM      7  C   UNL     1       3.279   6.207  -2.169  0.00  0.00    +0.104 C 
ATOM      8  C   UNL     1       3.230   6.651  -3.635  0.00  0.00    +0.123 C 
ENDROOT
BRANCH   1   9
ATOM      9  C   UNL     1       5.251   7.556  -5.439  0.00  0.00    +0.114 C 
BRANCH   9  10
ATOM     10  C   UNL     1       6.269   8.315  -6.293  0.00  0.00    +0.113 C 
BRANCH  10  13
ATOM     11  C   UNL     1       7.929   7.818  -8.006  0.00  0.00    +0.244 C 
ATOM     12  O   UNL     1       8.197   9.003  -8.048  0.00  0.00    -0.270 OA
ATOM     13  N   UNL     1       6.979   7.372  -7.161  0.00  0.00    -0.311 N 
ATOM     14  H   UNL     1       6.736   6.300  -7.122  0.00  0.00    +0.149 HD
BRANCH  11  18
ATOM     15  C   UNL     1       9.987   5.083 -10.521  0.00  0.00    -0.042 A 
ATOM     16  C   UNL     1      10.294   6.431 -10.573  0.00  0.00    +0.005 A 
ATOM     17  C   UNL     1       9.630   7.325  -9.758  0.00  0.00    +0.013 A 
ATOM     18  C   UNL     1       8.645   6.866  -8.882  0.00  0.00    +0.037 A 
ATOM     19  C   UNL     1       8.343   5.504  -8.832  0.00  0.00    +0.013 A 
ATOM     20  C   UNL     1       9.012   4.622  -9.655  0.00  0.00    +0.005 A 
BRANCH  15  22
ATOM     21  C   UNL     1      12.215   4.164 -11.106  0.00  0.00    +0.015 C 
ATOM     22  C   UNL     1      10.717   4.113 -11.414  0.00  0.00    -0.013 C 
ATOM     23  C   UNL     1      10.193   2.697 -11.164  0.00  0.00    +0.015 C 
ATOM     24  C   UNL     1      10.484   4.492 -12.878  0.00  0.00    +0.015 C 
ENDBRANCH  15  22
ENDBRANCH  11  18
ENDBRANCH  10  13
ENDBRANCH   9  10
ENDBRANCH   1   9
BRANCH   6  25
ATOM     25  C   UNL     1       2.304   6.594   0.014  0.00  0.00    +0.139 C 
BRANCH  25  26
ATOM     26  C   UNL     1       1.576   5.274   0.014  0.00  0.00    +0.048 A 
ATOM     27  C   UNL     1       2.156   4.054   0.002  0.00  0.00    +0.115 A 
ATOM     28  N   UNL     1       1.148   3.128   0.007  0.00  0.00    -0.308 N 
ATOM     29  C   UNL     1       1.149   1.763   0.001  0.00  0.00    +0.092 A 
ATOM     30  C   UNL     1      -0.013   1.076   0.008  0.00  0.00    +0.018 A 
ATOM     31  C   UNL     1      -1.240   1.758   0.018  0.00  0.00    +0.005 A 
ATOM     32  C   UNL     1      -1.255   3.119   0.031  0.00  0.00    +0.045 A 
ATOM     33  C   UNL     1      -0.034   3.822   0.022  0.00  0.00    +0.115 A 
ATOM     34  N   UNL     1       0.250   5.117   0.026  0.00  0.00    -0.342 N 
ATOM     35  H   UNL     1      -0.408   5.998   0.037  0.00  0.00    +0.167 HD
ENDBRANCH  25  26
ENDBRANCH   6  25
TORSDOF 7
