REMARK  Name = ZINC06623668
REMARK  5 active torsions:
REMARK  status: ('A' for Active; 'I' for Inactive)
REMARK    1  A    between atoms: C_6  and  O_7
REMARK    2  A    between atoms: O_7  and  C_8
REMARK    3  A    between atoms: C_10  and  O_20
REMARK    4  A    between atoms: C_12  and  O_19
REMARK    5  A    between atoms: C_14  and  O_18
REMARK                            x       y       z     vdW  Elec       q    Type
REMARK                         _______ _______ _______ _____ _____    ______ ____
ROOT
ATOM      1  C   UNL     1      -1.378   5.977   0.041  0.00  0.00    +0.046 A 
ATOM      2  C   UNL     1      -0.161   5.360   0.027  0.00  0.00    +0.015 A 
ATOM      3  C   UNL     1      -0.090   3.963   0.022  0.00  0.00    +0.021 A 
ATOM      4  C   UNL     1      -1.271   3.197   0.030  0.00  0.00    +0.143 A 
ATOM      5  C   UNL     1      -2.499   3.840   0.044  0.00  0.00    +0.092 A 
ATOM      6  C   UNL     1      -2.551   5.225   0.050  0.00  0.00    +0.128 A 
ATOM      7  O   UNL     1      -1.195   1.849   0.018  0.00  0.00    -0.422 OA
ATOM      8  C   UNL     1      -0.014   1.214   0.009  0.00  0.00    +0.341 A 
ATOM      9  O   UNL     1       0.002  -0.004   0.002  0.00  0.00    -0.245 OA
ATOM     10  C   UNL     1       1.211   1.917   0.001  0.00  0.00    +0.041 A 
ATOM     11  C   UNL     1       1.203   3.274   0.007  0.00  0.00    -0.027 A 
ATOM     12  C   UNL     1       2.616   3.809  -0.004  0.00  0.00    +0.036 C 
ATOM     13  C   UNL     1       3.491   2.618  -0.452  0.00  0.00    +0.010 C 
ATOM     14  C   UNL     1       2.637   1.409  -0.014  0.00  0.00    +0.043 C 
ENDROOT
BRANCH   6  15
ATOM     15  O   UNL     1      -3.754   5.853   0.063  0.00  0.00    -0.461 OA
BRANCH  15  16
ATOM     16  C   UNL     1      -3.740   7.282   0.068  0.00  0.00    +0.339 C 
ATOM     17  C   UNL     1      -5.173   7.808  -0.042  0.00  0.00    +0.214 C 
ATOM     18  C   UNL     1      -5.154   9.338   0.024  0.00  0.00    +0.180 C 
ATOM     19  C   UNL     1      -4.474   9.773   1.326  0.00  0.00    +0.171 C 
ATOM     20  C   UNL     1      -3.067   9.172   1.383  0.00  0.00    +0.198 C 
ATOM     21  O   UNL     1      -3.154   7.749   1.285  0.00  0.00    -0.337 OA
BRANCH  19  22
ATOM     22  O   UNL     1      -4.385  11.199   1.364  0.00  0.00    -0.387 OA
ATOM     23  H   UNL     1      -3.964  11.546   2.163  0.00  0.00    +0.210 HD
ENDBRANCH  19  22
BRANCH  18  24
ATOM     24  O   UNL     1      -4.428   9.856  -1.092  0.00  0.00    -0.386 OA
ATOM     25  H   UNL     1      -4.375  10.821  -1.114  0.00  0.00    +0.210 HD
ENDBRANCH  18  24
BRANCH  17  26
ATOM     26  O   UNL     1      -5.955   7.293   1.038  0.00  0.00    -0.383 OA
ATOM     27  H   UNL     1      -6.006   6.327   1.061  0.00  0.00    +0.210 HD
ENDBRANCH  17  26
ENDBRANCH  15  16
ENDBRANCH   6  15
TORSDOF 5
