REMARK  Name = ZINC66678805
REMARK  6 active torsions:
REMARK  status: ('A' for Active; 'I' for Inactive)
REMARK    1  A    between atoms: C_1  and  C_2
REMARK    2  A    between atoms: C_2  and  C_4
REMARK    3  A    between atoms: C_2  and  N_11
REMARK    4  A    between atoms: N_11  and  C_12
REMARK    5  A    between atoms: N_15  and  C_16
REMARK    6  A    between atoms: C_20  and  C_22
REMARK                            x       y       z     vdW  Elec       q    Type
REMARK                         _______ _______ _______ _____ _____    ______ ____
ROOT
ATOM      1  N   UNL     1       0.675  -0.498   1.303  0.00  0.00    -0.282 N 
ATOM      2  C   UNL     1       2.022  -0.102   1.722  0.00  0.00    +0.134 C 
ATOM      3  C   UNL     1      -0.051  -1.333   2.072  0.00  0.00    +0.307 C 
ATOM      4  O   UNL     1      -1.169  -1.662   1.725  0.00  0.00    -0.252 OA
ATOM      5  N   UNL     1       0.461  -1.803   3.227  0.00  0.00    -0.269 N 
ATOM      6  H   UNL     1       1.376  -1.594   3.472  0.00  0.00    +0.156 HD
ENDROOT
BRANCH   5   7
ATOM      7  C   UNL     1      -0.327  -2.592   4.072  0.00  0.00    +0.035 A 
ATOM      8  C   UNL     1      -1.249  -3.481   3.533  0.00  0.00    +0.023 A 
ATOM      9  C   UNL     1      -2.029  -4.262   4.365  0.00  0.00    +0.002 A 
ATOM     10  C   UNL     1      -1.897  -4.163   5.736  0.00  0.00    +0.010 A 
ATOM     11  C   UNL     1      -0.975  -3.275   6.285  0.00  0.00    +0.004 A 
ATOM     12  C   UNL     1      -0.184  -2.491   5.448  0.00  0.00    +0.033 A 
BRANCH  11  13
ATOM     13  C   UNL     1      -0.832  -3.167   7.758  0.00  0.00    +0.091 A 
ATOM     14  C   UNL     1      -1.630  -3.972   8.604  0.00  0.00    +0.035 A 
ATOM     15  C   UNL     1      -1.471  -3.846   9.952  0.00  0.00    +0.073 A 
ATOM     16  C   UNL     1      -0.516  -2.917  10.422  0.00  0.00    +0.265 A 
ATOM     17  O   UNL     1      -0.339  -2.770  11.620  0.00  0.00    -0.266 OA
ATOM     18  N   UNL     1       0.197  -2.194   9.537  0.00  0.00    -0.243 N 
ATOM     19  H   UNL     1       0.851  -1.558   9.866  0.00  0.00    +0.192 HD
ATOM     20  N   UNL     1       0.038  -2.329   8.271  0.00  0.00    -0.171 NA
ENDBRANCH  11  13
ENDBRANCH   5   7
BRANCH   1  22
ATOM     21  C   UNL     1       0.170   1.542   0.052  0.00  0.00    +0.033 C 
ATOM     22  C   UNL     1       0.118   0.013   0.048  0.00  0.00    +0.104 C 
BRANCH  22  23
ATOM     23  C   UNL     1       0.925  -0.514  -1.111  0.00  0.00    -0.027 A 
ATOM     24  C   UNL     1       1.542  -1.747  -1.019  0.00  0.00    +0.008 A 
ATOM     25  C   UNL     1       2.282  -2.231  -2.081  0.00  0.00    +0.038 A 
ATOM     26  C   UNL     1       2.405  -1.480  -3.238  0.00  0.00    +0.123 A 
ATOM     27  C   UNL     1       1.786  -0.245  -3.329  0.00  0.00    +0.038 A 
ATOM     28  C   UNL     1       1.042   0.234  -2.267  0.00  0.00    +0.008 A 
ATOM     29  F   UNL     1       3.128  -1.952  -4.277  0.00  0.00    -0.205 F 
ENDBRANCH  22  23
ENDBRANCH   1  22
TORSDOF 4
