REMARK  Name = ZINC12568101
REMARK  9 active torsions:
REMARK  status: ('A' for Active; 'I' for Inactive)
REMARK    1  A    between atoms: C_1  and  C_2
REMARK    2  A    between atoms: C_4  and  C_20
REMARK    3  A    between atoms: C_5  and  C_19
REMARK    4  A    between atoms: N_6  and  C_7
REMARK    5  A    between atoms: C_7  and  C_8
REMARK    6  A    between atoms: C_20  and  C_22
REMARK    7  A    between atoms: C_22  and  S_23
REMARK    8  A    between atoms: S_23  and  C_24
REMARK    9  A    between atoms: C_27  and  C_29
REMARK                            x       y       z     vdW  Elec       q    Type
REMARK                         _______ _______ _______ _____ _____    ______ ____
ROOT
ATOM      1  C   UNL     1       0.043  -3.379  -1.448  0.00  0.00    +0.175 C 
ATOM      2  O   UNL     1       0.060  -4.471  -0.920  0.00  0.00    -0.291 OA
ENDROOT
BRANCH   1   6
ATOM      3  C   UNL     1      -0.018   1.503   0.010  0.00  0.00    +0.063 C 
ATOM      4  C   UNL     1       0.002  -0.004   0.002  0.00  0.00    +0.017 A 
ATOM      5  C   UNL     1       0.008  -0.777  -1.097  0.00  0.00    +0.034 A 
ATOM      6  C   UNL     1       0.030  -2.167  -0.625  0.00  0.00    +0.039 A 
ATOM      7  C   UNL     1       0.035  -2.098   0.755  0.00  0.00    +0.026 A 
ATOM      8  N   UNL     1       0.023  -0.801   1.110  0.00  0.00    -0.344 N 
ATOM      9  C   UNL     1       0.056  -3.273   1.700  0.00  0.00    +0.064 C 
BRANCH   8  10
ATOM     10  C   UNL     1       0.029  -0.312   2.491  0.00  0.00    +0.169 C 
BRANCH  10  11
ATOM     11  C   UNL     1      -1.411  -0.163   2.985  0.00  0.00    +0.230 C 
ATOM     12  C   UNL     1      -1.415   0.453   4.391  0.00  0.00    +0.275 C 
ATOM     13  O   UNL     1      -2.774   0.565   4.827  0.00  0.00    -0.485 OA
ATOM     14  C   UNL     1      -3.568  -0.524   4.639  0.00  0.00    +0.162 A 
ATOM     15  C   UNL     1      -4.758  -0.628   5.344  0.00  0.00    +0.049 A 
ATOM     16  C   UNL     1      -5.577  -1.726   5.162  0.00  0.00    +0.004 A 
ATOM     17  C   UNL     1      -5.213  -2.723   4.276  0.00  0.00    +0.004 A 
ATOM     18  C   UNL     1      -4.028  -2.627   3.572  0.00  0.00    +0.049 A 
ATOM     19  C   UNL     1      -3.201  -1.528   3.752  0.00  0.00    +0.163 A 
ATOM     20  O   UNL     1      -2.033  -1.450   3.057  0.00  0.00    -0.480 OA
ENDBRANCH  10  11
ENDBRANCH   8  10
ENDBRANCH   1   6
BRANCH   1  21
ATOM     21  C   UNL     1       0.035  -3.269  -2.951  0.00  0.00    +0.158 C 
BRANCH  21  22
ATOM     22  S   UNL     1       0.056  -4.930  -3.679  0.00  0.00    -0.058 S 
BRANCH  22  23
ATOM     23  C   UNL     1       0.044  -4.635  -5.416  0.00  0.00    +0.278 A 
ATOM     24  N   UNL     1       0.031  -3.462  -6.003  0.00  0.00    -0.101 NA
ATOM     25  N   UNL     1       0.027  -3.622  -7.280  0.00  0.00    -0.106 NA
ATOM     26  C   UNL     1       0.037  -4.904  -7.559  0.00  0.00    +0.251 A 
ATOM     27  O   UNL     1       0.053  -5.572  -6.385  0.00  0.00    -0.411 OA
BRANCH  26  28
ATOM     28  C   UNL     1       0.036  -5.505  -8.907  0.00  0.00    +0.063 A 
ATOM     29  C   UNL     1       0.040  -6.830  -9.204  0.00  0.00    +0.097 A 
ATOM     30  N   UNL     1       0.037  -6.998 -10.558  0.00  0.00    -0.360 N 
ATOM     31  H   UNL     1       0.039  -7.856 -11.011  0.00  0.00    +0.165 HD
ATOM     32  C   UNL     1       0.031  -5.773 -11.190  0.00  0.00    +0.047 A 
ATOM     33  C   UNL     1       0.024  -4.784 -10.191  0.00  0.00    +0.012 A 
ATOM     34  C   UNL     1       0.011  -3.436 -10.544  0.00  0.00    +0.011 A 
ATOM     35  C   UNL     1       0.002  -3.079 -11.874  0.00  0.00    +0.001 A 
ATOM     36  C   UNL     1       0.005  -4.055 -12.861  0.00  0.00    +0.002 A 
ATOM     37  C   UNL     1       0.027  -5.391 -12.528  0.00  0.00    +0.026 A 
ENDBRANCH  26  28
ENDBRANCH  22  23
ENDBRANCH  21  22
ENDBRANCH   1  21
TORSDOF 7
