REMARK  Name = ZINC32695867
REMARK  7 active torsions:
REMARK  status: ('A' for Active; 'I' for Inactive)
REMARK    1  A    between atoms: C_4  and  C_7
REMARK    2  A    between atoms: C_11  and  C_19
REMARK    3  A    between atoms: C_12  and  N_13
REMARK    4  A    between atoms: N_20  and  N_21
REMARK    5  A    between atoms: N_21  and  C_22
REMARK    6  A    between atoms: C_22  and  N_24
REMARK    7  A    between atoms: N_24  and  C_25
REMARK                            x       y       z     vdW  Elec       q    Type
REMARK                         _______ _______ _______ _____ _____    ______ ____
ROOT
ATOM      1  C   UNL     1      -1.495   2.038  -2.411  0.00  0.00    +0.013 C 
ATOM      2  C   UNL     1      -1.621   1.966  -1.069  0.00  0.00    -0.027 C 
ATOM      3  C   UNL     1      -0.543   2.277  -0.055  0.00  0.00    +0.042 C 
ATOM      4  C   UNL     1      -1.209   2.038   1.310  0.00  0.00    +0.043 C 
ATOM      5  C   UNL     1      -2.622   1.603   1.003  0.00  0.00    -0.008 C 
ATOM      6  C   UNL     1      -2.820   1.574  -0.339  0.00  0.00    +0.021 C 
ENDROOT
BRANCH   6   7
ATOM      7  N   UNL     1      -4.020   1.214  -0.943  0.00  0.00    -0.393 NA
ATOM      8  C   UNL     1      -4.094   0.035  -1.816  0.00  0.00    +0.085 C 
ATOM      9  C   UNL     1      -5.225  -0.875  -1.313  0.00  0.00    +0.017 C 
ATOM     10  C   UNL     1      -6.524  -0.069  -1.235  0.00  0.00    +0.003 C 
ATOM     11  C   UNL     1      -6.352   1.081  -0.240  0.00  0.00    +0.017 C 
ATOM     12  C   UNL     1      -5.235   2.010  -0.727  0.00  0.00    +0.085 C 
ATOM     13  H   UNL     1      -3.087   1.460  -0.415  0.00  0.00    +0.126 HD
ENDBRANCH   6   7
BRANCH   1  17
ATOM     14  C   UNL     1      -4.951   2.335  -4.852  0.00  0.00    +0.000 A 
ATOM     15  C   UNL     1      -4.833   3.131  -3.726  0.00  0.00    +0.001 A 
ATOM     16  C   UNL     1      -3.713   3.040  -2.928  0.00  0.00    +0.008 A 
ATOM     17  C   UNL     1      -2.694   2.141  -3.258  0.00  0.00    -0.025 A 
ATOM     18  C   UNL     1      -2.818   1.344  -4.401  0.00  0.00    +0.008 A 
ATOM     19  C   UNL     1      -3.947   1.442  -5.186  0.00  0.00    +0.001 A 
ENDBRANCH   1  17
BRANCH   5  20
ATOM     20  C   UNL     1      -3.596   1.275   1.970  0.00  0.00    +0.135 C 
ATOM     21  N   UNL     1      -3.333   1.432   3.239  0.00  0.00    -0.189 NA
BRANCH  21  22
ATOM     22  N   UNL     1      -4.300   1.107   4.200  0.00  0.00    -0.218 N 
ATOM     23  H   UNL     1      -5.280   0.720   3.885  0.00  0.00    +0.176 HD
BRANCH  22  24
ATOM     24  C   UNL     1      -4.028   1.269   5.510  0.00  0.00    +0.154 C 
ATOM     25  S   UNL     1      -5.209   0.872   6.684  0.00  0.00    -0.017 S 
BRANCH  24  26
ATOM     26  N   UNL     1      -2.827   1.744   5.896  0.00  0.00    -0.296 N 
ATOM     27  H   UNL     1      -2.045   1.936   5.147  0.00  0.00    +0.154 HD
BRANCH  26  28
ATOM     28  C   UNL     1      -2.575   1.992   7.249  0.00  0.00    +0.033 A 
ATOM     29  C   UNL     1      -1.961   3.176   7.637  0.00  0.00    +0.023 A 
ATOM     30  C   UNL     1      -1.718   3.420   8.975  0.00  0.00    +0.002 A 
ATOM     31  C   UNL     1      -2.076   2.483   9.926  0.00  0.00    +0.000 A 
ATOM     32  C   UNL     1      -2.683   1.301   9.543  0.00  0.00    +0.002 A 
ATOM     33  C   UNL     1      -2.933   1.053   8.208  0.00  0.00    +0.023 A 
ENDBRANCH  26  28
ENDBRANCH  24  26
ENDBRANCH  22  24
ENDBRANCH  21  22
ENDBRANCH   5  20
TORSDOF 7
