REMARK  Name = ZINC40392151
REMARK  11 active torsions:
REMARK  status: ('A' for Active; 'I' for Inactive)
REMARK    1  A    between atoms: C_1  and  C_2
REMARK    2  A    between atoms: C_2  and  N_3
REMARK    3  A    between atoms: C_4  and  C_23
REMARK    4  A    between atoms: C_5  and  C_18
REMARK    5  A    between atoms: C_6  and  C_11
REMARK    6  A    between atoms: C_18  and  O_20
REMARK    7  A    between atoms: O_20  and  C_21
REMARK    8  A    between atoms: C_21  and  C_22
REMARK    9  A    between atoms: C_23  and  N_24
REMARK   10  A    between atoms: C_28  and  C_31
REMARK   11  A    between atoms: C_32  and  C_34
REMARK                            x       y       z     vdW  Elec       q    Type
REMARK                         _______ _______ _______ _____ _____    ______ ____
ROOT
ATOM      1  N   UNL     1      -1.085  -1.043   0.669  0.00  0.00    -0.258 N 
ATOM      2  C   UNL     1      -1.863  -1.286   1.765  0.00  0.00    +0.041 C 
ATOM      3  C   UNL     1      -3.134  -1.725   1.634  0.00  0.00    +0.080 C 
ATOM      4  C   UNL     1      -3.666  -1.936   0.231  0.00  0.00    +0.145 C 
ATOM      5  N   UNL     1      -2.747  -1.643  -0.882  0.00  0.00    -0.288 N 
ATOM      6  C   UNL     1      -1.506  -1.207  -0.592  0.00  0.00    +0.307 C 
ATOM      7  O   UNL     1      -0.741  -0.960  -1.503  0.00  0.00    -0.252 OA
ATOM      8  H   UNL     1      -3.030  -1.759  -1.803  0.00  0.00    +0.151 HD
ENDROOT
BRANCH   4   9
ATOM      9  C   UNL     1      -4.099  -3.374   0.110  0.00  0.00    -0.004 A 
ATOM     10  C   UNL     1      -3.211  -4.326  -0.355  0.00  0.00    +0.007 A 
ATOM     11  C   UNL     1      -3.608  -5.646  -0.466  0.00  0.00    +0.000 A 
ATOM     12  C   UNL     1      -4.893  -6.014  -0.113  0.00  0.00    +0.001 A 
ATOM     13  C   UNL     1      -5.781  -5.063   0.351  0.00  0.00    +0.020 A 
ATOM     14  C   UNL     1      -5.383  -3.743   0.468  0.00  0.00    +0.046 A 
ATOM     15 CL   UNL     1      -6.496  -2.548   1.058  0.00  0.00    -0.083 Cl
ENDBRANCH   4   9
BRANCH   1  17
ATOM     16  C   UNL     1       0.292   0.960   0.938  0.00  0.00    +0.025 C 
ATOM     17  C   UNL     1       0.284  -0.569   0.885  0.00  0.00    +0.111 C 
ENDBRANCH   1  17
BRANCH   3  18
ATOM     18  C   UNL     1      -3.940  -1.978   2.768  0.00  0.00    +0.339 C 
ATOM     19  O   UNL     1      -4.040  -3.111   3.202  0.00  0.00    -0.245 OA
BRANCH  18  20
ATOM     20  O   UNL     1      -4.599  -0.965   3.368  0.00  0.00    -0.462 OA
BRANCH  20  21
ATOM     21  C   UNL     1      -5.395  -1.293   4.508  0.00  0.00    +0.229 C 
ATOM     22  C   UNL     1      -6.060  -0.026   5.048  0.00  0.00    +0.048 C 
ENDBRANCH  20  21
ENDBRANCH  18  20
ENDBRANCH   3  18
BRANCH   2  23
ATOM     23  C   UNL     1      -1.294  -1.063   3.142  0.00  0.00    +0.136 C 
BRANCH  23  24
ATOM     24  N   UNL     1      -0.216  -2.030   3.389  0.00  0.00    -0.294 NA
ATOM     25  C   UNL     1      -0.741  -3.402   3.438  0.00  0.00    +0.104 C 
ATOM     26  C   UNL     1       0.429  -4.389   3.515  0.00  0.00    +0.124 C 
ATOM     27  N   UNL     1       1.286  -4.011   4.649  0.00  0.00    -0.290 N 
ATOM     28  C   UNL     1       1.739  -2.615   4.742  0.00  0.00    +0.087 C 
ATOM     29  C   UNL     1       0.519  -1.697   4.617  0.00  0.00    +0.107 C 
ATOM     30  C   UNL     1       2.423  -2.386   6.092  0.00  0.00    +0.029 C 
ATOM     31  C   UNL     1       1.647  -4.919   5.576  0.00  0.00    +0.282 C 
ATOM     32  O   UNL     1       2.426  -4.611   6.459  0.00  0.00    -0.267 OA
BRANCH  31  33
ATOM     33  C   UNL     1       1.100  -6.279   5.523  0.00  0.00    +0.189 A 
ATOM     34  C   UNL     1       1.281  -7.254   6.462  0.00  0.00    +0.054 A 
ATOM     35  C   UNL     1       0.585  -8.385   6.008  0.00  0.00    +0.042 A 
ATOM     36  C   UNL     1       0.018  -8.056   4.826  0.00  0.00    +0.196 A 
ATOM     37  O   UNL     1       0.326  -6.784   4.540  0.00  0.00    -0.458 OA
ENDBRANCH  31  33
ENDBRANCH  23  24
ENDBRANCH   2  23
TORSDOF 8
