REMARK  Name = ZINC07455206
REMARK  10 active torsions:
REMARK  status: ('A' for Active; 'I' for Inactive)
REMARK    1  A    between atoms: C_1  and  C_2
REMARK    2  A    between atoms: C_6  and  N_9
REMARK    3  A    between atoms: C_7  and  C_8
REMARK    4  A    between atoms: C_10  and  C_12
REMARK    5  A    between atoms: C_12  and  N_56
REMARK    6  A    between atoms: C_13  and  N_56
REMARK    7  A    between atoms: C_14  and  C_15
REMARK    8  A    between atoms: C_14  and  N_56
REMARK    9  A    between atoms: N_17  and  C_18
REMARK   10  A    between atoms: C_18  and  C_19
REMARK                            x       y       z     vdW  Elec       q    Type
REMARK                         _______ _______ _______ _____ _____    ______ ____
ROOT
ATOM      1  C   UNL     1      -7.304   1.584   0.232  0.00  0.00    +0.019 C 
ENDROOT
BRANCH   1   2
ATOM      2  C   UNL     1      -8.417   2.591   0.100  0.00  0.00    +0.197 C 
ATOM      3  O   UNL     1      -8.166   3.777   0.109  0.00  0.00    -0.278 OA
ATOM      4  N   UNL     1      -9.692   2.173  -0.027  0.00  0.00    -0.313 N 
ATOM      5  H   UNL     1      -9.893   1.224  -0.034  0.00  0.00    +0.149 HD
BRANCH   4   6
ATOM      6  C   UNL     1     -10.775   3.152  -0.155  0.00  0.00    +0.152 C 
BRANCH   6   7
ATOM      7  C   UNL     1     -12.112   2.419  -0.284  0.00  0.00    +0.228 C 
ATOM      8  C   UNL     1     -13.237   3.435  -0.528  0.00  0.00    +0.275 C 
ATOM      9  O   UNL     1     -14.472   2.718  -0.629  0.00  0.00    -0.485 OA
ATOM     10  C   UNL     1     -14.707   1.767   0.315  0.00  0.00    +0.162 A 
ATOM     11  C   UNL     1     -15.998   1.294   0.498  0.00  0.00    +0.049 A 
ATOM     12  C   UNL     1     -16.252   0.323   1.448  0.00  0.00    +0.004 A 
ATOM     13  C   UNL     1     -15.220  -0.179   2.219  0.00  0.00    +0.004 A 
ATOM     14  C   UNL     1     -13.931   0.289   2.043  0.00  0.00    +0.049 A 
ATOM     15  C   UNL     1     -13.670   1.264   1.092  0.00  0.00    +0.163 A 
ATOM     16  O   UNL     1     -12.397   1.717   0.931  0.00  0.00    -0.480 OA
ENDBRANCH   6   7
ENDBRANCH   4   6
ENDBRANCH   1   2
BRANCH   1  18
ATOM     17  C   UNL     1      -5.955   3.046   1.611  0.00  0.00    -0.095 C 
ATOM     18  N   UNL     1      -6.018   2.306   0.334  0.00  0.00    +0.389 N 
ATOM     19  H   UNL     1      -5.948   2.974  -0.443  0.00  0.00    -0.081 HD
BRANCH  18  20
ATOM     20  C   UNL     1      -4.894   1.350   0.248  0.00  0.00    +0.019 C 
BRANCH  20  22
ATOM     21  N   UNL     1      -2.434   1.468   0.021  0.00  0.00    -0.287 N 
ATOM     22  C   UNL     1      -3.606   2.123   0.132  0.00  0.00    +0.201 C 
ATOM     23  O   UNL     1      -3.624   3.336   0.139  0.00  0.00    -0.278 OA
ATOM     24  H   UNL     1      -2.425   0.502  -0.065  0.00  0.00    +0.155 HD
BRANCH  21  30
ATOM     25  C   UNL     1       2.313   1.774  -1.222  0.00  0.00    +0.044 C 
ATOM     26  C   UNL     1       1.087   2.353  -0.565  0.00  0.00    -0.046 A 
ATOM     27  C   UNL     1       1.150   3.593   0.044  0.00  0.00    +0.004 A 
ATOM     28  C   UNL     1       0.027   4.127   0.648  0.00  0.00    +0.002 A 
ATOM     29  C   UNL     1      -1.162   3.424   0.645  0.00  0.00    +0.023 A 
ATOM     30  C   UNL     1      -1.230   2.181   0.031  0.00  0.00    +0.036 A 
ATOM     31  C   UNL     1      -0.099   1.644  -0.571  0.00  0.00    -0.026 A 
ATOM     32  C   UNL     1      -0.166   0.293  -1.234  0.00  0.00    +0.046 C 
ENDBRANCH  21  30
ENDBRANCH  20  22
ENDBRANCH  18  20
ENDBRANCH   1  18
TORSDOF 7
