REMARK  Name = ZINC20611642
REMARK  7 active torsions:
REMARK  status: ('A' for Active; 'I' for Inactive)
REMARK    1  A    between atoms: C_1  and  C_2
REMARK    2  A    between atoms: C_2  and  C_3
REMARK    3  A    between atoms: C_3  and  C_4
REMARK    4  A    between atoms: C_4  and  C_5
REMARK    5  A    between atoms: C_8  and  N_11
REMARK    6  A    between atoms: C_16  and  C_34
REMARK    7  A    between atoms: C_34  and  C_35
REMARK                            x       y       z     vdW  Elec       q    Type
REMARK                         _______ _______ _______ _____ _____    ______ ____
ROOT
ATOM      1  N   UNL     1       3.396  -3.858  -5.935  0.00  0.00    -0.210 N 
ATOM      2  C   UNL     1       2.744  -4.184  -7.057  0.00  0.00    +0.232 C 
ATOM      3  O   UNL     1       1.542  -4.131  -7.210  0.00  0.00    -0.274 OA
ATOM      4  C   UNL     1       3.739  -4.630  -8.104  0.00  0.00    +0.108 C 
ATOM      5  C   UNL     1       3.557  -6.141  -8.364  0.00  0.00    +0.076 C 
ATOM      6  N   UNL     1       4.937  -6.697  -8.361  0.00  0.00    -0.295 NA
ATOM      7  C   UNL     1       5.622  -5.955  -7.286  0.00  0.00    +0.136 C 
ATOM      8  C   UNL     1       5.107  -4.498  -7.378  0.00  0.00    +0.123 C 
ATOM      9  C   UNL     1       4.725  -3.993  -6.005  0.00  0.00    +0.233 C 
ATOM     10  O   UNL     1       5.502  -3.750  -5.107  0.00  0.00    -0.274 OA
ATOM     11  C   UNL     1       5.349  -6.563  -5.939  0.00  0.00    +0.005 A 
ATOM     12  C   UNL     1       4.198  -6.796  -5.220  0.00  0.00    +0.027 A 
ATOM     13  C   UNL     1       4.269  -7.391  -3.972  0.00  0.00    +0.041 A 
ATOM     14  C   UNL     1       5.500  -7.750  -3.450  0.00  0.00    +0.022 A 
ATOM     15  C   UNL     1       6.655  -7.517  -4.167  0.00  0.00    +0.025 A 
ATOM     16  C   UNL     1       6.591  -6.919  -5.423  0.00  0.00    +0.039 A 
ATOM     17  N   UNL     1       7.603  -6.585  -6.327  0.00  0.00    -0.283 N 
ATOM     18  C   UNL     1       7.116  -6.014  -7.446  0.00  0.00    +0.243 C 
ATOM     19  O   UNL     1       7.759  -5.623  -8.398  0.00  0.00    -0.273 OA
ATOM     20 CL   UNL     1       2.819  -7.686  -3.064  0.00  0.00    -0.084 Cl
ATOM     21  H   UNL     1       4.927  -7.687  -8.169  0.00  0.00    +0.124 HD
ATOM     22  H   UNL     1       8.546  -6.744  -6.167  0.00  0.00    +0.155 HD
ENDROOT
BRANCH   1  26
ATOM     23  C   UNL     1       1.444  -2.512  -2.506  0.00  0.00    -0.047 A 
ATOM     24  C   UNL     1       2.274  -1.657  -3.208  0.00  0.00    +0.005 A 
ATOM     25  C   UNL     1       2.922  -2.100  -4.344  0.00  0.00    +0.024 A 
ATOM     26  C   UNL     1       2.739  -3.405  -4.782  0.00  0.00    +0.044 A 
ATOM     27  C   UNL     1       1.905  -4.261  -4.075  0.00  0.00    +0.024 A 
ATOM     28  C   UNL     1       1.264  -3.813  -2.937  0.00  0.00    +0.005 A 
BRANCH  23  29
ATOM     29  C   UNL     1       0.738  -2.025  -1.267  0.00  0.00    +0.035 C 
BRANCH  29  30
ATOM     30  C   UNL     1       1.621  -2.281  -0.044  0.00  0.00    +0.004 C 
BRANCH  30  32
ATOM     31  C   UNL     1       1.787  -2.043   2.438  0.00  0.00    +0.004 C 
ATOM     32  C   UNL     1       0.904  -1.787   1.215  0.00  0.00    -0.003 C 
ENDBRANCH  30  32
ENDBRANCH  29  30
ENDBRANCH  23  29
ENDBRANCH   1  26
BRANCH   5  33
ATOM     33  C   UNL     1       2.891  -6.372  -9.722  0.00  0.00    +0.115 C 
BRANCH  33  34
ATOM     34  C   UNL     1       2.612  -7.841  -9.902  0.00  0.00    +0.212 C 
ATOM     35  O   UNL     1       2.916  -8.628  -9.030  0.00  0.00    -0.276 OA
ATOM     36  N   UNL     1       2.024  -8.283 -11.032  0.00  0.00    -0.329 N 
ATOM     37  H   UNL     1       1.781  -7.654 -11.729  0.00  0.00    +0.145 HD
ATOM     38  H   UNL     1       1.844  -9.229 -11.148  0.00  0.00    +0.145 HD
ENDBRANCH  33  34
ENDBRANCH   5  33
TORSDOF 6
