REMARK  Name = ZINC09018624
REMARK  9 active torsions:
REMARK  status: ('A' for Active; 'I' for Inactive)
REMARK    1  A    between atoms: C_1  and  C_2
REMARK    2  A    between atoms: C_5  and  C_8
REMARK    3  A    between atoms: C_11  and  C_32
REMARK    4  A    between atoms: C_14  and  C_16
REMARK    5  A    between atoms: C_16  and  S_17
REMARK    6  A    between atoms: S_17  and  C_18
REMARK    7  A    between atoms: C_23  and  C_29
REMARK    8  A    between atoms: C_29  and  C_30
REMARK    9  A    between atoms: C_29  and  C_31
REMARK                            x       y       z     vdW  Elec       q    Type
REMARK                         _______ _______ _______ _____ _____    ______ ____
ROOT
ATOM      1  C   UNL     1      -6.271   6.428  -0.086  0.00  0.00    +0.137 C 
ATOM      2  C   UNL     1      -7.759   6.088  -0.298  0.00  0.00    +0.087 C 
ATOM      3  C   UNL     1      -7.755   4.608  -0.611  0.00  0.00    +0.075 C 
ATOM      4  N   UNL     1      -6.540   4.169  -0.596  0.00  0.00    -0.180 NA
ATOM      5  N   UNL     1      -5.588   5.141  -0.295  0.00  0.00    -0.184 N 
ATOM      6  C   UNL     1      -4.259   4.937  -0.213  0.00  0.00    +0.246 C 
ATOM      7  O   UNL     1      -3.518   5.861   0.052  0.00  0.00    -0.273 OA
ENDROOT
BRANCH   1  12
ATOM      8  C   UNL     1      -5.372   8.358   5.286  0.00  0.00    +0.044 C 
ATOM      9  C   UNL     1      -5.606   7.855   3.885  0.00  0.00    -0.050 A 
ATOM     10  C   UNL     1      -5.622   8.742   2.825  0.00  0.00    +0.004 A 
ATOM     11  C   UNL     1      -5.837   8.280   1.540  0.00  0.00    +0.006 A 
ATOM     12  C   UNL     1      -6.036   6.931   1.315  0.00  0.00    -0.025 A 
ATOM     13  C   UNL     1      -6.026   6.044   2.375  0.00  0.00    +0.006 A 
ATOM     14  C   UNL     1      -5.805   6.506   3.660  0.00  0.00    +0.004 A 
ENDBRANCH   1  12
BRANCH   3  15
ATOM     15  C   UNL     1      -8.944   3.799  -0.894  0.00  0.00    +0.035 A 
ATOM     16  C   UNL     1      -9.031   2.451  -1.194  0.00  0.00    +0.017 A 
ATOM     17  C   UNL     1     -10.276   1.910  -1.419  0.00  0.00    +0.008 A 
ATOM     18  C   UNL     1     -11.371   2.712  -1.352  0.00  0.00    +0.046 A 
ATOM     19  S   UNL     1     -10.658   4.298  -0.949  0.00  0.00    -0.095 S 
ENDBRANCH   3  15
BRANCH   6  20
ATOM     20  C   UNL     1      -3.692   3.561  -0.452  0.00  0.00    +0.175 C 
BRANCH  20  21
ATOM     21  S   UNL     1      -1.887   3.611  -0.272  0.00  0.00    -0.076 S 
BRANCH  21  22
ATOM     22  C   UNL     1      -1.382   1.951  -0.576  0.00  0.00    +0.198 A 
ATOM     23  N   UNL     1      -2.171   0.948  -0.872  0.00  0.00    -0.120 NA
ATOM     24  N   UNL     1      -1.379  -0.196  -1.037  0.00  0.00    -0.109 NA
ATOM     25  C   UNL     1      -0.128   0.144  -0.842  0.00  0.00    +0.237 A 
ATOM     26  N   UNL     1      -0.095   1.485  -0.555  0.00  0.00    -0.260 N 
ATOM     27  C   UNL     1       1.106   2.109  -0.305  0.00  0.00    +0.037 A 
ATOM     28  C   UNL     1       2.252   1.407  -0.340  0.00  0.00    +0.092 A 
ATOM     29  C   UNL     1       2.225   0.021  -0.636  0.00  0.00    +0.253 A 
ATOM     30  O   UNL     1       3.261  -0.617  -0.669  0.00  0.00    -0.268 OA
ATOM     31  N   UNL     1       1.047  -0.587  -0.881  0.00  0.00    -0.291 N 
ATOM     32  H   UNL     1       1.023  -1.536  -1.084  0.00  0.00    +0.172 HD
BRANCH  27  33
ATOM     33  C   UNL     1       1.135   3.582   0.010  0.00  0.00    +0.030 C 
ATOM     34  C   UNL     1       0.702   3.802   1.461  0.00  0.00    +0.013 C 
ATOM     35  C   UNL     1       2.556   4.117  -0.185  0.00  0.00    +0.013 C 
ENDBRANCH  27  33
ENDBRANCH  21  22
ENDBRANCH  20  21
ENDBRANCH   6  20
TORSDOF 6
