REMARK  Name = ZINC32572398
REMARK  6 active torsions:
REMARK  status: ('A' for Active; 'I' for Inactive)
REMARK    1  A    between atoms: C_4  and  C_7
REMARK    2  A    between atoms: C_7  and  N_8
REMARK    3  A    between atoms: C_12  and  S_13
REMARK    4  A    between atoms: S_13  and  C_14
REMARK    5  A    between atoms: C_14  and  C_15
REMARK    6  A    between atoms: C_21  and  C_23
REMARK                            x       y       z     vdW  Elec       q    Type
REMARK                         _______ _______ _______ _____ _____    ______ ____
ROOT
ATOM      1  C   UNL     1      -0.371   5.842  -5.606  0.00  0.00    +0.226 C 
ATOM      2  O   UNL     1      -1.196   4.968  -5.447  0.00  0.00    -0.275 OA
ATOM      3  N   UNL     1       0.890   5.668  -5.163  0.00  0.00    -0.294 N 
ATOM      4  C   UNL     1       1.993   6.644  -5.288  0.00  0.00    +0.108 C 
ATOM      5  C   UNL     1       3.285   5.791  -5.226  0.00  0.00    +0.021 C 
ATOM      6  C   UNL     1       2.896   4.710  -4.184  0.00  0.00    +0.029 C 
ATOM      7  C   UNL     1       1.399   4.473  -4.474  0.00  0.00    +0.106 C 
ENDROOT
BRANCH   7   8
ATOM      8  C   UNL     1       0.652   4.270  -3.181  0.00  0.00    -0.023 A 
ATOM      9  C   UNL     1       0.297   5.363  -2.412  0.00  0.00    +0.009 A 
ATOM     10  C   UNL     1      -0.389   5.184  -1.223  0.00  0.00    +0.050 A 
ATOM     11  C   UNL     1      -0.718   3.906  -0.807  0.00  0.00    +0.162 A 
ATOM     12  C   UNL     1      -0.362   2.809  -1.579  0.00  0.00    +0.162 A 
ATOM     13  C   UNL     1       0.325   2.991  -2.767  0.00  0.00    +0.055 A 
ATOM     14  O   UNL     1      -0.692   1.553  -1.159  0.00  0.00    -0.488 OA
ATOM     15  C   UNL     1      -0.013   1.086   0.008  0.00  0.00    +0.232 C 
ATOM     16  C   UNL     1      -0.712   1.570   1.269  0.00  0.00    +0.082 C 
ATOM     17  C   UNL     1      -0.662   3.083   1.413  0.00  0.00    +0.232 C 
ATOM     18  O   UNL     1      -1.395   3.716   0.363  0.00  0.00    -0.488 OA
ENDBRANCH   7   8
BRANCH   1  19
ATOM     19  C   UNL     1      -0.756   7.124  -6.298  0.00  0.00    +0.173 C 
BRANCH  19  20
ATOM     20  S   UNL     1      -2.502   7.054  -6.770  0.00  0.00    -0.078 S 
BRANCH  20  25
ATOM     21  N   UNL     1      -3.816   9.127  -8.090  0.00  0.00    -0.321 N 
ATOM     22  C   UNL     1      -3.518  10.381  -8.573  0.00  0.00    +0.108 A 
ATOM     23  C   UNL     1      -2.221  10.607  -8.301  0.00  0.00    +0.131 A 
ATOM     24  N   UNL     1      -1.728   9.531  -7.665  0.00  0.00    -0.230 NA
ATOM     25  C   UNL     1      -2.676   8.631  -7.536  0.00  0.00    +0.170 A 
BRANCH  21  26
ATOM     26  C   UNL     1      -5.115   8.453  -8.159  0.00  0.00    +0.159 C 
BRANCH  26  30
ATOM     27  C   UNL     1      -7.263   9.121  -4.527  0.00  0.00    +0.000 A 
ATOM     28  C   UNL     1      -7.402  10.001  -5.585  0.00  0.00    +0.000 A 
ATOM     29  C   UNL     1      -6.707   9.784  -6.760  0.00  0.00    +0.005 A 
ATOM     30  C   UNL     1      -5.872   8.688  -6.878  0.00  0.00    -0.028 A 
ATOM     31  C   UNL     1      -5.737   7.806  -5.822  0.00  0.00    +0.005 A 
ATOM     32  C   UNL     1      -6.428   8.025  -4.645  0.00  0.00    +0.000 A 
ENDBRANCH  26  30
ENDBRANCH  21  26
ENDBRANCH  20  25
ENDBRANCH  19  20
ENDBRANCH   1  19
TORSDOF 6
