REMARK  Name = ZINC35469803
REMARK  11 active torsions:
REMARK  status: ('A' for Active; 'I' for Inactive)
REMARK    1  A    between atoms: C_1  and  C_2
REMARK    2  A    between atoms: C_2  and  C_3
REMARK    3  A    between atoms: C_2  and  C_4
REMARK    4  A    between atoms: C_7  and  C_10
REMARK    5  A    between atoms: C_20  and  C_22
REMARK    6  A    between atoms: C_22  and  N_23
REMARK    7  A    between atoms: N_23  and  C_24
REMARK    8  A    between atoms: C_24  and  C_25
REMARK    9  A    between atoms: C_25  and  O_26
REMARK   10  A    between atoms: O_26  and  C_27
REMARK   11  A    between atoms: N_30  and  C_31
REMARK                            x       y       z     vdW  Elec       q    Type
REMARK                         _______ _______ _______ _____ _____    ______ ____
ROOT
ATOM      1  C   UNL     1       2.903  -1.900   4.709  0.00  0.00    +0.153 C 
ATOM      2  C   UNL     1       2.607  -1.008   5.893  0.00  0.00    +0.044 A 
ATOM      3  C   UNL     1       3.059   0.236   6.114  0.00  0.00    +0.025 A 
ATOM      4  C   UNL     1       2.511   0.670   7.340  0.00  0.00    +0.019 A 
ATOM      5  C   UNL     1       1.745  -0.334   7.818  0.00  0.00    +0.086 A 
ATOM      6  N   UNL     1       1.801  -1.370   6.938  0.00  0.00    -0.347 N 
ATOM      7  C   UNL     1       1.131  -2.669   7.062  0.00  0.00    +0.140 C 
ATOM      8  C   UNL     1       1.076  -3.342   5.687  0.00  0.00    +0.130 C 
ATOM      9  N   UNL     1       2.396  -3.244   5.043  0.00  0.00    -0.286 N 
ATOM     10  C   UNL     1       3.120  -4.347   4.767  0.00  0.00    +0.234 C 
ATOM     11  O   UNL     1       4.206  -4.242   4.237  0.00  0.00    -0.274 OA
ENDROOT
BRANCH   1  15
ATOM     12  C   UNL     1       0.916  -0.417   1.231  0.00  0.00    -0.045 A 
ATOM     13  C   UNL     1       2.280  -0.637   1.206  0.00  0.00    +0.004 A 
ATOM     14  C   UNL     1       2.923  -1.117   2.332  0.00  0.00    +0.006 A 
ATOM     15  C   UNL     1       2.202  -1.376   3.482  0.00  0.00    -0.021 A 
ATOM     16  C   UNL     1       0.838  -1.155   3.507  0.00  0.00    +0.006 A 
ATOM     17  C   UNL     1       0.195  -0.671   2.383  0.00  0.00    +0.004 A 
BRANCH  12  19
ATOM     18  C   UNL     1       0.806   1.463  -0.383  0.00  0.00    +0.012 C 
ATOM     19  C   UNL     1       0.214   0.106   0.004  0.00  0.00    +0.013 C 
ATOM     20  C   UNL     1       0.404  -0.880  -1.151  0.00  0.00    +0.012 C 
ENDBRANCH  12  19
ENDBRANCH   1  15
BRANCH  10  21
ATOM     21  C   UNL     1       2.580  -5.709   5.118  0.00  0.00    +0.205 C 
BRANCH  21  22
ATOM     22  N   UNL     1       3.548  -6.735   4.720  0.00  0.00    -0.274 N 
ATOM     23  C   UNL     1       3.487  -7.276   3.487  0.00  0.00    +0.307 C 
ATOM     24  O   UNL     1       2.629  -6.914   2.706  0.00  0.00    -0.252 OA
ATOM     25  N   UNL     1       4.377  -8.220   3.121  0.00  0.00    -0.267 N 
ATOM     26  H   UNL     1       5.021  -8.555   3.764  0.00  0.00    +0.156 HD
BRANCH  25  27
ATOM     27  C   UNL     1       4.371  -8.718   1.810  0.00  0.00    +0.070 A 
ATOM     28  C   UNL     1       3.203  -8.690   1.062  0.00  0.00    +0.029 A 
ATOM     29  C   UNL     1       3.200  -9.181  -0.230  0.00  0.00    +0.040 A 
ATOM     30  C   UNL     1       4.360  -9.700  -0.778  0.00  0.00    +0.126 A 
ATOM     31  C   UNL     1       5.527  -9.730  -0.034  0.00  0.00    +0.078 A 
ATOM     32  C   UNL     1       5.537  -9.234   1.257  0.00  0.00    +0.147 A 
ATOM     33  F   UNL     1       6.677  -9.258   1.982  0.00  0.00    -0.203 F 
ATOM     34  F   UNL     1       4.353 -10.180  -2.041  0.00  0.00    -0.205 F 
ENDBRANCH  25  27
BRANCH  22  35
ATOM     35  C   UNL     1       4.582  -7.172   5.662  0.00  0.00    +0.138 C 
BRANCH  35  36
ATOM     36  C   UNL     1       4.057  -8.350   6.484  0.00  0.00    +0.178 C 
BRANCH  36  37
ATOM     37  O   UNL     1       3.832  -9.469   5.624  0.00  0.00    -0.381 OA
ATOM     38  C   UNL     1       3.338 -10.629   6.296  0.00  0.00    +0.194 C 
ENDBRANCH  36  37
ENDBRANCH  35  36
ENDBRANCH  22  35
ENDBRANCH  21  22
ENDBRANCH  10  21
TORSDOF 8
