REMARK  Name = ZINC40943842
REMARK  10 active torsions:
REMARK  status: ('A' for Active; 'I' for Inactive)
REMARK    1  A    between atoms: C_1  and  C_2
REMARK    2  A    between atoms: C_2  and  C_3
REMARK    3  A    between atoms: C_2  and  C_4
REMARK    4  A    between atoms: C_7  and  O_11
REMARK    5  A    between atoms: O_11  and  C_12
REMARK    6  A    between atoms: C_12  and  C_13
REMARK    7  A    between atoms: N_15  and  C_16
REMARK    8  A    between atoms: C_19  and  S_22
REMARK    9  A    between atoms: S_22  and  N_25
REMARK   10  A    between atoms: N_25  and  C_26
REMARK                            x       y       z     vdW  Elec       q    Type
REMARK                         _______ _______ _______ _____ _____    ______ ____
ROOT
ATOM      1  C   UNL     1       4.650  -2.054   5.986  0.00  0.00    +0.255 C 
ATOM      2  O   UNL     1       3.950  -2.748   6.693  0.00  0.00    -0.272 OA
ATOM      3  N   UNL     1       5.928  -1.807   6.338  0.00  0.00    -0.283 N 
ATOM      4  H   UNL     1       6.507  -1.308   5.740  0.00  0.00    +0.155 HD
ENDROOT
BRANCH   3   5
ATOM      5  C   UNL     1       6.418  -2.268   7.564  0.00  0.00    +0.034 A 
ATOM      6  C   UNL     1       7.337  -1.509   8.277  0.00  0.00    +0.025 A 
ATOM      7  C   UNL     1       7.819  -1.968   9.487  0.00  0.00    +0.031 A 
ATOM      8  C   UNL     1       7.387  -3.181   9.990  0.00  0.00    +0.111 A 
ATOM      9  C   UNL     1       6.471  -3.939   9.283  0.00  0.00    +0.031 A 
ATOM     10  C   UNL     1       5.981  -3.484   8.075  0.00  0.00    +0.025 A 
BRANCH   8  11
ATOM     11  S   UNL     1       8.004  -3.762  11.535  0.00  0.00    +0.093 S 
ATOM     12  O   UNL     1       7.858  -5.176  11.524  0.00  0.00    -0.148 OA
ATOM     13  O   UNL     1       9.259  -3.127  11.736  0.00  0.00    -0.148 OA
BRANCH  11  14
ATOM     14  N   UNL     1       6.990  -3.191  12.713  0.00  0.00    -0.070 NA
BRANCH  14  15
ATOM     15  C   UNL     1       7.233  -3.494  14.043  0.00  0.00    +0.201 A 
ATOM     16  N   UNL     1       8.213  -4.210  14.553  0.00  0.00    -0.231 NA
ATOM     17  C   UNL     1       8.306  -4.409  15.856  0.00  0.00    +0.120 A 
ATOM     18  C   UNL     1       7.352  -3.845  16.635  0.00  0.00    +0.068 A 
ATOM     19  S   UNL     1       6.351  -3.032  15.400  0.00  0.00    -0.058 S 
ENDBRANCH  14  15
ENDBRANCH  11  14
ENDBRANCH   8  11
ENDBRANCH   3   5
BRANCH   1  20
ATOM     20  C   UNL     1       4.092  -1.470   4.714  0.00  0.00    +0.324 C 
BRANCH  20  21
ATOM     21  O   UNL     1       2.729  -1.873   4.563  0.00  0.00    -0.482 OA
BRANCH  21  25
ATOM     22  C   UNL     1       0.739  -0.522   1.210  0.00  0.00    -0.044 A 
ATOM     23  C   UNL     1       2.059  -0.168   1.419  0.00  0.00    +0.007 A 
ATOM     24  C   UNL     1       2.728  -0.619   2.540  0.00  0.00    +0.047 A 
ATOM     25  C   UNL     1       2.074  -1.427   3.459  0.00  0.00    +0.135 A 
ATOM     26  C   UNL     1       0.748  -1.781   3.248  0.00  0.00    +0.060 A 
ATOM     27  C   UNL     1       0.082  -1.323   2.127  0.00  0.00    +0.022 A 
ATOM     28 BR   UNL     1      -0.148  -2.883   4.497  0.00  0.00    -0.047 Br
BRANCH  22  30
ATOM     29  C   UNL     1      -0.004   1.501  -0.016  0.00  0.00    +0.012 C 
ATOM     30  C   UNL     1       0.012  -0.029  -0.014  0.00  0.00    +0.013 C 
ATOM     31  C   UNL     1       0.728  -0.533  -1.269  0.00  0.00    +0.012 C 
ENDBRANCH  22  30
ENDBRANCH  21  25
ENDBRANCH  20  21
ENDBRANCH   1  20
TORSDOF 8
