REMARK  Name = ZINC35567120
REMARK  19 active torsions:
REMARK  status: ('A' for Active; 'I' for Inactive)
REMARK    1  A    between atoms: C_1  and  C_2
REMARK    2  A    between atoms: C_3  and  C_8
REMARK    3  A    between atoms: C_5  and  C_7
REMARK    4  A    between atoms: C_8  and  C_10
REMARK    5  A    between atoms: N_14  and  C_32
REMARK    6  A    between atoms: C_15  and  C_17
REMARK    7  A    between atoms: C_19  and  C_28
REMARK    8  A    between atoms: C_20  and  O_27
REMARK    9  A    between atoms: C_21  and  C_23
REMARK   10  A    between atoms: C_23  and  C_24
REMARK   11  A    between atoms: C_23  and  C_25
REMARK   12  A    between atoms: C_23  and  C_26
REMARK   13  A    between atoms: C_28  and  C_29
REMARK   14  A    between atoms: C_28  and  C_30
REMARK   15  A    between atoms: C_28  and  C_31
REMARK   16  A    between atoms: C_32  and  C_33
REMARK   17  A    between atoms: C_33  and  N_34
REMARK   18  A    between atoms: N_34  and  C_35
REMARK   19  A    between atoms: N_34  and  C_36
REMARK                            x       y       z     vdW  Elec       q    Type
REMARK                         _______ _______ _______ _____ _____    ______ ____
ROOT
ATOM      1  C   UNL     1       0.119  -0.991  -3.186  0.00  0.00    +0.077 C 
ATOM      2  C   UNL     1       0.351  -0.639  -4.471  0.00  0.00    +0.249 C 
ATOM      3  C   UNL     1       0.606  -1.855  -5.269  0.00  0.00    +0.288 C 
ATOM      4  O   UNL     1       0.848  -1.870  -6.460  0.00  0.00    -0.266 OA
ATOM      5  N   UNL     1       0.531  -2.945  -4.483  0.00  0.00    -0.285 N 
ATOM      6  C   UNL     1       0.227  -2.496  -3.119  0.00  0.00    +0.145 C 
ATOM      7  O   UNL     1       0.351   0.627  -4.949  0.00  0.00    -0.282 OA
ENDROOT
BRANCH   6   8
ATOM      8  C   UNL     1      -1.080  -3.090  -2.661  0.00  0.00    -0.022 A 
ATOM      9  C   UNL     1      -2.261  -2.400  -2.865  0.00  0.00    +0.013 A 
ATOM     10  C   UNL     1      -3.460  -2.941  -2.445  0.00  0.00    +0.000 A 
ATOM     11  C   UNL     1      -3.480  -4.179  -1.819  0.00  0.00    +0.124 A 
ATOM     12  C   UNL     1      -2.294  -4.870  -1.616  0.00  0.00    +0.000 A 
ATOM     13  C   UNL     1      -1.097  -4.326  -2.042  0.00  0.00    +0.013 A 
BRANCH  12  14
ATOM     14  C   UNL     1      -2.311  -6.215  -0.936  0.00  0.00    -0.009 C 
ATOM     15  C   UNL     1      -0.887  -6.768  -0.864  0.00  0.00    +0.015 C 
ATOM     16  C   UNL     1      -2.871  -6.063   0.480  0.00  0.00    +0.015 C 
ATOM     17  C   UNL     1      -3.193  -7.178  -1.732  0.00  0.00    +0.015 C 
ENDBRANCH  12  14
BRANCH  10  18
ATOM     18  C   UNL     1      -4.747  -2.188  -2.667  0.00  0.00    -0.009 C 
ATOM     19  C   UNL     1      -4.447  -0.863  -3.371  0.00  0.00    +0.015 C 
ATOM     20  C   UNL     1      -5.685  -3.027  -3.536  0.00  0.00    +0.015 C 
ATOM     21  C   UNL     1      -5.414  -1.910  -1.318  0.00  0.00    +0.015 C 
ENDBRANCH  10  18
BRANCH  11  22
ATOM     22  O   UNL     1      -4.658  -4.714  -1.404  0.00  0.00    -0.506 OA
ATOM     23  H   UNL     1      -5.096  -5.264  -2.069  0.00  0.00    +0.292 HD
ENDBRANCH  11  22
ENDBRANCH   6   8
BRANCH   1  24
ATOM     24  C   UNL     1      -0.175  -0.084  -2.069  0.00  0.00    +0.203 C 
ATOM     25  O   UNL     1      -0.340   1.105  -2.278  0.00  0.00    -0.286 OA
BRANCH  24  28
ATOM     26  C   UNL     1      -1.059   1.481   0.490  0.00  0.00    +0.067 C 
ATOM     27  C   UNL     1      -0.654   0.029   0.470  0.00  0.00    +0.057 A 
ATOM     28  C   UNL     1      -0.271  -0.609  -0.704  0.00  0.00    +0.082 A 
ATOM     29  S   UNL     1       0.073  -2.249  -0.084  0.00  0.00    -0.069 S 
ATOM     30  C   UNL     1      -0.291  -1.966   1.535  0.00  0.00    +0.076 A 
ATOM     31  N   UNL     1      -0.639  -0.700   1.557  0.00  0.00    -0.249 NA
ATOM     32  C   UNL     1      -0.226  -2.935   2.687  0.00  0.00    +0.073 C 
ENDBRANCH  24  28
ENDBRANCH   1  24
BRANCH   5  33
ATOM     33  C   UNL     1       0.723  -4.332  -4.912  0.00  0.00    +0.090 C 
BRANCH  33  34
ATOM     34  C   UNL     1       2.200  -4.707  -4.777  0.00  0.00    -0.060 C 
BRANCH  34  35
ATOM     35  N   UNL     1       2.393  -6.099  -5.207  0.00  0.00    +0.377 N 
ATOM     36  C   UNL     1       3.826  -6.422  -5.190  0.00  0.00    -0.097 C 
ATOM     37  C   UNL     1       1.678  -6.998  -4.291  0.00  0.00    -0.097 C 
ATOM     38  H   UNL     1       2.033  -6.215  -6.142  0.00  0.00    -0.083 HD
ENDBRANCH  34  35
ENDBRANCH  33  34
ENDBRANCH   5  33
TORSDOF 9
