REMARK  Name = ZINC65199012
REMARK  6 active torsions:
REMARK  status: ('A' for Active; 'I' for Inactive)
REMARK    1  A    between atoms: C_4  and  C_7
REMARK    2  A    between atoms: C_10  and  C_15
REMARK    3  A    between atoms: N_17  and  N_18
REMARK    4  A    between atoms: N_21  and  C_22
REMARK    5  A    between atoms: C_22  and  C_23
REMARK    6  A    between atoms: C_23  and  C_24
REMARK                            x       y       z     vdW  Elec       q    Type
REMARK                         _______ _______ _______ _____ _____    ______ ____
ROOT
ATOM      1  C   UNL     1       7.373  -2.764  -0.086  0.00  0.00    +0.265 C 
ATOM      2  O   UNL     1       8.425  -2.159  -0.182  0.00  0.00    -0.268 OA
ATOM      3  N   UNL     1       7.376  -4.109   0.003  0.00  0.00    -0.229 N 
ATOM      4  H   UNL     1       6.537  -4.596   0.005  0.00  0.00    +0.173 HD
ENDROOT
BRANCH   1   8
ATOM      5  C   UNL     1       3.695  -0.682  -0.032  0.00  0.00    +0.049 A 
ATOM      6  C   UNL     1       4.876   0.036  -0.017  0.00  0.00    +0.027 A 
ATOM      7  C   UNL     1       6.093  -0.632  -0.034  0.00  0.00    +0.020 A 
ATOM      8  C   UNL     1       6.102  -2.028  -0.067  0.00  0.00    +0.102 A 
ATOM      9  C   UNL     1       4.868  -2.727  -0.081  0.00  0.00    +0.261 A 
ATOM     10  O   UNL     1       4.859  -3.946  -0.109  0.00  0.00    -0.267 OA
ATOM     11  N   UNL     1       3.707  -2.047  -0.058  0.00  0.00    -0.321 N 
ATOM     12  H   UNL     1       2.868  -2.533  -0.064  0.00  0.00    +0.169 HD
BRANCH   5  16
ATOM     13  C   UNL     1      -0.016   1.381   0.020  0.00  0.00    +0.000 A 
ATOM     14  C   UNL     1       1.169   2.095   0.030  0.00  0.00    +0.001 A 
ATOM     15  C   UNL     1       2.378   1.431   0.013  0.00  0.00    +0.010 A 
ATOM     16  C   UNL     1       2.404   0.035  -0.013  0.00  0.00    -0.002 A 
ATOM     17  C   UNL     1       1.204  -0.680  -0.023  0.00  0.00    +0.010 A 
ATOM     18  C   UNL     1       0.002  -0.003  -0.006  0.00  0.00    +0.001 A 
ENDBRANCH   5  16
ENDBRANCH   1   8
BRANCH   3  19
ATOM     19  N   UNL     1       8.589  -4.803   0.092  0.00  0.00    -0.218 N 
ATOM     20  C   UNL     1       8.591  -6.148   0.181  0.00  0.00    +0.316 C 
ATOM     21  O   UNL     1       9.645  -6.750   0.259  0.00  0.00    -0.251 OA
ATOM     22  N   UNL     1       7.426  -6.825   0.184  0.00  0.00    -0.298 N 
ATOM     23  H   UNL     1       9.428  -4.316   0.090  0.00  0.00    +0.174 HD
ATOM     24  H   UNL     1       6.586  -6.344   0.123  0.00  0.00    +0.150 HD
BRANCH  22  25
ATOM     25  C   UNL     1       7.428  -8.286   0.281  0.00  0.00    +0.111 C 
BRANCH  25  26
ATOM     26  C   UNL     1       5.987  -8.801   0.264  0.00  0.00    +0.061 C 
BRANCH  26  27
ATOM     27  C   UNL     1       5.990 -10.305   0.363  0.00  0.00    -0.009 A 
ATOM     28  C   UNL     1       5.948 -11.087   1.469  0.00  0.00    +0.011 A 
ATOM     29  C   UNL     1       5.959 -12.461   1.319  0.00  0.00    +0.008 A 
ATOM     30  C   UNL     1       6.012 -12.986   0.070  0.00  0.00    +0.045 A 
ATOM     31  S   UNL     1       6.040 -11.518  -0.946  0.00  0.00    -0.102 S 
ENDBRANCH  26  27
ENDBRANCH  25  26
ENDBRANCH  22  25
ENDBRANCH   3  19
TORSDOF 6
