REMARK  Name = ZINC33271999
REMARK  4 active torsions:
REMARK  status: ('A' for Active; 'I' for Inactive)
REMARK    1  A    between atoms: C_1  and  C_2
REMARK    2  A    between atoms: C_4  and  C_19
REMARK    3  A    between atoms: N_8  and  C_18
REMARK    4  A    between atoms: N_21  and  C_22
REMARK                            x       y       z     vdW  Elec       q    Type
REMARK                         _______ _______ _______ _____ _____    ______ ____
ROOT
ATOM      1  C   UNL     1       3.258  -2.948   0.321  0.00  0.00    +0.046 C 
ATOM      2  C   UNL     1       3.454  -1.454   0.269  0.00  0.00    -0.027 A 
ATOM      3  C   UNL     1       2.317  -0.676   0.153  0.00  0.00    +0.018 A 
ATOM      4  C   UNL     1       2.420   0.713   0.069  0.00  0.00    +0.038 A 
ATOM      5  C   UNL     1       3.679   1.310   0.042  0.00  0.00    +0.023 A 
ATOM      6  C   UNL     1       4.828   0.533   0.161  0.00  0.00    +0.008 A 
ATOM      7  C   UNL     1       4.704  -0.860   0.346  0.00  0.00    +0.062 A 
ATOM      8  N   UNL     1       5.863  -1.593   0.600  0.00  0.00    -0.205 N 
ATOM      9  S   UNL     1       7.158  -1.249  -0.404  0.00  0.00    +0.075 S 
ATOM     10  O   UNL     1       6.731  -1.496  -1.732  0.00  0.00    -0.150 OA
ATOM     11  O   UNL     1       8.306  -1.835   0.183  0.00  0.00    -0.150 OA
ATOM     12  C   UNL     1       7.310   0.505  -0.218  0.00  0.00    +0.116 A 
ATOM     13  C   UNL     1       6.141   1.218   0.062  0.00  0.00    +0.011 A 
ATOM     14  C   UNL     1       6.232   2.597   0.254  0.00  0.00    +0.010 A 
ATOM     15  C   UNL     1       7.455   3.228   0.146  0.00  0.00    +0.001 A 
ATOM     16  C   UNL     1       8.597   2.508  -0.154  0.00  0.00    +0.002 A 
ATOM     17  C   UNL     1       8.521   1.136  -0.338  0.00  0.00    +0.029 A 
ATOM     18  C   UNL     1       6.012  -2.553   1.688  0.00  0.00    +0.157 C 
ENDROOT
BRANCH   4  19
ATOM     19  C   UNL     1       1.206   1.545  -0.019  0.00  0.00    +0.248 C 
ATOM     20  O   UNL     1       1.302   2.753  -0.115  0.00  0.00    -0.270 OA
ATOM     21  N   UNL     1      -0.011   0.966   0.007  0.00  0.00    -0.281 N 
ATOM     22  H   UNL     1      -0.098  -0.131   0.024  0.00  0.00    +0.155 HD
BRANCH  21  23
ATOM     23  C   UNL     1      -1.163   1.759   0.013  0.00  0.00    +0.048 A 
ATOM     24  C   UNL     1      -1.186   2.958  -0.687  0.00  0.00    +0.024 A 
ATOM     25  C   UNL     1      -2.327   3.737  -0.683  0.00  0.00    +0.002 A 
ATOM     26  C   UNL     1      -3.442   3.329   0.025  0.00  0.00    +0.001 A 
ATOM     27  C   UNL     1      -3.422   2.139   0.729  0.00  0.00    +0.017 A 
ATOM     28  C   UNL     1      -2.285   1.352   0.725  0.00  0.00    +0.039 A 
ATOM     29 BR   UNL     1      -2.257  -0.275   1.688  0.00  0.00    -0.048 Br
ENDBRANCH  21  23
ENDBRANCH   4  19
TORSDOF 2
