REMARK  Name = ZINC20215456
REMARK  6 active torsions:
REMARK  status: ('A' for Active; 'I' for Inactive)
REMARK    1  A    between atoms: C_1  and  C_2
REMARK    2  A    between atoms: C_2  and  N_3
REMARK    3  A    between atoms: C_4  and  C_22
REMARK    4  A    between atoms: N_8  and  C_9
REMARK    5  A    between atoms: C_12  and  O_15
REMARK    6  A    between atoms: O_15  and  C_16
REMARK                            x       y       z     vdW  Elec       q    Type
REMARK                         _______ _______ _______ _____ _____    ______ ____
ROOT
ATOM      1  N   UNL     1       0.824  -3.820   1.312  0.00  0.00    -0.321 N 
ATOM      2  C   UNL     1       0.570  -3.364   2.577  0.00  0.00    +0.064 A 
ATOM      3  C   UNL     1       1.261  -3.873   3.621  0.00  0.00    +0.075 A 
ATOM      4  S   UNL     1       2.324  -5.064   2.821  0.00  0.00    -0.059 S 
ATOM      5  C   UNL     1       1.779  -4.795   1.141  0.00  0.00    +0.152 A 
ATOM      6  N   UNL     1       2.186  -5.378   0.030  0.00  0.00    -0.336 N 
ATOM      7  H   UNL     1       1.802  -5.037  -0.942  0.00  0.00    +0.168 HD
ENDROOT
BRANCH   6   8
ATOM      8  C   UNL     1       3.085  -6.409   0.088  0.00  0.00    +0.041 A 
ATOM      9  C   UNL     1       4.449  -6.158  -0.073  0.00  0.00    +0.029 A 
ATOM     10  C   UNL     1       5.352  -7.199  -0.009  0.00  0.00    +0.048 A 
ATOM     11  C   UNL     1       4.905  -8.496   0.204  0.00  0.00    +0.129 A 
ATOM     12  C   UNL     1       3.550  -8.751   0.358  0.00  0.00    +0.048 A 
ATOM     13  C   UNL     1       2.640  -7.716   0.301  0.00  0.00    +0.029 A 
BRANCH  11  14
ATOM     14  O   UNL     1       5.799  -9.519   0.261  0.00  0.00    -0.456 OA
BRANCH  14  15
ATOM     15  C   UNL     1       5.897 -10.342  -0.816  0.00  0.00    +0.128 A 
ATOM     16  C   UNL     1       5.184 -10.060  -1.973  0.00  0.00    +0.046 A 
ATOM     17  C   UNL     1       5.290 -10.894  -3.068  0.00  0.00    +0.004 A 
ATOM     18  C   UNL     1       6.096 -12.016  -3.009  0.00  0.00    +0.000 A 
ATOM     19  C   UNL     1       6.803 -12.302  -1.856  0.00  0.00    +0.004 A 
ATOM     20  C   UNL     1       6.705 -11.468  -0.759  0.00  0.00    +0.046 A 
ENDBRANCH  14  15
ENDBRANCH  11  14
ENDBRANCH   6   8
BRANCH   2  21
ATOM     21  C   UNL     1      -0.447  -2.320   2.800  0.00  0.00    +0.037 A 
ATOM     22  C   UNL     1      -1.280  -2.140   3.873  0.00  0.00    +0.019 A 
ATOM     23  C   UNL     1      -2.160  -1.080   3.857  0.00  0.00    +0.023 A 
ATOM     24  C   UNL     1      -2.175  -0.249   2.783  0.00  0.00    +0.056 A 
ATOM     25  S   UNL     1      -0.914  -0.962   1.740  0.00  0.00    -0.080 S 
ATOM     26 BR   UNL     1      -3.250   1.276   2.475  0.00  0.00    -0.043 Br
ENDBRANCH   2  21
BRANCH   1  28
ATOM     27  C   UNL     1       0.918  -2.171  -0.493  0.00  0.00    +0.027 C 
ATOM     28  C   UNL     1       0.093  -3.281   0.162  0.00  0.00    +0.121 C 
ENDBRANCH   1  28
TORSDOF 5
