REMARK  Name = ZINC35705210
REMARK  14 active torsions:
REMARK  status: ('A' for Active; 'I' for Inactive)
REMARK    1  A    between atoms: C_1  and  C_2
REMARK    2  A    between atoms: C_2  and  C_3
REMARK    3  A    between atoms: C_4  and  C_34
REMARK    4  A    between atoms: C_5  and  C_24
REMARK    5  A    between atoms: C_8  and  C_13
REMARK    6  A    between atoms: C_14  and  N_16
REMARK    7  A    between atoms: N_16  and  C_17
REMARK    8  A    between atoms: C_17  and  C_18
REMARK    9  A    between atoms: C_27  and  O_32
REMARK   10  A    between atoms: C_28  and  O_30
REMARK   11  A    between atoms: O_30  and  C_31
REMARK   12  A    between atoms: O_32  and  C_33
REMARK   13  A    between atoms: C_34  and  O_36
REMARK   14  A    between atoms: O_36  and  C_37
REMARK                            x       y       z     vdW  Elec       q    Type
REMARK                         _______ _______ _______ _____ _____    ______ ____
ROOT
ATOM      1  C   UNL     1       0.665  -1.950  -1.442  0.00  0.00    +0.056 C 
ATOM      2  C   UNL     1       2.045  -1.977  -1.378  0.00  0.00    +0.083 C 
ATOM      3  C   UNL     1       2.813  -1.854  -2.675  0.00  0.00    +0.150 C 
ATOM      4  N   UNL     1       2.017  -1.713  -3.923  0.00  0.00    -0.267 N 
ATOM      5  C   UNL     1       2.502  -1.587  -5.209  0.00  0.00    +0.048 C 
ATOM      6  C   UNL     1       1.602  -1.470  -6.210  0.00  0.00    +0.072 C 
ATOM      7  S   UNL     1       0.056  -1.539  -5.326  0.00  0.00    -0.060 S 
ATOM      8  C   UNL     1       0.658  -1.709  -3.769  0.00  0.00    +0.166 C 
ATOM      9  N   UNL     1       0.050  -1.825  -2.606  0.00  0.00    -0.229 NA
ENDROOT
BRANCH   3  10
ATOM     10  C   UNL     1       3.719  -0.655  -2.566  0.00  0.00    -0.018 A 
ATOM     11  C   UNL     1       3.183   0.619  -2.591  0.00  0.00    +0.009 A 
ATOM     12  C   UNL     1       4.009   1.723  -2.491  0.00  0.00    +0.050 A 
ATOM     13  C   UNL     1       5.379   1.554  -2.365  0.00  0.00    +0.162 A 
ATOM     14  C   UNL     1       5.919   0.271  -2.339  0.00  0.00    +0.162 A 
ATOM     15  C   UNL     1       5.084  -0.831  -2.435  0.00  0.00    +0.055 A 
BRANCH  14  16
ATOM     16  O   UNL     1       7.262   0.100  -2.216  0.00  0.00    -0.491 OA
ATOM     17  C   UNL     1       7.756  -1.238  -2.301  0.00  0.00    +0.277 C 
ENDBRANCH  14  16
BRANCH  13  18
ATOM     18  O   UNL     1       6.193   2.638  -2.267  0.00  0.00    -0.491 OA
ATOM     19  C   UNL     1       5.569   3.923  -2.301  0.00  0.00    +0.277 C 
ENDBRANCH  13  18
ENDBRANCH   3  10
BRANCH   5  20
ATOM     20  C   UNL     1       3.947  -1.580  -5.480  0.00  0.00    +0.091 C 
ATOM     21  C   UNL     1       4.394  -1.641  -6.749  0.00  0.00    +0.239 C 
ATOM     22  O   UNL     1       3.518  -1.574  -7.781  0.00  0.00    -0.271 OA
BRANCH  21  23
ATOM     23  N   UNL     1       5.750  -1.772  -7.000  0.00  0.00    -0.309 N 
ATOM     24  H   UNL     1       6.369  -1.895  -6.263  0.00  0.00    +0.149 HD
BRANCH  23  25
ATOM     25  C   UNL     1       6.248  -1.724  -8.376  0.00  0.00    +0.136 C 
BRANCH  25  26
ATOM     26  C   UNL     1       7.750  -2.015  -8.385  0.00  0.00    +0.135 C 
ATOM     27  C   UNL     1       8.285  -1.964  -9.833  0.00  0.00    +0.035 C 
ATOM     28  C   UNL     1       9.299  -3.141  -9.851  0.00  0.00    +0.031 C 
ATOM     29  C   UNL     1       8.602  -4.144  -8.898  0.00  0.00    +0.160 C 
ATOM     30  O   UNL     1       7.993  -3.333  -7.879  0.00  0.00    -0.375 OA
ENDBRANCH  25  26
ENDBRANCH  23  25
ENDBRANCH  21  23
ENDBRANCH   5  20
BRANCH   1  32
ATOM     31  C   UNL     1      -0.308  -0.687   0.457  0.00  0.00    +0.010 C 
ATOM     32  C   UNL     1      -0.144  -2.070  -0.176  0.00  0.00    +0.053 C 
ENDBRANCH   1  32
BRANCH   2  33
ATOM     33  C   UNL     1       2.711  -2.114  -0.154  0.00  0.00    +0.339 C 
ATOM     34  O   UNL     1       2.078  -2.100   0.888  0.00  0.00    -0.245 OA
BRANCH  33  35
ATOM     35  O   UNL     1       4.054  -2.260  -0.127  0.00  0.00    -0.465 OA
ATOM     36  C   UNL     1       4.667  -2.394   1.157  0.00  0.00    +0.280 C 
ENDBRANCH  33  35
ENDBRANCH   2  33
TORSDOF 10
