REMARK  Name = ZINC35919128
REMARK  7 active torsions:
REMARK  status: ('A' for Active; 'I' for Inactive)
REMARK    1  A    between atoms: C_1  and  C_2
REMARK    2  A    between atoms: C_2  and  N_3
REMARK    3  A    between atoms: N_3  and  C_4
REMARK    4  A    between atoms: N_14  and  C_17
REMARK    5  A    between atoms: N_26  and  C_28
REMARK    6  A    between atoms: C_28  and  C_29
REMARK    7  A    between atoms: C_32  and  C_35
REMARK                            x       y       z     vdW  Elec       q    Type
REMARK                         _______ _______ _______ _____ _____    ______ ____
ROOT
ATOM      1  N   UNL     1      -1.372  -0.511   0.012  0.00  0.00    -0.318 N 
ATOM      2  C   UNL     1      -1.594   0.756  -0.689  0.00  0.00    +0.130 C 
ATOM      3  C   UNL     1      -2.011  -0.757   1.217  0.00  0.00    +0.128 A 
ATOM      4  C   UNL     1      -3.281  -1.344   1.239  0.00  0.00    -0.003 A 
ATOM      5  C   UNL     1      -3.879  -1.572   2.456  0.00  0.00    +0.048 A 
ATOM      6  N   UNL     1      -3.239  -1.228   3.568  0.00  0.00    -0.219 NA
ATOM      7  C   UNL     1      -2.038  -0.673   3.519  0.00  0.00    +0.220 A 
ATOM      8  N   UNL     1      -1.425  -0.444   2.367  0.00  0.00    -0.199 NA
ATOM      9  N   UNL     1      -1.404  -0.329   4.700  0.00  0.00    -0.297 N 
ATOM     10  C   UNL     1      -2.050  -0.580   5.996  0.00  0.00    +0.127 C 
ATOM     11  C   UNL     1      -1.104  -1.422   6.861  0.00  0.00    +0.124 C 
ATOM     12  N   UNL     1       0.227  -0.799   6.842  0.00  0.00    -0.325 N 
ATOM     13  C   UNL     1       0.874  -0.548   5.546  0.00  0.00    +0.124 C 
ATOM     14  C   UNL     1      -0.071   0.288   4.682  0.00  0.00    +0.127 C 
ATOM     15  C   UNL     1      -5.241  -2.207   2.556  0.00  0.00    +0.037 C 
ATOM     16  C   UNL     1      -5.940  -2.142   1.197  0.00  0.00    -0.072 C 
ATOM     17  N   UNL     1      -5.029  -2.672   0.172  0.00  0.00    +0.385 N 
ATOM     18  C   UNL     1      -3.951  -1.704  -0.058  0.00  0.00    -0.037 C 
ATOM     19  H   UNL     1      -4.636  -3.545   0.489  0.00  0.00    -0.081 HD
ENDROOT
BRANCH  12  20
ATOM     20  C   UNL     1       0.867  -0.452   8.036  0.00  0.00    +0.065 A 
ATOM     21  C   UNL     1       1.700  -1.364   8.671  0.00  0.00    +0.026 A 
ATOM     22  C   UNL     1       2.331  -1.018   9.850  0.00  0.00    +0.002 A 
ATOM     23  C   UNL     1       2.135   0.236  10.399  0.00  0.00    +0.003 A 
ATOM     24  C   UNL     1       1.307   1.148   9.771  0.00  0.00    +0.040 A 
ATOM     25  C   UNL     1       0.676   0.811   8.588  0.00  0.00    +0.144 A 
ATOM     26  F   UNL     1      -0.128   1.704   7.971  0.00  0.00    -0.204 F 
ENDBRANCH  12  20
BRANCH   1  28
ATOM     27  C   UNL     1       0.948  -1.281  -0.049  0.00  0.00    +0.024 C 
ATOM     28  C   UNL     1      -0.475  -1.518  -0.560  0.00  0.00    +0.103 C 
ENDBRANCH   1  28
BRANCH  17  29
ATOM     29  C   UNL     1      -5.769  -2.889  -1.079  0.00  0.00    -0.043 C 
BRANCH  29  30
ATOM     30  C   UNL     1      -6.802  -3.965  -0.870  0.00  0.00    -0.064 A 
ATOM     31  C   UNL     1      -6.477  -5.289  -1.098  0.00  0.00    +0.002 A 
ATOM     32  C   UNL     1      -7.425  -6.277  -0.906  0.00  0.00    +0.012 A 
ATOM     33  C   UNL     1      -8.699  -5.940  -0.488  0.00  0.00    +0.055 A 
ATOM     34  C   UNL     1      -9.024  -4.616  -0.260  0.00  0.00    +0.012 A 
ATOM     35  C   UNL     1      -8.074  -3.629  -0.447  0.00  0.00    +0.002 A 
BRANCH  33  36
ATOM     36  C   UNL     1      -9.733  -7.017  -0.280  0.00  0.00    +0.417 C 
ATOM     37  F   UNL     1      -9.672  -7.473   1.041  0.00  0.00    -0.166 F 
ATOM     38  F   UNL     1     -11.006  -6.496  -0.536  0.00  0.00    -0.166 F 
ATOM     39  F   UNL     1      -9.480  -8.080  -1.153  0.00  0.00    -0.166 F 
ENDBRANCH  33  36
ENDBRANCH  29  30
ENDBRANCH  17  29
TORSDOF 5
