REMARK  Name = ZINC41000980
REMARK  10 active torsions:
REMARK  status: ('A' for Active; 'I' for Inactive)
REMARK    1  A    between atoms: C_1  and  C_2
REMARK    2  A    between atoms: C_5  and  C_8
REMARK    3  A    between atoms: C_10  and  C_13
REMARK    4  A    between atoms: C_14  and  C_34
REMARK    5  A    between atoms: C_15  and  C_33
REMARK    6  A    between atoms: C_17  and  N_18
REMARK    7  A    between atoms: C_19  and  C_21
REMARK    8  A    between atoms: C_21  and  C_23
REMARK    9  A    between atoms: C_21  and  O_24
REMARK   10  A    between atoms: O_24  and  C_25
REMARK                            x       y       z     vdW  Elec       q    Type
REMARK                         _______ _______ _______ _____ _____    ______ ____
ROOT
ATOM      1  C   UNL     1      -0.348  -7.881   1.800  0.00  0.00    +0.071 A 
ATOM      2  C   UNL     1      -0.234  -9.257   1.389  0.00  0.00    -0.026 A 
ATOM      3  C   UNL     1       0.003 -10.190   2.329  0.00  0.00    -0.008 A 
ATOM      4  S   UNL     1       0.085  -9.238   3.834  0.00  0.00    -0.078 S 
ATOM      5  C   UNL     1      -0.196  -7.614   3.155  0.00  0.00    +0.085 A 
ATOM      6  C   UNL     1       0.160 -11.678   2.153  0.00  0.00    +0.052 C 
ATOM      7  C   UNL     1      -0.378  -9.643  -0.061  0.00  0.00    +0.045 C 
ENDROOT
BRANCH   1  10
ATOM      8  C   UNL     1      -0.954  -4.834  -0.019  0.00  0.00    +0.202 A 
ATOM      9  N   UNL     1      -0.720  -5.525   1.107  0.00  0.00    -0.187 NA
ATOM     10  C   UNL     1      -0.606  -6.807   0.829  0.00  0.00    +0.261 A 
ATOM     11  O   UNL     1      -0.766  -6.964  -0.498  0.00  0.00    -0.332 OA
ATOM     12  N   UNL     1      -0.997  -5.668  -1.029  0.00  0.00    -0.056 NA
BRANCH   8  17
ATOM     13  C   UNL     1      -1.677   0.871  -0.354  0.00  0.00    +0.044 C 
ATOM     14  C   UNL     1      -1.488  -0.622  -0.267  0.00  0.00    -0.050 A 
ATOM     15  C   UNL     1      -1.555  -1.393  -1.412  0.00  0.00    +0.004 A 
ATOM     16  C   UNL     1      -1.383  -2.761  -1.338  0.00  0.00    +0.012 A 
ATOM     17  C   UNL     1      -1.140  -3.364  -0.105  0.00  0.00    +0.022 A 
ATOM     18  C   UNL     1      -1.072  -2.581   1.046  0.00  0.00    +0.012 A 
ATOM     19  C   UNL     1      -1.241  -1.214   0.959  0.00  0.00    +0.004 A 
ENDBRANCH   8  17
ENDBRANCH   1  10
BRANCH   5  20
ATOM     20  N   UNL     1      -0.251  -6.392   3.814  0.00  0.00    -0.276 N 
ATOM     21  C   UNL     1      -0.077  -6.338   5.149  0.00  0.00    +0.258 C 
ATOM     22  O   UNL     1       0.128  -7.356   5.776  0.00  0.00    -0.271 OA
ATOM     23  H   UNL     1      -0.415  -5.578   3.313  0.00  0.00    +0.155 HD
BRANCH  21  24
ATOM     24  C   UNL     1      -0.137  -5.012   5.864  0.00  0.00    +0.256 C 
ATOM     25  C   UNL     1       1.024  -4.130   5.401  0.00  0.00    +0.062 C 
BRANCH  24  26
ATOM     26  O   UNL     1      -0.040  -5.226   7.273  0.00  0.00    -0.478 OA
BRANCH  26  27
ATOM     27  C   UNL     1      -0.581  -4.275   8.081  0.00  0.00    +0.140 A 
ATOM     28  C   UNL     1      -1.089  -3.106   7.533  0.00  0.00    +0.048 A 
ATOM     29  C   UNL     1      -1.637  -2.141   8.354  0.00  0.00    +0.023 A 
ATOM     30  C   UNL     1      -1.680  -2.338   9.723  0.00  0.00    +0.043 A 
ATOM     31  C   UNL     1      -1.174  -3.503  10.272  0.00  0.00    +0.043 A 
ATOM     32  C   UNL     1      -0.630  -4.474   9.453  0.00  0.00    +0.084 A 
ATOM     33 CL   UNL     1      -0.001  -5.939  10.142  0.00  0.00    -0.080 Cl
ATOM     34 CL   UNL     1      -2.370  -1.123  10.753  0.00  0.00    -0.083 Cl
ENDBRANCH  26  27
ENDBRANCH  24  26
ENDBRANCH  21  24
ENDBRANCH   5  20
TORSDOF 6
