REMARK  Name = ZINC63552586
REMARK  9 active torsions:
REMARK  status: ('A' for Active; 'I' for Inactive)
REMARK    1  A    between atoms: C_1  and  C_2
REMARK    2  A    between atoms: C_2  and  N_3
REMARK    3  A    between atoms: C_8  and  C_18
REMARK    4  A    between atoms: C_18  and  C_19
REMARK    5  A    between atoms: C_19  and  C_20
REMARK    6  A    between atoms: C_20  and  C_21
REMARK    7  A    between atoms: N_23  and  C_24
REMARK    8  A    between atoms: C_24  and  C_25
REMARK    9  A    between atoms: C_25  and  C_26
REMARK                            x       y       z     vdW  Elec       q    Type
REMARK                         _______ _______ _______ _____ _____    ______ ____
ROOT
ATOM      1  C   UNL     1      -2.416  -5.027   3.175  0.00  0.00    +0.013 C 
ENDROOT
BRANCH   1   2
ATOM      2  C   UNL     1      -2.591  -4.174   1.917  0.00  0.00    +0.049 C 
BRANCH   2   7
ATOM      3  N   UNL     1      -1.372  -0.511   0.012  0.00  0.00    -0.259 N 
ATOM      4  C   UNL     1      -2.038  -0.761   1.286  0.00  0.00    +0.310 C 
ATOM      5  N   UNL     1      -1.129  -1.166   2.351  0.00  0.00    -0.147 NA
ATOM      6  N   UNL     1      -1.519  -2.194   2.915  0.00  0.00    -0.166 NA
ATOM      7  C   UNL     1      -2.761  -2.707   2.315  0.00  0.00    +0.217 C 
ATOM      8  N   UNL     1      -2.975  -1.897   1.141  0.00  0.00    -0.267 N 
ATOM      9  C   UNL     1      -3.761  -2.050   0.006  0.00  0.00    +0.054 A 
ATOM     10  C   UNL     1      -4.963  -2.681  -0.203  0.00  0.00    +0.031 A 
ATOM     11  C   UNL     1      -5.515  -2.675  -1.442  0.00  0.00    +0.048 A 
ATOM     12  S   UNL     1      -4.423  -1.808  -2.387  0.00  0.00    -0.090 S 
ATOM     13  C   UNL     1      -3.222  -1.441  -1.153  0.00  0.00    +0.095 A 
ATOM     14  C   UNL     1      -2.014  -0.737  -1.167  0.00  0.00    +0.258 C 
ATOM     15  O   UNL     1      -1.541  -0.337  -2.215  0.00  0.00    -0.269 OA
BRANCH   3  17
ATOM     16  C   UNL     1      -0.019   1.526   0.010  0.00  0.00    +0.024 C 
ATOM     17  C   UNL     1       0.002  -0.004   0.002  0.00  0.00    +0.108 C 
ENDBRANCH   3  17
ENDBRANCH   2   7
ENDBRANCH   1   2
BRANCH   1  18
ATOM     18  C   UNL     1      -2.246  -6.494   2.777  0.00  0.00    +0.096 C 
BRANCH  18  19
ATOM     19  C   UNL     1      -2.074  -7.334   4.016  0.00  0.00    +0.213 C 
ATOM     20  O   UNL     1      -2.086  -6.811   5.110  0.00  0.00    -0.276 OA
ATOM     21  N   UNL     1      -1.906  -8.667   3.909  0.00  0.00    -0.315 N 
ATOM     22  H   UNL     1      -1.897  -9.086   3.034  0.00  0.00    +0.149 HD
BRANCH  21  23
ATOM     23  C   UNL     1      -1.739  -9.484   5.114  0.00  0.00    +0.108 C 
BRANCH  23  24
ATOM     24  C   UNL     1      -1.569 -10.951   4.716  0.00  0.00    +0.052 C 
BRANCH  24  25
ATOM     25  C   UNL     1      -1.397 -11.791   5.955  0.00  0.00    -0.040 C 
ATOM     26  C   UNL     1      -2.362 -12.464   6.622  0.00  0.00    -0.001 A 
ATOM     27  C   UNL     1      -3.806 -12.610   6.402  0.00  0.00    +0.010 A 
ATOM     28  C   UNL     1      -4.528 -13.366   7.260  0.00  0.00    +0.001 A 
ATOM     29  C   UNL     1      -3.933 -14.013   8.351  0.00  0.00    +0.002 A 
ATOM     30  C   UNL     1      -2.612 -13.927   8.619  0.00  0.00    +0.026 A 
ATOM     31  C   UNL     1      -1.758 -13.158   7.782  0.00  0.00    +0.043 A 
ATOM     32  N   UNL     1      -0.469 -12.923   7.830  0.00  0.00    -0.380 N 
ATOM     33  C   UNL     1      -0.109 -12.057   6.702  0.00  0.00    +0.144 C 
ATOM     34  H   UNL     1       0.144 -13.267   8.498  0.00  0.00    +0.160 HD
ENDBRANCH  24  25
ENDBRANCH  23  24
ENDBRANCH  21  23
ENDBRANCH  18  19
ENDBRANCH   1  18
TORSDOF 8
