REMARK  Name = ZINC02071233
REMARK  8 active torsions:
REMARK  status: ('A' for Active; 'I' for Inactive)
REMARK    1  A    between atoms: C_1  and  C_2
REMARK    2  A    between atoms: C_3  and  C_22
REMARK    3  A    between atoms: C_10  and  C_12
REMARK    4  A    between atoms: C_16  and  N_18
REMARK    5  A    between atoms: C_22  and  C_24
REMARK    6  A    between atoms: C_22  and  C_30
REMARK    7  A    between atoms: C_30  and  C_31
REMARK    8  A    between atoms: C_30  and  C_33
REMARK                            x       y       z     vdW  Elec       q    Type
REMARK                         _______ _______ _______ _____ _____    ______ ____
ROOT
ATOM      1  C   UNL     1       0.171   1.171   0.182  0.00  0.00    +0.065 C 
ATOM      2  C   UNL     1      -0.562   1.551  -1.079  0.00  0.00    +0.039 A 
ATOM      3  C   UNL     1      -0.847   2.808  -1.476  0.00  0.00    +0.049 A 
ATOM      4  C   UNL     1      -1.540   2.734  -2.706  0.00  0.00    +0.277 A 
ATOM      5  N   UNL     1      -1.661   1.429  -3.028  0.00  0.00    -0.194 N 
ATOM      6  N   UNL     1      -1.045   0.682  -2.015  0.00  0.00    -0.292 N 
ATOM      7  C   UNL     1      -2.279   0.920  -4.160  0.00  0.00    +0.196 A 
ATOM      8  N   UNL     1      -2.859   1.580  -5.141  0.00  0.00    -0.229 NA
ATOM      9  C   UNL     1      -3.407   0.951  -6.159  0.00  0.00    +0.129 A 
ATOM     10  C   UNL     1      -3.341  -0.418  -6.144  0.00  0.00    +0.041 A 
ATOM     11  S   UNL     1      -2.460  -0.690  -4.616  0.00  0.00    -0.048 S 
ATOM     12  O   UNL     1      -1.955   3.676  -3.356  0.00  0.00    -0.265 OA
ATOM     13  H   UNL     1      -0.976  -0.285  -1.984  0.00  0.00    +0.187 HD
ENDROOT
BRANCH  10  14
ATOM     14  C   UNL     1      -3.853  -1.397  -7.125  0.00  0.00    -0.008 A 
ATOM     15  C   UNL     1      -4.513  -0.959  -8.275  0.00  0.00    +0.009 A 
ATOM     16  C   UNL     1      -4.988  -1.878  -9.187  0.00  0.00    +0.003 A 
ATOM     17  C   UNL     1      -4.813  -3.233  -8.964  0.00  0.00    +0.033 A 
ATOM     18  C   UNL     1      -4.160  -3.674  -7.826  0.00  0.00    +0.127 A 
ATOM     19  C   UNL     1      -3.674  -2.764  -6.910  0.00  0.00    +0.041 A 
BRANCH  18  20
ATOM     20  N   UNL     1      -3.977  -5.124  -7.596  0.00  0.00    +0.056 N 
ATOM     21  O   UNL     1      -4.398  -5.922  -8.401  0.00  0.00    -0.126 OA
ATOM     22  O   UNL     1      -3.407  -5.511  -6.602  0.00  0.00    -0.126 OA
ENDBRANCH  18  20
ENDBRANCH  10  14
BRANCH   3  23
ATOM     23  C   UNL     1      -0.489   4.072  -0.737  0.00  0.00    +0.087 C 
BRANCH  23  24
ATOM     24  C   UNL     1       0.526   4.850  -1.534  0.00  0.00    -0.038 A 
ATOM     25  C   UNL     1       0.152   5.473  -2.709  0.00  0.00    +0.004 A 
ATOM     26  C   UNL     1       1.084   6.186  -3.440  0.00  0.00    +0.000 A 
ATOM     27  C   UNL     1       2.390   6.276  -2.995  0.00  0.00    +0.000 A 
ATOM     28  C   UNL     1       2.764   5.653  -1.819  0.00  0.00    +0.000 A 
ATOM     29  C   UNL     1       1.831   4.943  -1.086  0.00  0.00    +0.004 A 
ENDBRANCH  23  24
BRANCH  23  30
ATOM     30  C   UNL     1      -1.746   4.923  -0.544  0.00  0.00    +0.205 C 
BRANCH  30  31
ATOM     31  C   UNL     1      -2.738   4.164   0.234  0.00  0.00    +0.082 C 
ATOM     32  N   UNL     1      -3.504   3.578   0.835  0.00  0.00    -0.195 NA
ENDBRANCH  30  31
BRANCH  30  33
ATOM     33  C   UNL     1      -1.397   6.158   0.177  0.00  0.00    +0.082 C 
ATOM     34  N   UNL     1      -1.127   7.111   0.734  0.00  0.00    -0.195 NA
ENDBRANCH  30  33
ENDBRANCH  23  30
ENDBRANCH   3  23
TORSDOF 7
