REMARK  Name = ZINC09690539
REMARK  11 active torsions:
REMARK  status: ('A' for Active; 'I' for Inactive)
REMARK    1  A    between atoms: C_1  and  C_2
REMARK    2  A    between atoms: C_2  and  O_3
REMARK    3  A    between atoms: O_3  and  C_4
REMARK    4  A    between atoms: C_4  and  C_6
REMARK    5  A    between atoms: C_7  and  C_32
REMARK    6  A    between atoms: C_13  and  C_17
REMARK    7  A    between atoms: C_17  and  C_19
REMARK    8  A    between atoms: C_17  and  S_20
REMARK    9  A    between atoms: S_20  and  C_21
REMARK   10  A    between atoms: C_24  and  C_26
REMARK   11  A    between atoms: C_30  and  C_31
REMARK                            x       y       z     vdW  Elec       q    Type
REMARK                         _______ _______ _______ _____ _____    ______ ____
ROOT
ATOM      1  C   UNL     1      12.708  -2.709   0.966  0.00  0.00    +0.102 A 
ATOM      2  C   UNL     1      11.614  -3.325   0.430  0.00  0.00    -0.015 A 
ATOM      3  C   UNL     1      10.430  -2.606   0.251  0.00  0.00    +0.076 A 
ATOM      4  C   UNL     1       9.135  -3.060  -0.304  0.00  0.00    +0.260 A 
ATOM      5  O   UNL     1       8.986  -4.208  -0.685  0.00  0.00    -0.267 OA
ATOM      6  N   UNL     1       8.125  -2.171  -0.378  0.00  0.00    -0.309 N 
ATOM      7  H   UNL     1       7.270  -2.452  -0.739  0.00  0.00    +0.170 HD
ATOM      8  C   UNL     1       8.280  -0.891   0.042  0.00  0.00    +0.124 A 
ATOM      9  N   UNL     1       9.409  -0.457   0.531  0.00  0.00    -0.225 NA
ATOM     10  C   UNL     1      10.466  -1.251   0.653  0.00  0.00    +0.116 A 
ATOM     11  S   UNL     1      12.123  -1.047   1.254  0.00  0.00    -0.062 S 
ATOM     12  C   UNL     1      11.683  -4.777   0.033  0.00  0.00    +0.046 C 
ENDROOT
BRANCH   1  13
ATOM     13  C   UNL     1      14.033  -3.272   1.236  0.00  0.00    +0.346 C 
ATOM     14  O   UNL     1      14.263  -4.437   0.976  0.00  0.00    -0.244 OA
BRANCH  13  15
ATOM     15  O   UNL     1      14.997  -2.497   1.774  0.00  0.00    -0.461 OA
BRANCH  15  17
ATOM     16  C   UNL     1      17.244  -2.095   2.624  0.00  0.00    +0.048 C 
ATOM     17  C   UNL     1      16.286  -3.121   2.015  0.00  0.00    +0.229 C 
ENDBRANCH  15  17
ENDBRANCH  13  15
ENDBRANCH   1  13
BRANCH   8  18
ATOM     18  C   UNL     1       7.116   0.059  -0.066  0.00  0.00    +0.119 C 
ATOM     19  C   UNL     1       7.224   0.853  -1.370  0.00  0.00    +0.027 C 
BRANCH  18  20
ATOM     20  S   UNL     1       5.568  -0.878  -0.057  0.00  0.00    -0.055 S 
BRANCH  20  21
ATOM     21  C   UNL     1       4.407   0.447  -0.038  0.00  0.00    +0.278 A 
ATOM     22  N   UNL     1       4.691   1.727  -0.033  0.00  0.00    -0.101 NA
ATOM     23  N   UNL     1       3.600   2.409  -0.025  0.00  0.00    -0.106 NA
ATOM     24  C   UNL     1       2.575   1.591  -0.014  0.00  0.00    +0.253 A 
ATOM     25  O   UNL     1       3.064   0.331  -0.026  0.00  0.00    -0.411 OA
BRANCH  24  26
ATOM     26  C   UNL     1       1.148   1.975   0.002  0.00  0.00    +0.079 A 
ATOM     27  C   UNL     1      -0.013   1.076   0.008  0.00  0.00    +0.054 A 
ATOM     28  C   UNL     1      -1.096   1.869   0.017  0.00  0.00    +0.196 A 
ATOM     29  O   UNL     1      -0.701   3.151   0.026  0.00  0.00    -0.467 OA
ATOM     30  C   UNL     1       0.637   3.237   0.013  0.00  0.00    +0.114 A 
ATOM     31  C   UNL     1       1.439   4.513   0.012  0.00  0.00    +0.087 C 
ENDBRANCH  24  26
ENDBRANCH  20  21
ENDBRANCH  18  20
ENDBRANCH   8  18
TORSDOF 7
