REMARK  Name = ZINC16037830
REMARK  3 active torsions:
REMARK  status: ('A' for Active; 'I' for Inactive)
REMARK    1  A    between atoms: C_10  and  N_11
REMARK    2  A    between atoms: C_27  and  C_33
REMARK    3  A    between atoms: C_33  and  C_35
REMARK                            x       y       z     vdW  Elec       q    Type
REMARK                         _______ _______ _______ _____ _____    ______ ____
ROOT
ATOM      1  N   UNL     1      -2.454   1.432   0.022  0.00  0.00    -0.209 N 
ATOM      2  C   UNL     1      -3.123   1.067  -1.119  0.00  0.00    +0.232 C 
ATOM      3  O   UNL     1      -2.923   1.453  -2.250  0.00  0.00    -0.274 OA
ATOM      4  C   UNL     1      -4.122   0.115  -0.672  0.00  0.00    +0.113 C 
ATOM      5  C   UNL     1      -5.396  -0.446  -1.103  0.00  0.00    +0.100 C 
ATOM      6  C   UNL     1      -5.400  -1.498  -2.153  0.00  0.00    -0.021 A 
ATOM      7  C   UNL     1      -4.504  -1.470  -3.201  0.00  0.00    +0.006 A 
ATOM      8  C   UNL     1      -4.547  -2.443  -4.184  0.00  0.00    +0.000 A 
ATOM      9  C   UNL     1      -5.491  -3.453  -4.125  0.00  0.00    +0.001 A 
ATOM     10  C   UNL     1      -6.388  -3.501  -3.079  0.00  0.00    +0.008 A 
ATOM     11  C   UNL     1      -6.342  -2.533  -2.074  0.00  0.00    -0.019 A 
ATOM     12  C   UNL     1      -7.295  -2.594  -0.949  0.00  0.00    +0.022 C 
ATOM     13  C   UNL     1      -7.122  -1.803   0.126  0.00  0.00    +0.054 C 
ATOM     14  N   UNL     1      -6.027  -0.967   0.127  0.00  0.00    -0.384 NA
ATOM     15  C   UNL     1      -5.239  -0.485   1.290  0.00  0.00    +0.141 C 
ATOM     16  C   UNL     1      -4.516   0.749   0.731  0.00  0.00    +0.116 C 
ATOM     17  C   UNL     1      -3.106   1.052   1.161  0.00  0.00    +0.232 C 
ATOM     18  O   UNL     1      -2.646   0.977   2.280  0.00  0.00    -0.274 OA
ATOM     19  H   UNL     1      -6.990  -1.461   0.326  0.00  0.00    +0.127 HD
ENDROOT
BRANCH   1  29
ATOM     20  C   UNL     1       2.399   0.038  -0.020  0.00  0.00    +0.001 A 
ATOM     21  C   UNL     1       1.194  -0.662  -0.013  0.00  0.00    +0.001 A 
ATOM     22  C   UNL     1       0.002  -0.004   0.002  0.00  0.00    +0.010 A 
ATOM     23  C   UNL     1      -0.017   1.400   0.010  0.00  0.00    +0.004 A 
ATOM     24  C   UNL     1       1.208   2.112   0.002  0.00  0.00    -0.016 A 
ATOM     25  C   UNL     1       2.419   1.399  -0.013  0.00  0.00    +0.008 A 
ATOM     26  C   UNL     1       1.190   3.517   0.009  0.00  0.00    +0.008 A 
ATOM     27  C   UNL     1       0.002   4.182   0.022  0.00  0.00    +0.002 A 
ATOM     28  C   UNL     1      -1.207   3.493   0.030  0.00  0.00    +0.024 A 
ATOM     29  C   UNL     1      -1.232   2.115   0.019  0.00  0.00    +0.052 A 
ENDBRANCH   1  29
BRANCH  15  30
ATOM     30  C   UNL     1      -4.245  -1.528   1.733  0.00  0.00    +0.183 C 
ATOM     31  O   UNL     1      -3.999  -2.475   1.017  0.00  0.00    -0.290 OA
BRANCH  30  32
ATOM     32  C   UNL     1      -3.574  -1.398   3.035  0.00  0.00    +0.019 A 
ATOM     33  C   UNL     1      -3.851  -0.304   3.862  0.00  0.00    +0.013 A 
ATOM     34  C   UNL     1      -3.221  -0.190   5.083  0.00  0.00    +0.020 A 
ATOM     35  C   UNL     1      -2.309  -1.151   5.488  0.00  0.00    +0.041 A 
ATOM     36  C   UNL     1      -2.026  -2.235   4.672  0.00  0.00    +0.020 A 
ATOM     37  C   UNL     1      -2.651  -2.364   3.451  0.00  0.00    +0.013 A 
ATOM     38 CL   UNL     1      -1.516  -0.996   7.024  0.00  0.00    -0.084 Cl
ENDBRANCH  30  32
ENDBRANCH  15  30
TORSDOF 3
