REMARK  Name = ZINC40030234
REMARK  11 active torsions:
REMARK  status: ('A' for Active; 'I' for Inactive)
REMARK    1  A    between atoms: C_2  and  C_3
REMARK    2  A    between atoms: C_3  and  N_4
REMARK    3  A    between atoms: C_5  and  C_29
REMARK    4  A    between atoms: C_7  and  C_12
REMARK    5  A    between atoms: C_12  and  C_14
REMARK    6  A    between atoms: C_18  and  O_20
REMARK    7  A    between atoms: O_20  and  C_21
REMARK    8  A    between atoms: C_21  and  C_22
REMARK    9  A    between atoms: C_33  and  O_35
REMARK   10  A    between atoms: O_35  and  C_36
REMARK   11  A    between atoms: C_36  and  C_37
REMARK                            x       y       z     vdW  Elec       q    Type
REMARK                         _______ _______ _______ _____ _____    ______ ____
ROOT
ATOM      1  N   UNL     1      -1.240  -1.714  -1.160  0.00  0.00    -0.280 N 
ATOM      2  C   UNL     1      -1.875  -1.416  -2.449  0.00  0.00    +0.145 C 
ATOM      3  C   UNL     1      -1.696  -2.651  -3.302  0.00  0.00    +0.076 C 
ATOM      4  C   UNL     1      -1.022  -3.551  -2.549  0.00  0.00    +0.249 C 
ATOM      5  C   UNL     1      -0.738  -2.961  -1.224  0.00  0.00    +0.288 C 
ATOM      6  O   UNL     1      -0.143  -3.519  -0.324  0.00  0.00    -0.266 OA
ATOM      7  O   UNL     1      -0.661  -4.793  -2.947  0.00  0.00    -0.282 OA
ENDROOT
BRANCH   2   8
ATOM      8  C   UNL     1      -3.341  -1.129  -2.251  0.00  0.00    -0.019 A 
ATOM      9  C   UNL     1      -4.099  -1.944  -1.431  0.00  0.00    +0.006 A 
ATOM     10  C   UNL     1      -5.444  -1.683  -1.247  0.00  0.00    +0.004 A 
ATOM     11  C   UNL     1      -6.034  -0.608  -1.883  0.00  0.00    +0.045 A 
ATOM     12  C   UNL     1      -5.276   0.210  -2.707  0.00  0.00    +0.121 A 
ATOM     13  C   UNL     1      -3.924  -0.050  -2.885  0.00  0.00    +0.051 A 
BRANCH  12  14
ATOM     14  O   UNL     1      -5.854   1.268  -3.334  0.00  0.00    -0.488 OA
BRANCH  14  15
ATOM     15  C   UNL     1      -7.247   1.479  -3.100  0.00  0.00    +0.256 C 
BRANCH  15  16
ATOM     16  C   UNL     1      -7.709   2.688  -3.872  0.00  0.00    +0.006 C 
ATOM     17  C   UNL     1      -8.829   2.643  -4.550  0.00  0.00    +0.007 C 
ENDBRANCH  15  16
ENDBRANCH  14  15
ENDBRANCH  12  14
ENDBRANCH   2   8
BRANCH   3  18
ATOM     18  C   UNL     1      -2.163  -2.838  -4.678  0.00  0.00    +0.195 C 
ATOM     19  O   UNL     1      -3.025  -3.662  -4.922  0.00  0.00    -0.287 OA
BRANCH  18  20
ATOM     20  C   UNL     1      -1.587  -2.026  -5.771  0.00  0.00    +0.026 A 
ATOM     21  C   UNL     1      -0.513  -1.169  -5.518  0.00  0.00    +0.012 A 
ATOM     22  C   UNL     1       0.021  -0.413  -6.540  0.00  0.00    +0.004 A 
ATOM     23  C   UNL     1      -0.503  -0.499  -7.817  0.00  0.00    +0.046 A 
ATOM     24  C   UNL     1      -1.571  -1.347  -8.079  0.00  0.00    +0.122 A 
ATOM     25  C   UNL     1      -2.111  -2.116  -7.062  0.00  0.00    +0.057 A 
BRANCH  24  26
ATOM     26  O   UNL     1      -2.082  -1.427  -9.336  0.00  0.00    -0.487 OA
BRANCH  26  27
ATOM     27  C   UNL     1      -1.472  -0.611 -10.337  0.00  0.00    +0.264 C 
BRANCH  27  28
ATOM     28  C   UNL     1      -2.166  -0.832 -11.657  0.00  0.00    -0.010 A 
ATOM     29  C   UNL     1      -1.722  -1.821 -12.514  0.00  0.00    +0.008 A 
ATOM     30  C   UNL     1      -2.358  -2.024 -13.724  0.00  0.00    +0.020 A 
ATOM     31  C   UNL     1      -3.440  -1.236 -14.077  0.00  0.00    +0.041 A 
ATOM     32  C   UNL     1      -3.883  -0.246 -13.219  0.00  0.00    +0.020 A 
ATOM     33  C   UNL     1      -3.250  -0.048 -12.007  0.00  0.00    +0.008 A 
ATOM     34 CL   UNL     1      -4.239  -1.490 -15.597  0.00  0.00    -0.084 Cl
ENDBRANCH  27  28
ENDBRANCH  26  27
ENDBRANCH  24  26
ENDBRANCH  18  20
ENDBRANCH   3  18
BRANCH   1  35
ATOM     35  C   UNL     1      -1.161  -0.810  -0.009  0.00  0.00    +0.136 C 
BRANCH  35  37
ATOM     36  C   UNL     1       0.021   1.325  -0.068  0.00  0.00    +0.005 C 
ATOM     37  C   UNL     1       0.094   0.018  -0.106  0.00  0.00    -0.016 C 
ENDBRANCH  35  37
ENDBRANCH   1  35
TORSDOF 11
