REMARK  Name = ZINC38550609
REMARK  7 active torsions:
REMARK  status: ('A' for Active; 'I' for Inactive)
REMARK    1  A    between atoms: C_1  and  O_2
REMARK    2  A    between atoms: O_2  and  C_3
REMARK    3  A    between atoms: C_7  and  C_9
REMARK    4  A    between atoms: C_9  and  C_11
REMARK    5  A    between atoms: C_9  and  N_28
REMARK    6  A    between atoms: C_15  and  N_16
REMARK    7  A    between atoms: C_17  and  C_19
REMARK                            x       y       z     vdW  Elec       q    Type
REMARK                         _______ _______ _______ _____ _____    ______ ____
ROOT
ATOM      1  C   UNL     1      -2.643  -4.583   0.188  0.00  0.00    +0.135 C 
ENDROOT
BRANCH   1   2
ATOM      2  C   UNL     1      -2.993  -4.751  -1.268  0.00  0.00    +0.009 A 
ATOM      3  C   UNL     1      -2.083  -5.346  -2.142  0.00  0.00    -0.030 A 
ATOM      4  C   UNL     1      -2.471  -5.462  -3.440  0.00  0.00    -0.005 A 
ATOM      5  S   UNL     1      -4.096  -4.753  -3.464  0.00  0.00    -0.078 S 
ATOM      6  C   UNL     1      -4.200  -4.329  -1.732  0.00  0.00    +0.078 A 
ATOM      7  C   UNL     1      -1.696  -6.052  -4.574  0.00  0.00    +0.043 C 
ATOM      8  C   UNL     1      -0.230  -6.187  -4.137  0.00  0.00    +0.005 C 
ATOM      9  C   UNL     1      -0.188  -6.833  -2.749  0.00  0.00    +0.005 C 
ATOM     10  C   UNL     1      -0.713  -5.853  -1.700  0.00  0.00    +0.036 C 
BRANCH   6  11
ATOM     11  N   UNL     1      -5.246  -3.720  -1.036  0.00  0.00    -0.273 N 
ATOM     12  C   UNL     1      -6.415  -3.472  -1.659  0.00  0.00    +0.284 C 
ATOM     13  O   UNL     1      -6.559  -3.780  -2.828  0.00  0.00    -0.266 OA
ATOM     14  H   UNL     1      -5.131  -3.475  -0.104  0.00  0.00    +0.156 HD
BRANCH  12  15
ATOM     15  C   UNL     1      -7.514  -2.833  -0.928  0.00  0.00    +0.189 A 
ATOM     16  C   UNL     1      -8.746  -2.532  -1.434  0.00  0.00    +0.054 A 
ATOM     17  C   UNL     1      -9.475  -1.935  -0.393  0.00  0.00    +0.042 A 
ATOM     18  C   UNL     1      -8.666  -1.898   0.689  0.00  0.00    +0.196 A 
ATOM     19  O   UNL     1      -7.487  -2.445   0.364  0.00  0.00    -0.458 OA
ENDBRANCH  12  15
ENDBRANCH   6  11
ENDBRANCH   1   2
BRANCH   1  20
ATOM     20  N   UNL     1      -3.801  -4.938   1.013  0.00  0.00    -0.320 N 
ATOM     21  C   UNL     1      -3.635  -5.199   2.368  0.00  0.00    +0.097 A 
ATOM     22  C   UNL     1      -2.367  -5.116   2.936  0.00  0.00    +0.041 A 
ATOM     23  C   UNL     1      -2.216  -5.378   4.285  0.00  0.00    +0.005 A 
ATOM     24  C   UNL     1      -3.342  -5.716   5.025  0.00  0.00    +0.018 A 
ATOM     25  C   UNL     1      -4.569  -5.779   4.397  0.00  0.00    +0.084 A 
ATOM     26  N   UNL     1      -4.685  -5.519   3.108  0.00  0.00    -0.350 N 
ATOM     27  H   UNL     1      -4.683  -4.990   0.614  0.00  0.00    +0.148 HD
ATOM     28  H   UNL     1      -5.560  -5.567   2.692  0.00  0.00    +0.166 HD
ENDBRANCH   1  20
BRANCH   1  33
ATOM     29  C   UNL     1      -0.601  -1.419   0.508  0.00  0.00    +0.120 A 
ATOM     30  C   UNL     1      -1.563  -0.514   0.934  0.00  0.00    +0.045 A 
ATOM     31  C   UNL     1      -2.868  -0.929   1.116  0.00  0.00    +0.004 A 
ATOM     32  C   UNL     1      -3.216  -2.245   0.874  0.00  0.00    +0.006 A 
ATOM     33  C   UNL     1      -2.260  -3.149   0.450  0.00  0.00    -0.019 A 
ATOM     34  C   UNL     1      -0.955  -2.738   0.261  0.00  0.00    +0.051 A 
BRANCH  29  36
ATOM     35  C   UNL     1       0.975   0.358   0.602  0.00  0.00    +0.277 C 
ATOM     36  O   UNL     1       0.683  -1.014   0.328  0.00  0.00    -0.495 OA
ENDBRANCH  29  36
ENDBRANCH   1  33
TORSDOF 6
