REMARK  Name = ZINC40011004
REMARK  14 active torsions:
REMARK  status: ('A' for Active; 'I' for Inactive)
REMARK    1  A    between atoms: C_1  and  C_2
REMARK    2  A    between atoms: C_2  and  O_3
REMARK    3  A    between atoms: O_3  and  C_4
REMARK    4  A    between atoms: C_4  and  C_5
REMARK    5  A    between atoms: C_5  and  C_6
REMARK    6  A    between atoms: C_6  and  N_7
REMARK    7  A    between atoms: N_7  and  C_8
REMARK    8  A    between atoms: C_8  and  N_10
REMARK    9  A    between atoms: C_15  and  O_36
REMARK   10  A    between atoms: C_16  and  O_34
REMARK   11  A    between atoms: C_19  and  C_21
REMARK   12  A    between atoms: C_26  and  C_33
REMARK   13  A    between atoms: O_34  and  C_35
REMARK   14  A    between atoms: O_36  and  C_37
REMARK                            x       y       z     vdW  Elec       q    Type
REMARK                         _______ _______ _______ _____ _____    ______ ____
ROOT
ATOM      1  N   UNL     1       3.181  -5.777  -5.312  0.00  0.00    -0.304 N 
ATOM      2  C   UNL     1       3.789  -4.744  -6.167  0.00  0.00    +0.112 C 
ATOM      3  C   UNL     1       5.307  -4.890  -6.072  0.00  0.00    +0.054 C 
ATOM      4  C   UNL     1       5.719  -6.329  -6.243  0.00  0.00    -0.037 A 
ATOM      5  C   UNL     1       7.037  -6.580  -6.607  0.00  0.00    +0.053 A 
ATOM      6  C   UNL     1       7.487  -7.877  -6.772  0.00  0.00    +0.162 A 
ATOM      7  C   UNL     1       6.612  -8.940  -6.570  0.00  0.00    +0.162 A 
ATOM      8  C   UNL     1       5.301  -8.686  -6.211  0.00  0.00    +0.055 A 
ATOM      9  C   UNL     1       4.853  -7.381  -6.052  0.00  0.00    -0.019 A 
ATOM     10  C   UNL     1       3.408  -7.177  -5.683  0.00  0.00    +0.121 C 
ENDROOT
BRANCH  10  11
ATOM     11  C   UNL     1       2.526  -7.537  -6.880  0.00  0.00    +0.123 C 
ATOM     12  C   UNL     1       1.079  -7.422  -6.442  0.00  0.00    -0.003 C 
ATOM     13  C   UNL     1       0.282  -6.563  -7.138  0.00  0.00    -0.007 A 
ATOM     14  C   UNL     1      -1.127  -6.391  -6.783  0.00  0.00    +0.012 A 
ATOM     15  C   UNL     1      -1.884  -5.524  -7.505  0.00  0.00    -0.050 A 
ATOM     16  C   UNL     1      -1.344  -4.803  -8.571  0.00  0.00    +0.005 A 
ATOM     17  C   UNL     1      -0.045  -4.918  -8.951  0.00  0.00    +0.024 A 
ATOM     18  C   UNL     1       0.825  -5.788  -8.268  0.00  0.00    +0.040 A 
ATOM     19  N   UNL     1       2.098  -5.892  -8.648  0.00  0.00    -0.284 N 
ATOM     20  C   UNL     1       2.966  -6.690  -8.052  0.00  0.00    +0.226 C 
ATOM     21  O   UNL     1       4.116  -6.742  -8.445  0.00  0.00    -0.275 OA
ATOM     22  C   UNL     1      -3.336  -5.338  -7.149  0.00  0.00    +0.044 C 
ATOM     23  H   UNL     1       2.401  -5.357  -9.399  0.00  0.00    +0.155 HD
ENDBRANCH  10  11
BRANCH   1  24
ATOM     24  C   UNL     1       2.449  -5.448  -4.229  0.00  0.00    +0.133 C 
ATOM     25  S   UNL     1       2.098  -3.805  -3.900  0.00  0.00    -0.019 S 
BRANCH  24  26
ATOM     26  N   UNL     1       1.994  -6.413  -3.406  0.00  0.00    -0.326 N 
ATOM     27  H   UNL     1       2.129  -7.346  -3.631  0.00  0.00    +0.148 HD
BRANCH  26  28
ATOM     28  C   UNL     1       1.294  -6.051  -2.170  0.00  0.00    +0.105 C 
BRANCH  28  29
ATOM     29  C   UNL     1       0.885  -7.323  -1.425  0.00  0.00    +0.047 C 
BRANCH  29  30
ATOM     30  C   UNL     1       0.155  -6.946  -0.134  0.00  0.00    +0.161 C 
BRANCH  30  31
ATOM     31  O   UNL     1      -0.227  -8.134   0.562  0.00  0.00    -0.380 OA
BRANCH  31  33
ATOM     32  C   UNL     1      -1.277  -9.227   2.444  0.00  0.00    +0.034 C 
ATOM     33  C   UNL     1      -0.920  -7.892   1.788  0.00  0.00    +0.156 C 
ENDBRANCH  31  33
ENDBRANCH  30  31
ENDBRANCH  29  30
ENDBRANCH  28  29
ENDBRANCH  26  28
ENDBRANCH  24  26
ENDBRANCH   1  24
BRANCH   7  34
ATOM     34  O   UNL     1       7.043 -10.220  -6.725  0.00  0.00    -0.491 OA
ATOM     35  C   UNL     1       6.087 -11.259  -6.500  0.00  0.00    +0.277 C 
ENDBRANCH   7  34
BRANCH   6  36
ATOM     36  O   UNL     1       8.777  -8.112  -7.130  0.00  0.00    -0.491 OA
ATOM     37  C   UNL     1       9.616  -6.971  -7.321  0.00  0.00    +0.277 C 
ENDBRANCH   6  36
TORSDOF 10
