REMARK  Name = ZINC40036528
REMARK  12 active torsions:
REMARK  status: ('A' for Active; 'I' for Inactive)
REMARK    1  A    between atoms: C_1  and  C_2
REMARK    2  A    between atoms: C_2  and  C_3
REMARK    3  A    between atoms: C_3  and  C_4
REMARK    4  A    between atoms: C_4  and  C_39
REMARK    5  A    between atoms: N_16  and  C_31
REMARK    6  A    between atoms: N_19  and  N_20
REMARK    7  A    between atoms: C_21  and  C_22
REMARK    8  A    between atoms: C_26  and  O_28
REMARK    9  A    between atoms: O_28  and  C_29
REMARK   10  A    between atoms: C_29  and  C_30
REMARK   11  A    between atoms: C_34  and  O_37
REMARK   12  A    between atoms: O_37  and  C_38
REMARK                            x       y       z     vdW  Elec       q    Type
REMARK                         _______ _______ _______ _____ _____    ______ ____
ROOT
ATOM      1  C   UNL     1       0.082  -1.271   1.287  0.00  0.00    +0.004 C 
ATOM      2  C   UNL     1       1.257  -1.352   2.258  0.00  0.00    +0.047 C 
ATOM      3  C   UNL     1       0.769  -1.595   3.660  0.00  0.00    -0.037 A 
ATOM      4  C   UNL     1       1.418  -1.024   4.735  0.00  0.00    +0.004 A 
ATOM      5  C   UNL     1       0.966  -1.256   6.022  0.00  0.00    +0.000 A 
ATOM      6  C   UNL     1      -0.138  -2.061   6.242  0.00  0.00    +0.001 A 
ATOM      7  C   UNL     1      -0.797  -2.638   5.174  0.00  0.00    +0.010 A 
ATOM      8  C   UNL     1      -0.346  -2.405   3.878  0.00  0.00    +0.004 A 
ATOM      9  C   UNL     1      -1.038  -3.002   2.713  0.00  0.00    +0.084 A 
ATOM     10  C   UNL     1      -0.828  -2.455   1.456  0.00  0.00    +0.050 A 
ATOM     11  C   UNL     1      -1.476  -3.026   0.354  0.00  0.00    +0.264 A 
ATOM     12  O   UNL     1      -1.314  -2.574  -0.768  0.00  0.00    -0.267 OA
ATOM     13  N   UNL     1      -2.285  -4.088   0.559  0.00  0.00    -0.248 N 
ATOM     14  C   UNL     1      -2.463  -4.583   1.817  0.00  0.00    +0.223 A 
ATOM     15  N   UNL     1      -1.855  -4.051   2.857  0.00  0.00    -0.214 NA
ATOM     16  N   UNL     1      -3.293  -5.658   2.003  0.00  0.00    -0.206 N 
ATOM     17  C   UNL     1       0.614  -1.244  -0.147  0.00  0.00    +0.017 C 
ATOM     18  H   UNL     1      -3.688  -6.105   1.237  0.00  0.00    +0.177 HD
ENDROOT
BRANCH  13  19
ATOM     19  C   UNL     1      -2.945  -4.682  -0.525  0.00  0.00    +0.053 A 
ATOM     20  C   UNL     1      -4.205  -4.235  -0.902  0.00  0.00    +0.030 A 
ATOM     21  C   UNL     1      -4.854  -4.821  -1.971  0.00  0.00    +0.047 A 
ATOM     22  C   UNL     1      -4.248  -5.856  -2.668  0.00  0.00    +0.120 A 
ATOM     23  C   UNL     1      -2.990  -6.304  -2.291  0.00  0.00    +0.047 A 
ATOM     24  C   UNL     1      -2.338  -5.715  -1.227  0.00  0.00    +0.030 A 
BRANCH  22  25
ATOM     25  O   UNL     1      -4.888  -6.433  -3.720  0.00  0.00    -0.495 OA
ATOM     26  C   UNL     1      -4.206  -7.494  -4.392  0.00  0.00    +0.277 C 
ENDBRANCH  22  25
ENDBRANCH  13  19
BRANCH  16  27
ATOM     27  N   UNL     1      -3.572  -6.112   3.299  0.00  0.00    -0.188 NA
ATOM     28  C   UNL     1      -4.358  -7.130   3.475  0.00  0.00    +0.138 C 
BRANCH  28  29
ATOM     29  C   UNL     1      -4.651  -7.607   4.839  0.00  0.00    -0.002 A 
ATOM     30  C   UNL     1      -4.089  -6.963   5.944  0.00  0.00    +0.010 A 
ATOM     31  C   UNL     1      -4.366  -7.413   7.218  0.00  0.00    +0.004 A 
ATOM     32  C   UNL     1      -5.198  -8.501   7.407  0.00  0.00    +0.045 A 
ATOM     33  C   UNL     1      -5.762  -9.148   6.315  0.00  0.00    +0.121 A 
ATOM     34  C   UNL     1      -5.496  -8.702   5.032  0.00  0.00    +0.055 A 
BRANCH  33  35
ATOM     35  O   UNL     1      -6.579 -10.217   6.507  0.00  0.00    -0.492 OA
BRANCH  35  36
ATOM     36  C   UNL     1      -6.814 -10.620   7.858  0.00  0.00    +0.225 C 
ATOM     37  C   UNL     1      -7.750 -11.830   7.874  0.00  0.00    +0.048 C 
ENDBRANCH  35  36
ENDBRANCH  33  35
ENDBRANCH  28  29
ENDBRANCH  16  27
BRANCH   1  38
ATOM     38  C   UNL     1      -0.707   0.013   1.557  0.00  0.00    +0.011 C 
BRANCH  38  40
ATOM     39  C   UNL     1      -2.658   1.397   0.838  0.00  0.00    +0.004 C 
ATOM     40  C   UNL     1      -1.870   0.114   0.568  0.00  0.00    -0.003 C 
ENDBRANCH  38  40
ENDBRANCH   1  38
TORSDOF 8
