REMARK  Name = ZINC32102574
REMARK  6 active torsions:
REMARK  status: ('A' for Active; 'I' for Inactive)
REMARK    1  A    between atoms: C_1  and  C_2
REMARK    2  A    between atoms: C_3  and  C_19
REMARK    3  A    between atoms: N_6  and  C_7
REMARK    4  A    between atoms: C_7  and  C_9
REMARK    5  A    between atoms: C_10  and  C_11
REMARK    6  A    between atoms: C_21  and  C_24
REMARK                            x       y       z     vdW  Elec       q    Type
REMARK                         _______ _______ _______ _____ _____    ______ ____
ROOT
ATOM      1  C   UNL     1      -0.018   1.503   0.010  0.00  0.00    +0.064 C 
ATOM      2  C   UNL     1       0.002  -0.004   0.002  0.00  0.00    +0.034 A 
ATOM      3  C   UNL     1      -1.146  -0.729   0.004  0.00  0.00    +0.099 A 
ATOM      4  S   UNL     1      -0.522  -2.400  -0.008  0.00  0.00    -0.047 S 
ATOM      5  C   UNL     1       1.123  -2.057  -0.015  0.00  0.00    +0.164 A 
ATOM      6  N   UNL     1       2.143  -2.910  -0.025  0.00  0.00    -0.153 NA
ATOM      7  N   UNL     1       1.162  -0.693  -0.013  0.00  0.00    -0.339 N 
ATOM      8  H   UNL     1       2.011  -0.226  -0.020  0.00  0.00    +0.167 HD
ENDROOT
BRANCH   3   9
ATOM      9  C   UNL     1      -2.538  -0.260   0.014  0.00  0.00    +0.267 A 
ATOM     10  N   UNL     1      -3.611  -1.023   0.021  0.00  0.00    -0.187 NA
ATOM     11  C   UNL     1      -4.714  -0.261   0.029  0.00  0.00    +0.202 A 
ATOM     12  N   UNL     1      -4.358   1.001   0.028  0.00  0.00    -0.056 NA
ATOM     13  O   UNL     1      -2.938   1.025   0.024  0.00  0.00    -0.332 OA
BRANCH  11  14
ATOM     14  C   UNL     1      -6.111  -0.763   0.038  0.00  0.00    +0.022 A 
ATOM     15  C   UNL     1      -6.360  -2.134   0.043  0.00  0.00    +0.012 A 
ATOM     16  C   UNL     1      -7.661  -2.596   0.051  0.00  0.00    +0.001 A 
ATOM     17  C   UNL     1      -8.715  -1.701   0.053  0.00  0.00    +0.000 A 
ATOM     18  C   UNL     1      -8.473  -0.339   0.048  0.00  0.00    +0.001 A 
ATOM     19  C   UNL     1      -7.176   0.134   0.046  0.00  0.00    +0.012 A 
ENDBRANCH  11  14
ENDBRANCH   3   9
BRANCH   6  20
ATOM     20  C   UNL     1       3.401  -2.450  -0.029  0.00  0.00    +0.262 C 
ATOM     21  O   UNL     1       3.611  -1.248  -0.024  0.00  0.00    -0.269 OA
BRANCH  20  22
ATOM     22  C   UNL     1       4.527  -3.392  -0.040  0.00  0.00    +0.070 C 
ATOM     23  C   UNL     1       5.791  -2.930  -0.045  0.00  0.00    +0.013 C 
BRANCH  23  24
ATOM     24  C   UNL     1       6.921  -3.875  -0.056  0.00  0.00    -0.025 A 
ATOM     25  C   UNL     1       6.684  -5.253  -0.068  0.00  0.00    +0.008 A 
ATOM     26  C   UNL     1       7.747  -6.131  -0.079  0.00  0.00    +0.001 A 
ATOM     27  C   UNL     1       9.045  -5.652  -0.077  0.00  0.00    +0.000 A 
ATOM     28  C   UNL     1       9.288  -4.290  -0.065  0.00  0.00    +0.001 A 
ATOM     29  C   UNL     1       8.235  -3.399  -0.060  0.00  0.00    +0.008 A 
ENDBRANCH  23  24
ENDBRANCH  20  22
ENDBRANCH   6  20
TORSDOF 5
