REMARK  Name = ZINC59135219
REMARK  7 active torsions:
REMARK  status: ('A' for Active; 'I' for Inactive)
REMARK    1  A    between atoms: C_1  and  O_2
REMARK    2  A    between atoms: O_2  and  C_3
REMARK    3  A    between atoms: C_5  and  C_19
REMARK    4  A    between atoms: C_8  and  O_9
REMARK    5  A    between atoms: O_9  and  C_10
REMARK    6  A    between atoms: C_10  and  C_11
REMARK    7  A    between atoms: N_26  and  C_29
REMARK                            x       y       z     vdW  Elec       q    Type
REMARK                         _______ _______ _______ _____ _____    ______ ____
ROOT
ATOM      1  C   UNL     1       1.519  -0.625   0.521  0.00  0.00    +0.164 A 
ATOM      2  C   UNL     1       2.259   0.110   1.423  0.00  0.00    +0.057 A 
ATOM      3  C   UNL     1       2.253  -0.242   2.782  0.00  0.00    -0.019 A 
ATOM      4  C   UNL     1       1.493  -1.341   3.214  0.00  0.00    +0.032 A 
ATOM      5  C   UNL     1       0.758  -2.067   2.304  0.00  0.00    +0.087 A 
ATOM      6  C   UNL     1       0.761  -1.712   0.959  0.00  0.00    +0.181 A 
ATOM      7 CL   UNL     1      -0.182  -3.426   2.839  0.00  0.00    -0.080 Cl
ENDROOT
BRANCH   3   8
ATOM      8  C   UNL     1       3.035   0.531   3.743  0.00  0.00    +0.026 C 
ATOM      9  C   UNL     1       3.780  -0.119   4.715  0.00  0.00    +0.102 C 
ATOM     10  C   UNL     1       4.033  -1.567   4.648  0.00  0.00    +0.276 C 
ATOM     11  O   UNL     1       3.545  -2.307   3.630  0.00  0.00    -0.268 OA
ATOM     12  N   UNL     1       4.751  -2.126   5.607  0.00  0.00    -0.123 NA
ATOM     13  C   UNL     1       5.245  -1.422   6.622  0.00  0.00    +0.340 C 
ATOM     14  O   UNL     1       5.897  -2.009   7.466  0.00  0.00    -0.250 OA
ATOM     15  N   UNL     1       5.066  -0.101   6.765  0.00  0.00    -0.188 N 
ATOM     16  C   UNL     1       4.359   0.610   5.860  0.00  0.00    +0.264 C 
ATOM     17  O   UNL     1       4.200   1.809   5.987  0.00  0.00    -0.269 OA
BRANCH  15  18
ATOM     18  C   UNL     1       5.627   0.555   7.870  0.00  0.00    +0.046 A 
ATOM     19  C   UNL     1       4.864   0.774   9.009  0.00  0.00    +0.027 A 
ATOM     20  C   UNL     1       5.419   1.420  10.097  0.00  0.00    +0.040 A 
ATOM     21  C   UNL     1       6.735   1.850  10.052  0.00  0.00    +0.124 A 
ATOM     22  C   UNL     1       7.497   1.632   8.916  0.00  0.00    +0.040 A 
ATOM     23  C   UNL     1       6.947   0.981   7.829  0.00  0.00    +0.027 A 
ATOM     24  F   UNL     1       7.275   2.482  11.116  0.00  0.00    -0.205 F 
ENDBRANCH  15  18
ENDBRANCH   3   8
BRANCH   1  26
ATOM     25  C   UNL     1       2.320   0.837  -1.175  0.00  0.00    +0.277 C 
ATOM     26  O   UNL     1       1.523  -0.287  -0.797  0.00  0.00    -0.491 OA
ENDBRANCH   1  26
BRANCH   6  27
ATOM     27  O   UNL     1       0.030  -2.430   0.069  0.00  0.00    -0.482 OA
BRANCH  27  28
ATOM     28  C   UNL     1       0.674  -3.544  -0.552  0.00  0.00    +0.267 C 
BRANCH  28  29
ATOM     29  C   UNL     1      -0.285  -4.214  -1.502  0.00  0.00    +0.025 A 
ATOM     30  C   UNL     1      -1.565  -3.716  -1.657  0.00  0.00    +0.010 A 
ATOM     31  C   UNL     1      -2.445  -4.330  -2.528  0.00  0.00    +0.001 A 
ATOM     32  C   UNL     1      -2.046  -5.443  -3.245  0.00  0.00    +0.003 A 
ATOM     33  C   UNL     1      -0.767  -5.942  -3.092  0.00  0.00    +0.039 A 
ATOM     34  C   UNL     1       0.117  -5.324  -2.224  0.00  0.00    +0.130 A 
ATOM     35  F   UNL     1       1.370  -5.809  -2.077  0.00  0.00    -0.205 F 
ENDBRANCH  28  29
ENDBRANCH  27  28
ENDBRANCH   6  27
TORSDOF 6
