REMARK  Name = ZINC15066029
REMARK  5 active torsions:
REMARK  status: ('A' for Active; 'I' for Inactive)
REMARK    1  A    between atoms: C_4  and  C_7
REMARK    2  A    between atoms: C_13  and  C_15
REMARK    3  A    between atoms: C_15  and  C_16
REMARK    4  A    between atoms: C_23  and  C_24
REMARK    5  A    between atoms: C_23  and  N_62
REMARK                            x       y       z     vdW  Elec       q    Type
REMARK                         _______ _______ _______ _____ _____    ______ ____
ROOT
ATOM      1  C   UNL     1       4.359   4.758   1.532  0.00  0.00    +0.028 C 
ATOM      2  C   UNL     1       5.070   5.032   2.827  0.00  0.00    +0.200 C 
ATOM      3  O   UNL     1       6.152   5.580   2.791  0.00  0.00    -0.278 OA
ATOM      4  N   UNL     1       4.561   4.697   4.017  0.00  0.00    -0.318 N 
ATOM      5  C   UNL     1       3.253   4.067   4.171  0.00  0.00    +0.085 C 
ATOM      6  C   UNL     1       2.801   3.464   2.841  0.00  0.00    -0.058 C 
ATOM      7  H   UNL     1       5.084   4.880   4.813  0.00  0.00    +0.149 HD
ATOM      8  N   UNL     1       2.931   4.503   1.799  0.00  0.00    +0.391 N 
ATOM      9  H   UNL     1       2.492   5.369   2.133  0.00  0.00    -0.080 HD
ENDROOT
BRANCH   1  10
ATOM     10  C   UNL     1       4.483   5.978   0.616  0.00  0.00    +0.090 C 
BRANCH  10  17
ATOM     11  C   UNL     1       5.061  10.735   0.261  0.00  0.00    -0.041 C 
ATOM     12  C   UNL     1       5.181   9.831  -0.681  0.00  0.00    -0.004 C 
ATOM     13  C   UNL     1       4.424   8.532  -0.682  0.00  0.00    +0.135 C 
ATOM     14  N   UNL     1       3.778   8.348   0.625  0.00  0.00    -0.297 N 
ATOM     15  C   UNL     1       3.107   9.518   1.218  0.00  0.00    +0.113 C 
ATOM     16  C   UNL     1       4.177  10.593   1.464  0.00  0.00    +0.054 C 
ATOM     17  C   UNL     1       3.793   7.156   1.253  0.00  0.00    +0.215 C 
ATOM     18  O   UNL     1       3.252   7.032   2.332  0.00  0.00    -0.276 OA
BRANCH  11  22
ATOM     19  C   UNL     1       7.332  14.305  -0.119  0.00  0.00    +0.000 A 
ATOM     20  C   UNL     1       6.340  14.018  -1.040  0.00  0.00    +0.001 A 
ATOM     21  C   UNL     1       5.599  12.860  -0.922  0.00  0.00    +0.008 A 
ATOM     22  C   UNL     1       5.851  11.978   0.129  0.00  0.00    -0.022 A 
ATOM     23  C   UNL     1       6.848  12.276   1.058  0.00  0.00    +0.008 A 
ATOM     24  C   UNL     1       7.587  13.434   0.926  0.00  0.00    +0.001 A 
ENDBRANCH  11  22
ENDBRANCH  10  17
ENDBRANCH   1  10
BRANCH   8  25
ATOM     25  C   UNL     1       2.253   4.066   0.558  0.00  0.00    -0.041 C 
BRANCH  25  26
ATOM     26  C   UNL     1       0.828   3.694   0.878  0.00  0.00    -0.056 A 
ATOM     27  C   UNL     1       0.476   2.386   1.016  0.00  0.00    +0.002 A 
ATOM     28  C   UNL     1      -0.836   2.024   1.312  0.00  0.00    +0.001 A 
ATOM     29  C   UNL     1      -1.806   2.967   1.467  0.00  0.00    +0.008 A 
ATOM     30  C   UNL     1      -1.479   4.327   1.338  0.00  0.00    -0.018 A 
ATOM     31  C   UNL     1      -0.144   4.696   1.036  0.00  0.00    -0.017 A 
ATOM     32  C   UNL     1       0.181   6.057   0.901  0.00  0.00    +0.009 A 
ATOM     33  C   UNL     1      -0.787   7.000   1.062  0.00  0.00    +0.001 A 
ATOM     34  C   UNL     1      -2.100   6.637   1.358  0.00  0.00    +0.001 A 
ATOM     35  C   UNL     1      -2.452   5.330   1.496  0.00  0.00    +0.008 A 
ENDBRANCH  25  26
ENDBRANCH   8  25
TORSDOF 5
