REMARK  Name = ZINC56735070
REMARK  7 active torsions:
REMARK  status: ('A' for Active; 'I' for Inactive)
REMARK    1  A    between atoms: C_4  and  N_13
REMARK    2  A    between atoms: C_5  and  C_7
REMARK    3  A    between atoms: C_7  and  N_8
REMARK    4  A    between atoms: N_16  and  C_17
REMARK    5  A    between atoms: C_17  and  C_18
REMARK    6  A    between atoms: C_18  and  C_20
REMARK    7  A    between atoms: C_18  and  N_25
REMARK                            x       y       z     vdW  Elec       q    Type
REMARK                         _______ _______ _______ _____ _____    ______ ____
ROOT
ATOM      1  N   UNL     1       3.667  -0.661   0.254  0.00  0.00    -0.269 N 
ATOM      2  C   UNL     1       4.804   0.030   0.039  0.00  0.00    +0.304 C 
ATOM      3  O   UNL     1       4.777   1.245  -0.010  0.00  0.00    -0.253 OA
ATOM      4  N   UNL     1       5.970  -0.625  -0.122  0.00  0.00    -0.300 N 
ATOM      5  H   UNL     1       3.698  -1.624   0.364  0.00  0.00    +0.156 HD
ATOM      6  H   UNL     1       5.992  -1.594  -0.083  0.00  0.00    +0.150 HD
ENDROOT
BRANCH   1  10
ATOM      7  C   UNL     1       0.018   1.341   0.446  0.00  0.00    +0.000 A 
ATOM      8  C   UNL     1       1.165   1.951   0.920  0.00  0.00    +0.002 A 
ATOM      9  C   UNL     1       2.376   1.290   0.858  0.00  0.00    +0.024 A 
ATOM     10  C   UNL     1       2.441   0.012   0.319  0.00  0.00    +0.040 A 
ATOM     11  C   UNL     1       1.287  -0.598  -0.157  0.00  0.00    -0.005 A 
ATOM     12  C   UNL     1       0.079   0.069  -0.092  0.00  0.00    +0.007 A 
BRANCH  11  13
ATOM     13  C   UNL     1       1.353  -1.984  -0.743  0.00  0.00    +0.182 C 
BRANCH  13  14
ATOM     14  N   UNL     1       1.264  -2.974   0.333  0.00  0.00    -0.248 N 
ATOM     15  C   UNL     1       0.383  -3.985   0.427  0.00  0.00    +0.219 A 
ATOM     16  N   UNL     1       0.633  -4.641   1.531  0.00  0.00    -0.223 NA
ATOM     17  C   UNL     1       1.662  -4.081   2.166  0.00  0.00    +0.245 A 
ATOM     18  N   UNL     1       2.086  -3.060   1.468  0.00  0.00    -0.158 NA
ENDBRANCH  13  14
ENDBRANCH  11  13
ENDBRANCH   1  10
BRANCH   4  19
ATOM     19  C   UNL     1       7.206   0.126  -0.355  0.00  0.00    +0.095 C 
BRANCH  19  20
ATOM     20  C   UNL     1       8.353  -0.850  -0.624  0.00  0.00    -0.013 C 
BRANCH  20  21
ATOM     21  N   UNL     1       9.563  -0.098  -0.980  0.00  0.00    +0.386 N 
ATOM     22  C   UNL     1      10.634  -1.028  -1.420  0.00  0.00    -0.078 C 
ATOM     23  C   UNL     1      11.568  -0.122  -2.261  0.00  0.00    -0.020 C 
ATOM     24  C   UNL     1      10.577   0.815  -2.989  0.00  0.00    -0.020 C 
ATOM     25  C   UNL     1       9.294   0.783  -2.138  0.00  0.00    -0.078 C 
ATOM     26  H   UNL     1       9.878   0.449  -0.193  0.00  0.00    -0.081 HD
ENDBRANCH  20  21
BRANCH  20  27
ATOM     27  C   UNL     1       8.617  -1.669   0.613  0.00  0.00    -0.022 A 
ATOM     28  C   UNL     1       8.223  -2.934   0.899  0.00  0.00    +0.009 A 
ATOM     29  C   UNL     1       8.586  -3.491   2.111  0.00  0.00    +0.008 A 
ATOM     30  C   UNL     1       9.324  -2.756   2.978  0.00  0.00    +0.045 A 
ATOM     31  S   UNL     1       9.534  -1.228   2.079  0.00  0.00    -0.103 S 
ENDBRANCH  20  27
ENDBRANCH  19  20
ENDBRANCH   4  19
TORSDOF 7
