REMARK  Name = ZINC11847315
REMARK  12 active torsions:
REMARK  status: ('A' for Active; 'I' for Inactive)
REMARK    1  A    between atoms: C_1  and  C_2
REMARK    2  A    between atoms: C_6  and  C_38
REMARK    3  A    between atoms: C_8  and  O_11
REMARK    4  A    between atoms: O_11  and  C_12
REMARK    5  A    between atoms: C_12  and  C_13
REMARK    6  A    between atoms: C_13  and  C_15
REMARK    7  A    between atoms: C_13  and  O_37
REMARK    8  A    between atoms: C_15  and  N_79
REMARK    9  A    between atoms: C_18  and  C_21
REMARK   10  A    between atoms: C_21  and  N_22
REMARK   11  A    between atoms: C_38  and  C_39
REMARK   12  A    between atoms: C_38  and  C_40
REMARK                            x       y       z     vdW  Elec       q    Type
REMARK                         _______ _______ _______ _____ _____    ______ ____
ROOT
ATOM      1  C   UNL     1      -2.507   0.610   8.693  0.00  0.00    -0.078 C 
ATOM      2  C   UNL     1      -2.998   1.196  10.019  0.00  0.00    -0.014 C 
ATOM      3  C   UNL     1      -4.183   0.369  10.529  0.00  0.00    +0.003 C 
ATOM      4  C   UNL     1      -5.287   0.368   9.469  0.00  0.00    -0.014 C 
ATOM      5  C   UNL     1      -4.730  -0.194   8.159  0.00  0.00    -0.078 C 
ATOM      6  N   UNL     1      -3.610   0.659   7.709  0.00  0.00    +0.381 N 
ATOM      7  H   UNL     1      -3.941   1.628   7.628  0.00  0.00    -0.082 HD
ENDROOT
BRANCH   6   8
ATOM      8  C   UNL     1      -3.128   0.205   6.388  0.00  0.00    -0.045 C 
BRANCH   8   9
ATOM      9  C   UNL     1      -2.128   1.230   5.849  0.00  0.00    +0.124 C 
BRANCH   9  10
ATOM     10  O   UNL     1      -2.765   2.505   5.740  0.00  0.00    -0.391 OA
ATOM     11  H   UNL     1      -3.529   2.513   5.148  0.00  0.00    +0.210 HD
ENDBRANCH   9  10
BRANCH   9  12
ATOM     12  C   UNL     1      -1.636   0.786   4.470  0.00  0.00    +0.189 C 
BRANCH  12  13
ATOM     13  O   UNL     1      -0.618   1.680   4.017  0.00  0.00    -0.374 OA
BRANCH  13  19
ATOM     14  C   UNL     1      -1.147   2.425  -0.812  0.00  0.00    +0.007 C 
ATOM     15  C   UNL     1      -0.333   1.714   0.271  0.00  0.00    -0.012 C 
ATOM     16  C   UNL     1       1.127   2.167   0.192  0.00  0.00    +0.004 C 
ATOM     17  C   UNL     1       1.941   1.456   1.275  0.00  0.00    +0.006 C 
ATOM     18  C   UNL     1       1.373   1.806   2.652  0.00  0.00    +0.020 C 
ATOM     19  C   UNL     1      -0.087   1.353   2.731  0.00  0.00    +0.122 C 
ATOM     20  C   UNL     1      -0.901   2.064   1.648  0.00  0.00    +0.035 C 
BRANCH  18  21
ATOM     21  C   UNL     1       2.187   1.095   3.735  0.00  0.00    -0.012 C 
ATOM     22  C   UNL     1       2.196  -0.410   3.461  0.00  0.00    +0.007 C 
ATOM     23  C   UNL     1       3.622   1.625   3.724  0.00  0.00    +0.007 C 
ENDBRANCH  18  21
ENDBRANCH  13  19
ENDBRANCH  12  13
ENDBRANCH   9  12
ENDBRANCH   8   9
ENDBRANCH   6   8
BRANCH   3  24
ATOM     24  C   UNL     1      -4.717   0.986  11.823  0.00  0.00    +0.120 C 
BRANCH  24  25
ATOM     25  N   UNL     1      -3.699   0.879  12.871  0.00  0.00    -0.234 N 
ATOM     26  C   UNL     1      -3.690  -0.214  13.657  0.00  0.00    +0.254 C 
ATOM     27  O   UNL     1      -4.518  -1.088  13.487  0.00  0.00    -0.270 OA
ATOM     28  C   UNL     1      -2.681  -0.359  14.717  0.00  0.00    +0.046 A 
ATOM     29  C   UNL     1      -2.632  -1.470  15.546  0.00  0.00    +0.014 A 
ATOM     30  C   UNL     1      -1.661  -1.560  16.536  0.00  0.00    +0.001 A 
ATOM     31  C   UNL     1      -0.738  -0.572  16.725  0.00  0.00    +0.008 A 
ATOM     32  C   UNL     1      -0.753   0.571  15.906  0.00  0.00    -0.016 A 
ATOM     33  C   UNL     1      -1.733   0.673  14.897  0.00  0.00    +0.006 A 
ATOM     34  C   UNL     1      -1.774   1.810  14.057  0.00  0.00    +0.046 A 
ATOM     35  C   UNL     1      -0.839   2.817  14.242  0.00  0.00    +0.014 A 
ATOM     36  C   UNL     1       0.122   2.704  15.240  0.00  0.00    +0.001 A 
ATOM     37  C   UNL     1       0.177   1.614  16.060  0.00  0.00    +0.008 A 
ATOM     38  C   UNL     1      -2.810   1.881  13.016  0.00  0.00    +0.254 C 
ATOM     39  O   UNL     1      -2.865   2.849  12.283  0.00  0.00    -0.270 OA
ENDBRANCH  24  25
ENDBRANCH   3  24
TORSDOF 9
