REMARK  Name = ZINC09265135
REMARK  13 active torsions:
REMARK  status: ('A' for Active; 'I' for Inactive)
REMARK    1  A    between atoms: C_1  and  C_2
REMARK    2  A    between atoms: C_2  and  C_4
REMARK    3  A    between atoms: C_2  and  O_29
REMARK    4  A    between atoms: N_6  and  C_7
REMARK    5  A    between atoms: C_15  and  C_16
REMARK    6  A    between atoms: N_18  and  C_19
REMARK    7  A    between atoms: N_18  and  C_23
REMARK    8  A    between atoms: C_19  and  C_20
REMARK    9  A    between atoms: C_20  and  N_64
REMARK   10  A    between atoms: C_21  and  N_64
REMARK   11  A    between atoms: C_22  and  N_64
REMARK   12  A    between atoms: C_23  and  C_24
REMARK   13  A    between atoms: O_29  and  C_30
REMARK                            x       y       z     vdW  Elec       q    Type
REMARK                         _______ _______ _______ _____ _____    ______ ____
ROOT
ATOM      1  C   UNL     1       2.012   1.088  -0.424  0.00  0.00    +0.092 A 
ATOM      2  C   UNL     1       2.862   2.110  -1.045  0.00  0.00    +0.042 A 
ATOM      3  C   UNL     1       4.089   2.080  -1.711  0.00  0.00    +0.013 A 
ATOM      4  C   UNL     1       4.631   3.241  -2.185  0.00  0.00    +0.001 A 
ATOM      5  C   UNL     1       3.970   4.449  -2.010  0.00  0.00    +0.004 A 
ATOM      6  C   UNL     1       2.759   4.499  -1.355  0.00  0.00    +0.047 A 
ATOM      7  C   UNL     1       2.188   3.330  -0.864  0.00  0.00    +0.138 A 
ATOM      8  O   UNL     1       1.041   3.073  -0.204  0.00  0.00    -0.448 OA
ATOM      9  C   UNL     1       0.924   1.754   0.068  0.00  0.00    +0.212 A 
ENDROOT
BRANCH   1  12
ATOM     10  C   UNL     1       3.515  -0.723  -0.136  0.00  0.00    +0.258 C 
ATOM     11  O   UNL     1       4.441   0.060  -0.112  0.00  0.00    -0.271 OA
ATOM     12  N   UNL     1       2.261  -0.278  -0.352  0.00  0.00    -0.279 N 
ATOM     13  H   UNL     1       1.533  -0.910  -0.456  0.00  0.00    +0.155 HD
BRANCH  10  15
ATOM     14  C   UNL     1       3.421  -2.958  -1.206  0.00  0.00    +0.062 C 
ATOM     15  C   UNL     1       3.767  -2.194   0.074  0.00  0.00    +0.256 C 
BRANCH  15  16
ATOM     16  O   UNL     1       5.143  -2.401   0.395  0.00  0.00    -0.480 OA
BRANCH  16  17
ATOM     17  C   UNL     1       5.450  -3.519   1.104  0.00  0.00    +0.122 A 
ATOM     18  C   UNL     1       4.465  -4.452   1.391  0.00  0.00    +0.045 A 
ATOM     19  C   UNL     1       4.780  -5.591   2.107  0.00  0.00    +0.004 A 
ATOM     20  C   UNL     1       6.075  -5.795   2.547  0.00  0.00    +0.000 A 
ATOM     21  C   UNL     1       7.058  -4.864   2.268  0.00  0.00    +0.004 A 
ATOM     22  C   UNL     1       6.748  -3.726   1.548  0.00  0.00    +0.045 A 
ENDBRANCH  16  17
ENDBRANCH  15  16
ENDBRANCH  10  15
ENDBRANCH   1  12
BRANCH   9  23
ATOM     23  C   UNL     1      -0.196   1.135   0.774  0.00  0.00    +0.284 C 
ATOM     24  O   UNL     1      -0.260  -0.077   0.870  0.00  0.00    -0.267 OA
ATOM     25  N   UNL     1      -1.162   1.905   1.313  0.00  0.00    -0.289 N 
BRANCH  25  26
ATOM     26  C   UNL     1      -1.147   3.354   1.100  0.00  0.00    +0.090 C 
BRANCH  26  27
ATOM     27  C   UNL     1      -1.801   3.679  -0.245  0.00  0.00    -0.060 C 
BRANCH  27  30
ATOM     28  C   UNL     1      -0.411   5.628  -0.609  0.00  0.00    -0.097 C 
ATOM     29  C   UNL     1      -2.610   5.503  -1.617  0.00  0.00    -0.097 C 
ATOM     30  N   UNL     1      -1.797   5.145  -0.435  0.00  0.00    +0.377 N 
ATOM     31  H   UNL     1      -2.204   5.590   0.396  0.00  0.00    -0.083 HD
ENDBRANCH  27  30
ENDBRANCH  26  27
ENDBRANCH  25  26
BRANCH  25  32
ATOM     32  C   UNL     1      -2.227   1.293   2.112  0.00  0.00    +0.182 C 
BRANCH  32  33
ATOM     33  C   UNL     1      -1.806   1.247   3.558  0.00  0.00    +0.122 A 
ATOM     34  C   UNL     1      -2.032   2.207   4.473  0.00  0.00    +0.046 A 
ATOM     35  C   UNL     1      -1.471   1.752   5.689  0.00  0.00    +0.041 A 
ATOM     36  C   UNL     1      -0.937   0.542   5.444  0.00  0.00    +0.195 A 
ATOM     37  O   UNL     1      -1.148   0.239   4.153  0.00  0.00    -0.466 OA
ENDBRANCH  32  33
ENDBRANCH  25  32
ENDBRANCH   9  23
TORSDOF 10
