REMARK  Name = ZINC33813531
REMARK  7 active torsions:
REMARK  status: ('A' for Active; 'I' for Inactive)
REMARK    1  A    between atoms: C_1  and  C_2
REMARK    2  A    between atoms: C_3  and  C_13
REMARK    3  A    between atoms: N_6  and  C_7
REMARK    4  A    between atoms: C_13  and  C_15
REMARK    5  A    between atoms: N_19  and  C_29
REMARK    6  A    between atoms: C_20  and  C_22
REMARK    7  A    between atoms: C_29  and  C_30
REMARK                            x       y       z     vdW  Elec       q    Type
REMARK                         _______ _______ _______ _____ _____    ______ ____
ROOT
ATOM      1  C   UNL     1       0.119  -1.447  -3.628  0.00  0.00    +0.076 C 
ATOM      2  C   UNL     1       0.176  -1.359  -4.977  0.00  0.00    +0.249 C 
ATOM      3  C   UNL     1       0.154  -2.720  -5.554  0.00  0.00    +0.288 C 
ATOM      4  O   UNL     1       0.194  -2.974  -6.741  0.00  0.00    -0.266 OA
ATOM      5  N   UNL     1       0.086  -3.634  -4.570  0.00  0.00    -0.279 N 
ATOM      6  C   UNL     1       0.065  -2.918  -3.289  0.00  0.00    +0.145 C 
ATOM      7  O   UNL     1       0.240  -0.208  -5.686  0.00  0.00    -0.282 OA
ENDROOT
BRANCH   6   8
ATOM      8  C   UNL     1       1.261  -3.303  -2.457  0.00  0.00    -0.022 A 
ATOM      9  C   UNL     1       2.523  -3.308  -3.022  0.00  0.00    +0.007 A 
ATOM     10  C   UNL     1       3.620  -3.660  -2.259  0.00  0.00    +0.020 A 
ATOM     11  C   UNL     1       3.456  -4.008  -0.930  0.00  0.00    +0.041 A 
ATOM     12  C   UNL     1       2.192  -4.003  -0.365  0.00  0.00    +0.020 A 
ATOM     13  C   UNL     1       1.097  -3.645  -1.128  0.00  0.00    +0.007 A 
ATOM     14 CL   UNL     1       4.833  -4.452   0.028  0.00  0.00    -0.084 Cl
ENDBRANCH   6   8
BRANCH   1  15
ATOM     15  C   UNL     1       0.118  -0.329  -2.678  0.00  0.00    +0.198 C 
ATOM     16  O   UNL     1       1.095   0.391  -2.584  0.00  0.00    -0.287 OA
BRANCH  15  19
ATOM     17  C   UNL     1      -0.129   1.879  -0.445  0.00  0.00    +0.066 C 
ATOM     18  C   UNL     1      -1.187   0.887  -0.855  0.00  0.00    +0.053 A 
ATOM     19  C   UNL     1      -1.067  -0.078  -1.837  0.00  0.00    +0.063 A 
ATOM     20  C   UNL     1      -2.294  -0.779  -1.884  0.00  0.00    +0.146 A 
ATOM     21  N   UNL     1      -3.090  -0.263  -0.988  0.00  0.00    -0.174 NA
ATOM     22  N   UNL     1      -2.420   0.774  -0.330  0.00  0.00    -0.236 N 
BRANCH  22  23
ATOM     23  C   UNL     1      -2.947   1.564   0.701  0.00  0.00    +0.066 A 
ATOM     24  C   UNL     1      -2.122   2.015   1.723  0.00  0.00    +0.028 A 
ATOM     25  C   UNL     1      -2.644   2.794   2.737  0.00  0.00    +0.002 A 
ATOM     26  C   UNL     1      -3.987   3.124   2.736  0.00  0.00    +0.000 A 
ATOM     27  C   UNL     1      -4.811   2.677   1.720  0.00  0.00    +0.002 A 
ATOM     28  C   UNL     1      -4.294   1.903   0.699  0.00  0.00    +0.028 A 
ENDBRANCH  22  23
ENDBRANCH  15  19
ENDBRANCH   1  15
BRANCH   5  29
ATOM     29  C   UNL     1       0.045  -5.088  -4.746  0.00  0.00    +0.145 C 
BRANCH  29  30
ATOM     30  C   UNL     1       1.451  -5.633  -4.749  0.00  0.00    -0.012 A 
ATOM     31  C   UNL     1       2.160  -5.739  -5.936  0.00  0.00    +0.008 A 
ATOM     32  C   UNL     1       3.449  -6.246  -5.891  0.00  0.00    +0.020 A 
ATOM     33  C   UNL     1       3.982  -6.626  -4.673  0.00  0.00    +0.111 A 
ATOM     34  N   UNL     1       3.278  -6.511  -3.564  0.00  0.00    -0.263 NA
ATOM     35  C   UNL     1       2.051  -6.027  -3.568  0.00  0.00    +0.115 A 
ENDBRANCH  29  30
ENDBRANCH   5  29
TORSDOF 6
