REMARK  Name = ZINC35746552
REMARK  16 active torsions:
REMARK  status: ('A' for Active; 'I' for Inactive)
REMARK    1  A    between atoms: C_1  and  C_2
REMARK    2  A    between atoms: C_2  and  O_3
REMARK    3  A    between atoms: O_3  and  C_4
REMARK    4  A    between atoms: C_4  and  C_6
REMARK    5  A    between atoms: C_7  and  C_39
REMARK    6  A    between atoms: C_13  and  C_17
REMARK    7  A    between atoms: C_17  and  N_18
REMARK    8  A    between atoms: N_18  and  C_19
REMARK    9  A    between atoms: N_18  and  C_26
REMARK   10  A    between atoms: C_19  and  C_20
REMARK   11  A    between atoms: C_26  and  C_27
REMARK   12  A    between atoms: C_27  and  C_29
REMARK   13  A    between atoms: C_27  and  O_38
REMARK   14  A    between atoms: C_29  and  O_30
REMARK   15  A    between atoms: O_30  and  C_31
REMARK   16  A    between atoms: C_31  and  C_32
REMARK                            x       y       z     vdW  Elec       q    Type
REMARK                         _______ _______ _______ _____ _____    ______ ____
ROOT
ATOM      1  N   UNL     1       5.008  -3.006   8.215  0.00  0.00    +0.389 N 
ATOM      2  H   UNL     1       5.547  -2.376   7.639  0.00  0.00    -0.081 HD
ENDROOT
BRANCH   1   3
ATOM      3  C   UNL     1       4.863  -4.296   7.529  0.00  0.00    -0.003 C 
BRANCH   3  11
ATOM      4  C   UNL     1       2.377  -1.898   2.230  0.00  0.00    +0.102 A 
ATOM      5  C   UNL     1       2.618  -3.223   2.455  0.00  0.00    -0.015 A 
ATOM      6  C   UNL     1       3.172  -3.632   3.669  0.00  0.00    +0.076 A 
ATOM      7  C   UNL     1       3.516  -4.997   4.128  0.00  0.00    +0.260 A 
ATOM      8  O   UNL     1       3.323  -5.964   3.413  0.00  0.00    -0.267 OA
ATOM      9  N   UNL     1       4.047  -5.142   5.358  0.00  0.00    -0.312 N 
ATOM     10  H   UNL     1       4.277  -6.030   5.674  0.00  0.00    +0.170 HD
ATOM     11  C   UNL     1       4.266  -4.073   6.163  0.00  0.00    +0.094 A 
ATOM     12  N   UNL     1       3.975  -2.857   5.789  0.00  0.00    -0.229 NA
ATOM     13  C   UNL     1       3.448  -2.602   4.598  0.00  0.00    +0.116 A 
ATOM     14  S   UNL     1       2.935  -1.134   3.743  0.00  0.00    -0.062 S 
ATOM     15  C   UNL     1       2.286  -4.241   1.395  0.00  0.00    +0.046 C 
BRANCH   4  16
ATOM     16  C   UNL     1       1.808  -1.262   1.040  0.00  0.00    +0.346 C 
ATOM     17  O   UNL     1       1.477  -1.940   0.087  0.00  0.00    -0.244 OA
BRANCH  16  18
ATOM     18  O   UNL     1       1.650   0.078   1.002  0.00  0.00    -0.461 OA
BRANCH  18  20
ATOM     19  C   UNL     1       0.988   2.151  -0.048  0.00  0.00    +0.048 C 
ATOM     20  C   UNL     1       1.089   0.631  -0.190  0.00  0.00    +0.229 C 
ENDBRANCH  18  20
ENDBRANCH  16  18
ENDBRANCH   4  16
ENDBRANCH   3  11
ENDBRANCH   1   3
BRANCH   1  21
ATOM     21  C   UNL     1       3.680  -2.429   8.461  0.00  0.00    -0.042 C 
BRANCH  21  22
ATOM     22  C   UNL     1       2.872  -3.373   9.314  0.00  0.00    -0.064 A 
ATOM     23  C   UNL     1       2.100  -4.354   8.719  0.00  0.00    +0.002 A 
ATOM     24  C   UNL     1       1.360  -5.220   9.501  0.00  0.00    +0.000 A 
ATOM     25  C   UNL     1       1.391  -5.105  10.879  0.00  0.00    +0.000 A 
ATOM     26  C   UNL     1       2.163  -4.125  11.473  0.00  0.00    +0.000 A 
ATOM     27  C   UNL     1       2.907  -3.262  10.691  0.00  0.00    +0.002 A 
ENDBRANCH  21  22
ENDBRANCH   1  21
BRANCH   1  28
ATOM     28  C   UNL     1       5.699  -3.208   9.496  0.00  0.00    -0.044 C 
BRANCH  28  29
ATOM     29  C   UNL     1       5.973  -1.851  10.148  0.00  0.00    +0.124 C 
BRANCH  29  30
ATOM     30  O   UNL     1       6.824  -1.078   9.299  0.00  0.00    -0.391 OA
ATOM     31  H   UNL     1       7.681  -1.489   9.123  0.00  0.00    +0.210 HD
ENDBRANCH  29  30
BRANCH  29  32
ATOM     32  C   UNL     1       6.658  -2.063  11.499  0.00  0.00    +0.189 C 
BRANCH  32  33
ATOM     33  O   UNL     1       6.809  -0.805  12.159  0.00  0.00    -0.373 OA
BRANCH  33  34
ATOM     34  C   UNL     1       7.441  -0.891  13.438  0.00  0.00    +0.195 C 
BRANCH  34  35
ATOM     35  C   UNL     1       7.548   0.486  14.040  0.00  0.00    -0.022 A 
ATOM     36  C   UNL     1       8.664   1.264  13.793  0.00  0.00    +0.006 A 
ATOM     37  C   UNL     1       8.761   2.527  14.345  0.00  0.00    +0.000 A 
ATOM     38  C   UNL     1       7.744   3.013  15.144  0.00  0.00    +0.000 A 
ATOM     39  C   UNL     1       6.628   2.235  15.391  0.00  0.00    +0.000 A 
ATOM     40  C   UNL     1       6.528   0.974  14.835  0.00  0.00    +0.006 A 
ENDBRANCH  34  35
ENDBRANCH  33  34
ENDBRANCH  32  33
ENDBRANCH  29  32
ENDBRANCH  28  29
ENDBRANCH   1  28
TORSDOF 14
