REMARK  Name = ZINC33931429
REMARK  9 active torsions:
REMARK  status: ('A' for Active; 'I' for Inactive)
REMARK    1  A    between atoms: C_1  and  C_2
REMARK    2  A    between atoms: C_7  and  N_8
REMARK    3  A    between atoms: C_13  and  C_28
REMARK    4  A    between atoms: C_16  and  C_21
REMARK    5  A    between atoms: C_16  and  C_25
REMARK    6  A    between atoms: C_21  and  C_22
REMARK    7  A    between atoms: C_32  and  O_35
REMARK    8  A    between atoms: C_33  and  O_34
REMARK    9  A    between atoms: O_35  and  C_36
REMARK                            x       y       z     vdW  Elec       q    Type
REMARK                         _______ _______ _______ _____ _____    ______ ____
ROOT
ATOM      1  N   UNL     1       0.013   0.041   2.517  0.00  0.00    -0.210 N 
ATOM      2  C   UNL     1      -1.149   0.400   3.153  0.00  0.00    +0.229 C 
ATOM      3  O   UNL     1      -2.271   0.000   2.930  0.00  0.00    -0.275 OA
ATOM      4  C   UNL     1      -0.736   1.362   4.149  0.00  0.00    +0.077 C 
ATOM      5  C   UNL     1      -1.223   1.980   5.391  0.00  0.00    -0.023 C 
ATOM      6  N   UNL     1       0.012   2.530   6.040  0.00  0.00    +0.396 N 
ATOM      7  C   UNL     1       1.186   2.103   5.211  0.00  0.00    +0.058 C 
ATOM      8  C   UNL     1       0.674   0.791   4.579  0.00  0.00    +0.087 C 
ATOM      9  C   UNL     1       1.131   0.446   3.188  0.00  0.00    +0.229 C 
ATOM     10  O   UNL     1       2.260   0.515   2.753  0.00  0.00    -0.275 OA
ATOM     11  H   UNL     1      -0.037   3.538   6.070  0.00  0.00    -0.083 HD
ATOM     12  H   UNL     1       0.101   2.162   6.975  0.00  0.00    -0.083 HD
ENDROOT
BRANCH   1  19
ATOM     13  C   UNL     1       0.029   1.516   0.083  0.00  0.00    +0.045 C 
ATOM     14  C   UNL     1       0.057   0.009   0.100  0.00  0.00    -0.029 A 
ATOM     15  C   UNL     1       0.097  -0.695  -1.087  0.00  0.00    +0.005 A 
ATOM     16  C   UNL     1       0.123  -2.078  -1.072  0.00  0.00    +0.000 A 
ATOM     17  C   UNL     1       0.109  -2.759   0.131  0.00  0.00    +0.002 A 
ATOM     18  C   UNL     1       0.068  -2.060   1.322  0.00  0.00    +0.024 A 
ATOM     19  C   UNL     1       0.048  -0.672   1.310  0.00  0.00    +0.047 A 
ENDBRANCH   1  19
BRANCH   5  20
ATOM     20  C   UNL     1      -1.870   0.945   6.275  0.00  0.00    -0.015 A 
ATOM     21  C   UNL     1      -1.116   0.278   7.224  0.00  0.00    +0.006 A 
ATOM     22  C   UNL     1      -1.706  -0.671   8.037  0.00  0.00    +0.004 A 
ATOM     23  C   UNL     1      -3.053  -0.959   7.905  0.00  0.00    +0.049 A 
ATOM     24  C   UNL     1      -3.813  -0.294   6.957  0.00  0.00    +0.161 A 
ATOM     25  C   UNL     1      -3.220   0.666   6.142  0.00  0.00    +0.160 A 
BRANCH  25  26
ATOM     26  O   UNL     1      -3.964   1.325   5.213  0.00  0.00    -0.503 OA
ATOM     27  H   UNL     1      -3.991   0.890   4.350  0.00  0.00    +0.292 HD
ENDBRANCH  25  26
BRANCH  24  28
ATOM     28  O   UNL     1      -5.137  -0.576   6.825  0.00  0.00    -0.491 OA
ATOM     29  C   UNL     1      -5.679  -1.569   7.699  0.00  0.00    +0.277 C 
ENDBRANCH  24  28
ENDBRANCH   5  20
BRANCH   7  30
ATOM     30  C   UNL     1       2.386   1.834   6.082  0.00  0.00    +0.347 C 
ATOM     31  O   UNL     1       2.313   2.001   7.288  0.00  0.00    -0.248 OA
ATOM     32  O   UNL     1       3.429   1.449   5.582  0.00  0.00    -0.248 OA
ENDBRANCH   7  30
BRANCH   7  33
ATOM     33  C   UNL     1       1.511   3.155   4.148  0.00  0.00    +0.125 C 
BRANCH  33  34
ATOM     34  C   UNL     1       1.916   4.441   4.822  0.00  0.00    +0.355 C 
ATOM     35  O   UNL     1       1.942   4.510   6.039  0.00  0.00    -0.246 OA
ATOM     36  O   UNL     1       2.217   5.412   4.149  0.00  0.00    -0.246 OA
ENDBRANCH  33  34
ENDBRANCH   7  33
TORSDOF 7
