REMARK  Name = ZINC32753385
REMARK  9 active torsions:
REMARK  status: ('A' for Active; 'I' for Inactive)
REMARK    1  A    between atoms: C_1  and  C_2
REMARK    2  A    between atoms: C_2  and  C_3
REMARK    3  A    between atoms: C_3  and  N_4
REMARK    4  A    between atoms: N_4  and  C_5
REMARK    5  A    between atoms: N_4  and  C_18
REMARK    6  A    between atoms: C_5  and  C_6
REMARK    7  A    between atoms: N_8  and  C_9
REMARK    8  A    between atoms: C_18  and  C_19
REMARK    9  A    between atoms: N_21  and  C_22
REMARK                            x       y       z     vdW  Elec       q    Type
REMARK                         _______ _______ _______ _____ _____    ______ ____
ROOT
ATOM      1  N   UNL     1      -4.790   0.088   0.365  0.00  0.00    +0.391 N 
ATOM      2  H   UNL     1      -4.560   0.808   1.164  0.00  0.00    -0.080 HD
ENDROOT
BRANCH   1   3
ATOM      3  C   UNL     1      -4.968   0.842  -0.883  0.00  0.00    -0.078 C 
BRANCH   3   5
ATOM      4  C   UNL     1      -5.427   0.644  -3.332  0.00  0.00    +0.002 C 
ATOM      5  C   UNL     1      -5.363  -0.119  -2.007  0.00  0.00    -0.022 C 
ENDBRANCH   3   5
ENDBRANCH   1   3
BRANCH   1   6
ATOM      6  C   UNL     1      -3.659  -0.844   0.259  0.00  0.00    +0.020 C 
BRANCH   6   7
ATOM      7  C   UNL     1      -2.376  -0.065   0.124  0.00  0.00    +0.201 C 
ATOM      8  O   UNL     1      -2.401   1.147   0.116  0.00  0.00    -0.278 OA
ATOM      9  N   UNL     1      -1.201  -0.716   0.011  0.00  0.00    -0.285 N 
ATOM     10  H   UNL     1      -1.186  -1.812  -0.075  0.00  0.00    +0.155 HD
BRANCH   9  11
ATOM     11  C   UNL     1       0.001   0.005   0.005  0.00  0.00    +0.072 A 
ATOM     12  C   UNL     1       0.065   1.255   0.605  0.00  0.00    +0.029 A 
ATOM     13  C   UNL     1       1.250   1.965   0.597  0.00  0.00    +0.043 A 
ATOM     14  C   UNL     1       2.375   1.431  -0.008  0.00  0.00    +0.161 A 
ATOM     15  C   UNL     1       2.316   0.183  -0.609  0.00  0.00    +0.195 A 
ATOM     16  C   UNL     1       1.130  -0.531  -0.603  0.00  0.00    +0.182 A 
ATOM     17  F   UNL     1       1.070  -1.748  -1.188  0.00  0.00    -0.200 F 
ATOM     18  F   UNL     1       3.415  -0.336  -1.199  0.00  0.00    -0.199 F 
ATOM     19  F   UNL     1       3.533   2.128  -0.014  0.00  0.00    -0.202 F 
ENDBRANCH   9  11
ENDBRANCH   6   7
ENDBRANCH   1   6
BRANCH   1  20
ATOM     20  C   UNL     1      -6.023  -0.620   0.734  0.00  0.00    +0.019 C 
BRANCH  20  21
ATOM     21  C   UNL     1      -7.054   0.377   1.198  0.00  0.00    +0.197 C 
ATOM     22  O   UNL     1      -6.819   1.565   1.137  0.00  0.00    -0.278 OA
ATOM     23  N   UNL     1      -8.236  -0.052   1.682  0.00  0.00    -0.310 N 
ATOM     24  H   UNL     1      -8.449  -1.130   1.737  0.00  0.00    +0.149 HD
BRANCH  23  25
ATOM     25  C   UNL     1      -9.238   0.916   2.133  0.00  0.00    +0.110 C 
ATOM     26  C   UNL     1     -10.632   0.291   2.032  0.00  0.00    +0.068 C 
ATOM     27  C   UNL     1     -11.621   1.198   2.776  0.00  0.00    +0.231 C 
ATOM     28  O   UNL     1     -11.275   1.200   4.162  0.00  0.00    -0.492 OA
ATOM     29  C   UNL     1      -9.977   1.425   4.491  0.00  0.00    +0.125 A 
ATOM     30  C   UNL     1      -8.957   1.300   3.563  0.00  0.00    +0.014 A 
ATOM     31  C   UNL     1      -7.646   1.530   3.946  0.00  0.00    +0.009 A 
ATOM     32  C   UNL     1      -7.352   1.886   5.248  0.00  0.00    +0.001 A 
ATOM     33  C   UNL     1      -8.369   2.015   6.176  0.00  0.00    +0.004 A 
ATOM     34  C   UNL     1      -9.677   1.786   5.800  0.00  0.00    +0.046 A 
ENDBRANCH  23  25
ENDBRANCH  20  21
ENDBRANCH   1  20
TORSDOF 8
