REMARK  Name = ZINC35566517
REMARK  10 active torsions:
REMARK  status: ('A' for Active; 'I' for Inactive)
REMARK    1  A    between atoms: C_1  and  C_2
REMARK    2  A    between atoms: C_2  and  O_3
REMARK    3  A    between atoms: O_3  and  C_4
REMARK    4  A    between atoms: C_9  and  C_10
REMARK    5  A    between atoms: C_12  and  C_29
REMARK    6  A    between atoms: C_20  and  C_27
REMARK    7  A    between atoms: C_22  and  C_26
REMARK    8  A    between atoms: C_29  and  C_31
REMARK    9  A    between atoms: C_32  and  C_37
REMARK   10  A    between atoms: C_34  and  C_36
REMARK                            x       y       z     vdW  Elec       q    Type
REMARK                         _______ _______ _______ _____ _____    ______ ____
ROOT
ATOM      1  C   UNL     1      -3.946  -1.722  -0.021  0.00  0.00    +0.155 C 
ATOM      2  C   UNL     1      -4.222  -1.229   1.380  0.00  0.00    +0.077 C 
ATOM      3  C   UNL     1      -5.494  -1.582   1.675  0.00  0.00    +0.250 C 
ATOM      4  C   UNL     1      -6.080  -2.294   0.523  0.00  0.00    +0.293 C 
ATOM      5  O   UNL     1      -7.210  -2.738   0.479  0.00  0.00    -0.266 OA
ATOM      6  N   UNL     1      -5.178  -2.378  -0.474  0.00  0.00    -0.232 N 
ATOM      7  C   UNL     1      -5.377  -2.977  -1.705  0.00  0.00    +0.169 A 
ATOM      8  N   UNL     1      -6.452  -3.572  -2.168  0.00  0.00    -0.224 NA
ATOM      9  C   UNL     1      -6.505  -4.118  -3.401  0.00  0.00    +0.083 A 
ATOM     10  C   UNL     1      -7.592  -4.783  -4.016  0.00  0.00    -0.024 A 
ATOM     11  C   UNL     1      -7.479  -5.284  -5.287  0.00  0.00    +0.009 A 
ATOM     12  C   UNL     1      -6.303  -5.159  -6.013  0.00  0.00    -0.049 A 
ATOM     13  C   UNL     1      -5.220  -4.515  -5.443  0.00  0.00    +0.020 A 
ATOM     14  C   UNL     1      -5.324  -4.010  -4.171  0.00  0.00    +0.041 A 
ATOM     15  S   UNL     1      -4.238  -3.131  -3.074  0.00  0.00    -0.052 S 
ATOM     16  C   UNL     1      -6.207  -5.720  -7.408  0.00  0.00    +0.044 C 
ATOM     17  C   UNL     1      -8.889  -4.943  -3.265  0.00  0.00    +0.046 C 
ATOM     18  O   UNL     1      -6.129  -1.324   2.843  0.00  0.00    -0.282 OA
ENDROOT
BRANCH   1  24
ATOM     19  C   UNL     1      -2.816  -3.767   0.889  0.00  0.00    +0.126 A 
ATOM     20  C   UNL     1      -1.768  -4.677   0.894  0.00  0.00    +0.046 A 
ATOM     21  C   UNL     1      -0.718  -4.525   0.010  0.00  0.00    +0.004 A 
ATOM     22  C   UNL     1      -0.710  -3.467  -0.880  0.00  0.00    +0.001 A 
ATOM     23  C   UNL     1      -1.752  -2.558  -0.887  0.00  0.00    +0.009 A 
ATOM     24  C   UNL     1      -2.808  -2.709  -0.009  0.00  0.00    +0.020 A 
BRANCH  19  25
ATOM     25  O   UNL     1      -3.850  -3.914   1.758  0.00  0.00    -0.492 OA
BRANCH  25  27
ATOM     26  C   UNL     1      -5.041  -5.051   3.528  0.00  0.00    +0.048 C 
ATOM     27  C   UNL     1      -3.742  -4.961   2.724  0.00  0.00    +0.225 C 
ENDBRANCH  25  27
ENDBRANCH  19  25
ENDBRANCH   1  24
BRANCH   2  28
ATOM     28  C   UNL     1      -3.289  -0.506   2.253  0.00  0.00    +0.203 C 
ATOM     29  O   UNL     1      -3.587  -0.287   3.414  0.00  0.00    -0.286 OA
BRANCH  28  30
ATOM     30  C   UNL     1      -1.999  -0.047   1.728  0.00  0.00    +0.082 A 
ATOM     31  C   UNL     1      -0.918   0.518   2.394  0.00  0.00    +0.057 A 
ATOM     32  N   UNL     1       0.116   0.834   1.656  0.00  0.00    -0.249 NA
ATOM     33  C   UNL     1       0.128   0.627   0.358  0.00  0.00    +0.076 A 
ATOM     34  S   UNL     1      -1.376  -0.064   0.054  0.00  0.00    -0.069 S 
ATOM     35  C   UNL     1       1.229   0.932  -0.624  0.00  0.00    +0.073 C 
ATOM     36  C   UNL     1      -0.935   0.754   3.882  0.00  0.00    +0.067 C 
ENDBRANCH  28  30
ENDBRANCH   2  28
TORSDOF 5
