REMARK  Name = ZINC40281516
REMARK  3 active torsions:
REMARK  status: ('A' for Active; 'I' for Inactive)
REMARK    1  A    between atoms: C_1  and  C_2
REMARK    2  A    between atoms: C_5  and  C_7
REMARK    3  A    between atoms: C_7  and  C_9
REMARK                            x       y       z     vdW  Elec       q    Type
REMARK                         _______ _______ _______ _____ _____    ______ ____
ROOT
ATOM      1  C   UNL     1       2.461  -3.256  -1.314  0.00  0.00    -0.025 A 
ATOM      2  C   UNL     1       3.349  -2.234  -1.597  0.00  0.00    +0.007 A 
ATOM      3  C   UNL     1       4.057  -2.247  -2.779  0.00  0.00    +0.025 A 
ATOM      4  C   UNL     1       3.890  -3.284  -3.699  0.00  0.00    +0.055 A 
ATOM      5  C   UNL     1       3.001  -4.308  -3.416  0.00  0.00    +0.055 A 
ATOM      6  C   UNL     1       2.292  -4.287  -2.212  0.00  0.00    +0.030 A 
ATOM      7  N   UNL     1       2.764  -5.384  -4.266  0.00  0.00    -0.284 N 
ATOM      8  C   UNL     1       2.644  -5.315  -5.590  0.00  0.00    +0.226 C 
ATOM      9  O   UNL     1       2.397  -6.322  -6.219  0.00  0.00    -0.275 OA
ATOM     10  C   UNL     1       2.809  -4.008  -6.321  0.00  0.00    +0.192 C 
ATOM     11  C   UNL     1       4.212  -3.510  -6.089  0.00  0.00    +0.226 C 
ATOM     12  O   UNL     1       4.960  -3.373  -7.034  0.00  0.00    -0.275 OA
ATOM     13  N   UNL     1       4.646  -3.217  -4.865  0.00  0.00    -0.284 N 
ATOM     14  H   UNL     1       2.679  -6.260  -3.859  0.00  0.00    +0.155 HD
ATOM     15  H   UNL     1       5.570  -2.933  -4.779  0.00  0.00    +0.155 HD
ENDROOT
BRANCH   1  16
ATOM     16  C   UNL     1       1.684  -3.245  -0.023  0.00  0.00    +0.152 C 
ATOM     17 BR   UNL     1       2.930  -3.100   1.491  0.00  0.00    -0.075 Br
BRANCH  16  22
ATOM     18  C   UNL     1      -0.018   1.503   0.010  0.00  0.00    +0.086 C 
ATOM     19  C   UNL     1       0.002  -0.004   0.002  0.00  0.00    +0.102 A 
ATOM     20  C   UNL     1      -1.078  -0.805   0.003  0.00  0.00    +0.044 A 
ATOM     21  C   UNL     1      -0.601  -2.136  -0.007  0.00  0.00    +0.046 A 
ATOM     22  C   UNL     1       0.742  -2.069  -0.013  0.00  0.00    +0.123 A 
ATOM     23  O   UNL     1       1.102  -0.775  -0.013  0.00  0.00    -0.463 OA
ENDBRANCH  16  22
ENDBRANCH   1  16
TORSDOF 2
