REMARK  Name = ZINC22316134
REMARK  12 active torsions:
REMARK  status: ('A' for Active; 'I' for Inactive)
REMARK    1  A    between atoms: C_1  and  C_2
REMARK    2  A    between atoms: C_2  and  C_4
REMARK    3  A    between atoms: C_7  and  O_35
REMARK    4  A    between atoms: C_8  and  C_10
REMARK    5  A    between atoms: C_10  and  C_11
REMARK    6  A    between atoms: C_11  and  O_13
REMARK    7  A    between atoms: O_13  and  C_14
REMARK    8  A    between atoms: C_14  and  C_16
REMARK    9  A    between atoms: C_14  and  C_22
REMARK   10  A    between atoms: N_24  and  C_25
REMARK   11  A    between atoms: C_29  and  N_31
REMARK   12  A    between atoms: O_35  and  C_36
REMARK                            x       y       z     vdW  Elec       q    Type
REMARK                         _______ _______ _______ _____ _____    ______ ____
ROOT
ATOM      1  C   UNL     1      -2.547   4.165   0.227  0.00  0.00    +0.292 C 
ENDROOT
BRANCH   1   2
ATOM      2  C   UNL     1      -3.387   3.893  -0.995  0.00  0.00    +0.002 A 
ATOM      3  C   UNL     1      -3.156   4.596  -2.162  0.00  0.00    +0.008 A 
ATOM      4  C   UNL     1      -3.924   4.344  -3.284  0.00  0.00    +0.000 A 
ATOM      5  C   UNL     1      -4.928   3.395  -3.235  0.00  0.00    +0.000 A 
ATOM      6  C   UNL     1      -5.161   2.695  -2.067  0.00  0.00    +0.000 A 
ATOM      7  C   UNL     1      -4.391   2.944  -0.946  0.00  0.00    +0.008 A 
ENDBRANCH   1   2
BRANCH   1   8
ATOM      8  C   UNL     1      -1.231   3.442   0.103  0.00  0.00    +0.263 C 
ATOM      9  O   UNL     1      -0.192   4.068   0.110  0.00  0.00    -0.271 OA
ATOM     10  N   UNL     1      -1.208   2.099  -0.016  0.00  0.00    -0.282 N 
ATOM     11  H   UNL     1      -2.150   1.539  -0.107  0.00  0.00    +0.155 HD
BRANCH  10  12
ATOM     12  C   UNL     1       0.015   1.419  -0.023  0.00  0.00    +0.036 A 
ATOM     13  C   UNL     1       0.162   0.260  -0.775  0.00  0.00    +0.025 A 
ATOM     14  C   UNL     1       1.368  -0.412  -0.777  0.00  0.00    +0.024 A 
ATOM     15  C   UNL     1       2.430   0.066  -0.029  0.00  0.00    +0.071 A 
ATOM     16  C   UNL     1       2.286   1.220   0.721  0.00  0.00    +0.146 A 
ATOM     17  C   UNL     1       1.082   1.897   0.726  0.00  0.00    +0.057 A 
ATOM     18 CL   UNL     1       3.944  -0.782  -0.033  0.00  0.00    -0.081 Cl
BRANCH  16  19
ATOM     19  N   UNL     1       3.424   1.729   1.520  0.00  0.00    +0.058 N 
ATOM     20  O   UNL     1       3.298   2.745   2.180  0.00  0.00    -0.126 OA
ATOM     21  O   UNL     1       4.486   1.133   1.516  0.00  0.00    -0.126 OA
ENDBRANCH  16  19
ENDBRANCH  10  12
ENDBRANCH   1   8
BRANCH   1  22
ATOM     22  O   UNL     1      -2.307   5.592   0.341  0.00  0.00    -0.447 OA
BRANCH  22  23
ATOM     23  C   UNL     1      -3.199   6.306   1.046  0.00  0.00    +0.313 C 
ATOM     24  O   UNL     1      -4.149   5.756   1.551  0.00  0.00    -0.250 OA
BRANCH  23  25
ATOM     25  C   UNL     1      -3.015   7.793   1.208  0.00  0.00    +0.159 C 
BRANCH  25  30
ATOM     26  C   UNL     1      -6.297   9.406   2.191  0.00  0.00    +0.018 A 
ATOM     27  C   UNL     1      -6.209   9.374   3.588  0.00  0.00    +0.015 A 
ATOM     28  C   UNL     1      -5.107   8.840   4.191  0.00  0.00    +0.046 A 
ATOM     29  C   UNL     1      -4.068   8.325   3.424  0.00  0.00    +0.124 A 
ATOM     30  C   UNL     1      -4.144   8.351   2.035  0.00  0.00    +0.006 A 
ATOM     31  C   UNL     1      -5.248   8.892   1.417  0.00  0.00    +0.019 A 
BRANCH  26  33
ATOM     32  C   UNL     1      -7.630   9.900   0.041  0.00  0.00    +0.091 C 
ATOM     33  C   UNL     1      -7.481   9.980   1.539  0.00  0.00    +0.160 C 
ATOM     34  O   UNL     1      -8.339  10.518   2.206  0.00  0.00    -0.292 OA
ENDBRANCH  26  33
BRANCH  29  35
ATOM     35  O   UNL     1      -2.976   7.796   4.031  0.00  0.00    -0.495 OA
ATOM     36  C   UNL     1      -2.963   7.801   5.460  0.00  0.00    +0.277 C 
ENDBRANCH  29  35
ENDBRANCH  25  30
ENDBRANCH  23  25
ENDBRANCH  22  23
ENDBRANCH   1  22
TORSDOF 10
