REMARK  Name = ZINC66471209
REMARK  9 active torsions:
REMARK  status: ('A' for Active; 'I' for Inactive)
REMARK    1  A    between atoms: C_1  and  C_2
REMARK    2  A    between atoms: C_7  and  C_13
REMARK    3  A    between atoms: C_13  and  N_14
REMARK    4  A    between atoms: N_14  and  C_15
REMARK    5  A    between atoms: C_18  and  C_22
REMARK    6  A    between atoms: C_19  and  C_21
REMARK    7  A    between atoms: N_24  and  C_25
REMARK    8  A    between atoms: C_25  and  C_26
REMARK    9  A    between atoms: C_25  and  C_27
REMARK                            x       y       z     vdW  Elec       q    Type
REMARK                         _______ _______ _______ _____ _____    ______ ____
ROOT
ATOM      1  N   UNL     1      -0.844  -6.821   0.180  0.00  0.00    -0.338 N 
ATOM      2  H   UNL     1      -1.412  -6.174  -0.268  0.00  0.00    +0.146 HD
ENDROOT
BRANCH   1   3
ATOM      3  C   UNL     1      -1.212  -8.161   0.217  0.00  0.00    +0.028 A 
ATOM      4  C   UNL     1      -0.398  -9.087   0.866  0.00  0.00    +0.023 A 
ATOM      5  C   UNL     1      -0.759 -10.414   0.904  0.00  0.00    +0.015 A 
ATOM      6  C   UNL     1      -1.944 -10.832   0.292  0.00  0.00    +0.040 A 
ATOM      7  C   UNL     1      -2.759  -9.901  -0.358  0.00  0.00    -0.037 A 
ATOM      8  C   UNL     1      -2.395  -8.574  -0.389  0.00  0.00    +0.027 A 
ATOM      9  C   UNL     1      -4.037 -10.348  -1.021  0.00  0.00    +0.044 C 
BRANCH   6  10
ATOM     10  C   UNL     1      -2.334 -12.255   0.331  0.00  0.00    +0.245 C 
ATOM     11  O   UNL     1      -3.417 -12.600  -0.101  0.00  0.00    -0.270 OA
ATOM     12  N   UNL     1      -1.490 -13.171   0.846  0.00  0.00    -0.309 N 
ATOM     13  H   UNL     1      -0.627 -12.895   1.190  0.00  0.00    +0.149 HD
BRANCH  12  14
ATOM     14  C   UNL     1      -1.878 -14.583   0.885  0.00  0.00    +0.067 C 
ATOM     15  C   UNL     1      -0.621 -15.456   0.903  0.00  0.00    +0.027 C 
ATOM     16  C   UNL     1      -2.703 -14.851   2.144  0.00  0.00    +0.027 C 
ENDBRANCH  12  14
ENDBRANCH   6  10
ENDBRANCH   1   3
BRANCH   1  17
ATOM     17  C   UNL     1       0.401  -6.385   0.817  0.00  0.00    +0.155 C 
BRANCH  17  24
ATOM     18  C   UNL     1       1.347   1.099  -1.377  0.00  0.00    +0.045 C 
ATOM     19  C   UNL     1       1.181  -0.385  -1.170  0.00  0.00    -0.034 A 
ATOM     20  C   UNL     1       1.203  -1.251  -2.273  0.00  0.00    +0.008 A 
ATOM     21  C   UNL     1       1.053  -2.591  -2.077  0.00  0.00    +0.045 A 
ATOM     22  C   UNL     1       0.878  -3.085  -0.771  0.00  0.00    +0.118 A 
ATOM     23  N   UNL     1       0.731  -4.394  -0.578  0.00  0.00    -0.343 N 
ATOM     24  C   UNL     1       0.565  -4.898   0.635  0.00  0.00    +0.040 A 
ATOM     25  C   UNL     1       0.540  -4.061   1.733  0.00  0.00    +0.093 A 
ATOM     26  C   UNL     1       0.694  -2.683   1.538  0.00  0.00    +0.258 A 
ATOM     27  O   UNL     1       0.678  -1.917   2.489  0.00  0.00    -0.267 OA
ATOM     28  N   UNL     1       0.862  -2.215   0.283  0.00  0.00    -0.269 N 
ATOM     29  C   UNL     1       1.018  -0.878   0.078  0.00  0.00    +0.099 A 
ATOM     30  H   UNL     1       0.746  -4.992  -1.343  0.00  0.00    +0.167 HD
ENDBRANCH  17  24
ENDBRANCH   1  17
TORSDOF 5
