REMARK  Name = ZINC13981122
REMARK  13 active torsions:
REMARK  status: ('A' for Active; 'I' for Inactive)
REMARK    1  A    between atoms: C_1  and  C_2
REMARK    2  A    between atoms: C_5  and  O_9
REMARK    3  A    between atoms: C_6  and  C_8
REMARK    4  A    between atoms: O_9  and  C_10
REMARK    5  A    between atoms: C_10  and  C_11
REMARK    6  A    between atoms: N_13  and  N_14
REMARK    7  A    between atoms: N_14  and  C_15
REMARK    8  A    between atoms: C_15  and  N_17
REMARK    9  A    between atoms: C_18  and  C_20
REMARK   10  A    between atoms: C_23  and  C_27
REMARK   11  A    between atoms: C_27  and  C_28
REMARK   12  A    between atoms: C_27  and  C_29
REMARK   13  A    between atoms: C_27  and  C_30
REMARK                            x       y       z     vdW  Elec       q    Type
REMARK                         _______ _______ _______ _____ _____    ______ ____
ROOT
ATOM      1  C   UNL     1       2.436   1.575  -0.072  0.00  0.00    +0.153 C 
ATOM      2  S   UNL     1       2.537  -0.123  -0.266  0.00  0.00    -0.017 S 
ENDROOT
BRANCH   1   3
ATOM      3  N   UNL     1       1.232   2.178  -0.025  0.00  0.00    -0.263 N 
ATOM      4  C   UNL     1       0.106   1.444  -0.130  0.00  0.00    +0.250 C 
ATOM      5  O   UNL     1       0.177   0.239  -0.268  0.00  0.00    -0.270 OA
ATOM      6  H   UNL     1       1.175   3.140   0.085  0.00  0.00    +0.157 HD
BRANCH   4   7
ATOM      7  C   UNL     1      -1.214   2.106  -0.085  0.00  0.00    +0.038 A 
ATOM      8  C   UNL     1      -1.300   3.490   0.079  0.00  0.00    +0.013 A 
ATOM      9  C   UNL     1      -2.535   4.102   0.115  0.00  0.00    +0.006 A 
ATOM     10  C   UNL     1      -3.689   3.347   0.001  0.00  0.00    -0.028 A 
ATOM     11  C   UNL     1      -3.612   1.974  -0.156  0.00  0.00    +0.022 A 
ATOM     12  C   UNL     1      -2.382   1.349  -0.200  0.00  0.00    +0.028 A 
ATOM     13 BR   UNL     1      -5.195   0.951  -0.312  0.00  0.00    -0.050 Br
BRANCH  10  14
ATOM     14  C   UNL     1      -5.036   4.022   0.048  0.00  0.00    -0.012 C 
ATOM     15  C   UNL     1      -4.844   5.531   0.210  0.00  0.00    +0.015 C 
ATOM     16  C   UNL     1      -5.792   3.741  -1.252  0.00  0.00    +0.015 C 
ATOM     17  C   UNL     1      -5.838   3.479   1.232  0.00  0.00    +0.015 C 
ENDBRANCH  10  14
ENDBRANCH   4   7
ENDBRANCH   1   3
BRANCH   1  18
ATOM     18  N   UNL     1       3.562   2.309   0.034  0.00  0.00    -0.245 N 
ATOM     19  H   UNL     1       4.428   1.875  -0.000  0.00  0.00    +0.172 HD
BRANCH  18  22
ATOM     20  C   UNL     1       4.605   4.433   0.298  0.00  0.00    +0.267 C 
ATOM     21  O   UNL     1       5.689   3.890   0.256  0.00  0.00    -0.271 OA
ATOM     22  N   UNL     1       3.479   3.699   0.193  0.00  0.00    -0.232 N 
ATOM     23  H   UNL     1       2.612   4.133   0.227  0.00  0.00    +0.173 HD
BRANCH  20  24
ATOM     24  C   UNL     1       4.516   5.927   0.469  0.00  0.00    +0.326 C 
BRANCH  24  25
ATOM     25  O   UNL     1       5.833   6.476   0.557  0.00  0.00    -0.482 OA
BRANCH  25  30
ATOM     26  C   UNL     1       6.242  12.055   1.209  0.00  0.00    +0.044 C 
ATOM     27  C   UNL     1       6.132  10.562   1.034  0.00  0.00    -0.050 A 
ATOM     28  C   UNL     1       4.887   9.967   0.942  0.00  0.00    +0.007 A 
ATOM     29  C   UNL     1       4.785   8.599   0.782  0.00  0.00    +0.046 A 
ATOM     30  C   UNL     1       5.932   7.822   0.714  0.00  0.00    +0.124 A 
ATOM     31  C   UNL     1       7.179   8.420   0.812  0.00  0.00    -0.009 A 
ATOM     32  C   UNL     1       7.277   9.790   0.967  0.00  0.00    +0.010 A 
ATOM     33  C   UNL     1       8.427   7.578   0.744  0.00  0.00    +0.047 C 
ENDBRANCH  25  30
ENDBRANCH  24  25
ENDBRANCH  20  24
ENDBRANCH  18  22
ENDBRANCH   1  18
TORSDOF 8
