REMARK  Name = ZINC39266335
REMARK  14 active torsions:
REMARK  status: ('A' for Active; 'I' for Inactive)
REMARK    1  A    between atoms: C_1  and  C_2
REMARK    2  A    between atoms: C_2  and  O_3
REMARK    3  A    between atoms: O_3  and  C_4
REMARK    4  A    between atoms: C_4  and  C_6
REMARK    5  A    between atoms: C_6  and  C_8
REMARK    6  A    between atoms: C_6  and  N_12
REMARK    7  A    between atoms: C_8  and  C_9
REMARK    8  A    between atoms: C_9  and  C_10
REMARK    9  A    between atoms: C_9  and  C_11
REMARK   10  A    between atoms: N_21  and  C_22
REMARK   11  A    between atoms: C_22  and  C_23
REMARK   12  A    between atoms: N_25  and  C_26
REMARK   13  A    between atoms: C_31  and  S_32
REMARK   14  A    between atoms: S_32  and  C_33
REMARK                            x       y       z     vdW  Elec       q    Type
REMARK                         _______ _______ _______ _____ _____    ______ ____
ROOT
ATOM      1  N   UNL     1      -4.178  -4.370  -0.040  0.00  0.00    -0.289 N 
ATOM      2  C   UNL     1      -3.555  -4.644   1.261  0.00  0.00    +0.108 C 
ATOM      3  C   UNL     1      -3.995  -6.078   1.637  0.00  0.00    +0.016 C 
ATOM      4  C   UNL     1      -4.286  -6.685   0.253  0.00  0.00    +0.015 C 
ATOM      5  C   UNL     1      -4.593  -5.507  -0.632  0.00  0.00    +0.206 C 
ATOM      6  O   UNL     1      -5.132  -5.571  -1.717  0.00  0.00    -0.277 OA
ATOM      7  C   UNL     1      -5.488  -7.638   0.329  0.00  0.00    -0.005 C 
ATOM      8  C   UNL     1      -5.091  -8.772  -0.655  0.00  0.00    -0.019 C 
ATOM      9  C   UNL     1      -3.558  -8.850  -0.445  0.00  0.00    -0.077 C 
ATOM     10  N   UNL     1      -3.133  -7.446  -0.238  0.00  0.00    +0.395 N 
ATOM     11  H   UNL     1      -2.813  -7.055  -1.111  0.00  0.00    -0.080 HD
ENDROOT
BRANCH   1  12
ATOM     12  C   UNL     1      -4.335  -3.033  -0.617  0.00  0.00    +0.185 C 
BRANCH  12  13
ATOM     13  C   UNL     1      -2.976  -2.457  -0.925  0.00  0.00    +0.328 C 
ATOM     14  O   UNL     1      -1.980  -3.098  -0.686  0.00  0.00    -0.249 OA
BRANCH  13  15
ATOM     15  O   UNL     1      -2.873  -1.232  -1.464  0.00  0.00    -0.464 OA
BRANCH  15  17
ATOM     16  C   UNL     1      -1.638   0.653  -2.337  0.00  0.00    +0.048 C 
ATOM     17  C   UNL     1      -1.555  -0.748  -1.729  0.00  0.00    +0.229 C 
ENDBRANCH  15  17
ENDBRANCH  13  15
ENDBRANCH  12  13
BRANCH  12  18
ATOM     18  C   UNL     1      -5.058  -2.128   0.382  0.00  0.00    +0.037 C 
BRANCH  18  19
ATOM     19  C   UNL     1      -6.494  -2.622   0.570  0.00  0.00    -0.015 C 
ATOM     20  C   UNL     1      -7.168  -1.818   1.684  0.00  0.00    +0.007 C 
ATOM     21  C   UNL     1      -7.272  -2.437  -0.734  0.00  0.00    +0.007 C 
ENDBRANCH  18  19
ENDBRANCH  12  18
ENDBRANCH   1  12
BRANCH  10  22
ATOM     22  C   UNL     1      -2.050  -7.398   0.753  0.00  0.00    +0.020 C 
BRANCH  22  23
ATOM     23  C   UNL     1      -0.805  -8.014   0.167  0.00  0.00    +0.201 C 
ATOM     24  O   UNL     1      -0.819  -8.450  -0.965  0.00  0.00    -0.278 OA
ATOM     25  N   UNL     1       0.324  -8.079   0.901  0.00  0.00    -0.286 N 
ATOM     26  H   UNL     1       0.312  -7.816   1.834  0.00  0.00    +0.155 HD
BRANCH  25  27
ATOM     27  C   UNL     1       1.515  -8.529   0.315  0.00  0.00    +0.047 A 
ATOM     28  C   UNL     1       1.637  -8.575  -1.065  0.00  0.00    +0.024 A 
ATOM     29  C   UNL     1       2.812  -9.019  -1.641  0.00  0.00    +0.002 A 
ATOM     30  C   UNL     1       3.870  -9.418  -0.844  0.00  0.00    +0.001 A 
ATOM     31  C   UNL     1       3.758  -9.376   0.532  0.00  0.00    +0.017 A 
ATOM     32  C   UNL     1       2.583  -8.927   1.119  0.00  0.00    +0.034 A 
BRANCH  32  33
ATOM     33  S   UNL     1       2.439  -8.865   2.874  0.00  0.00    -0.088 S 
BRANCH  33  34
ATOM     34  C   UNL     1       4.043  -9.313   3.449  0.00  0.00    +0.013 A 
ATOM     35  C   UNL     1       4.974  -8.328   3.757  0.00  0.00    +0.015 A 
ATOM     36  C   UNL     1       6.230  -8.682   4.207  0.00  0.00    +0.001 A 
ATOM     37  C   UNL     1       6.563 -10.017   4.353  0.00  0.00    +0.000 A 
ATOM     38  C   UNL     1       5.639 -11.001   4.048  0.00  0.00    +0.001 A 
ATOM     39  C   UNL     1       4.380 -10.653   3.602  0.00  0.00    +0.015 A 
ENDBRANCH  33  34
ENDBRANCH  32  33
ENDBRANCH  25  27
ENDBRANCH  22  23
ENDBRANCH  10  22
TORSDOF 11
