REMARK  Name = ZINC35023561
REMARK  9 active torsions:
REMARK  status: ('A' for Active; 'I' for Inactive)
REMARK    1  A    between atoms: C_1  and  C_2
REMARK    2  A    between atoms: C_7  and  C_12
REMARK    3  A    between atoms: C_12  and  C_13
REMARK    4  A    between atoms: C_14  and  C_28
REMARK    5  A    between atoms: N_16  and  C_21
REMARK    6  A    between atoms: C_21  and  C_22
REMARK    7  A    between atoms: C_31  and  O_34
REMARK    8  A    between atoms: O_34  and  C_35
REMARK    9  A    between atoms: C_35  and  C_36
REMARK                            x       y       z     vdW  Elec       q    Type
REMARK                         _______ _______ _______ _____ _____    ______ ____
ROOT
ATOM      1  C   UNL     1       7.014  -1.242  -0.249  0.00  0.00    +0.076 C 
ATOM      2  C   UNL     1       6.998  -1.218   1.261  0.00  0.00    +0.145 C 
ATOM      3  N   UNL     1       8.400  -1.296   1.687  0.00  0.00    -0.279 N 
ATOM      4  C   UNL     1       9.165  -1.358   0.582  0.00  0.00    +0.288 C 
ATOM      5  O   UNL     1      10.378  -1.430   0.576  0.00  0.00    -0.266 OA
ATOM      6  C   UNL     1       8.311  -1.331  -0.625  0.00  0.00    +0.249 C 
ATOM      7  O   UNL     1       8.756  -1.383  -1.901  0.00  0.00    -0.282 OA
ENDROOT
BRANCH   2   8
ATOM      8  C   UNL     1       6.377   0.064   1.753  0.00  0.00    -0.022 A 
ATOM      9  C   UNL     1       7.082   1.250   1.665  0.00  0.00    +0.009 A 
ATOM     10  C   UNL     1       6.515   2.426   2.115  0.00  0.00    +0.046 A 
ATOM     11  C   UNL     1       5.238   2.417   2.656  0.00  0.00    +0.121 A 
ATOM     12  C   UNL     1       4.532   1.226   2.744  0.00  0.00    +0.046 A 
ATOM     13  C   UNL     1       5.102   0.052   2.287  0.00  0.00    +0.009 A 
BRANCH  11  14
ATOM     14  O   UNL     1       4.678   3.573   3.101  0.00  0.00    -0.488 OA
BRANCH  14  15
ATOM     15  C   UNL     1       3.360   3.488   3.646  0.00  0.00    +0.256 C 
BRANCH  15  16
ATOM     16  C   UNL     1       2.908   4.858   4.083  0.00  0.00    +0.006 C 
ATOM     17  C   UNL     1       1.702   5.275   3.786  0.00  0.00    +0.007 C 
ENDBRANCH  15  16
ENDBRANCH  14  15
ENDBRANCH  11  14
ENDBRANCH   2   8
BRANCH   1  18
ATOM     18  C   UNL     1       5.848  -1.185  -1.137  0.00  0.00    +0.195 C 
ATOM     19  O   UNL     1       5.685  -0.225  -1.866  0.00  0.00    -0.287 OA
BRANCH  18  25
ATOM     20  C   UNL     1      -0.024  -4.121  -0.762  0.00  0.00    +0.052 C 
ATOM     21  C   UNL     1       0.885  -4.631  -1.883  0.00  0.00    +0.175 C 
ATOM     22  C   UNL     1       1.505  -3.449  -2.666  0.00  0.00    +0.083 C 
ATOM     23  C   UNL     1       2.821  -3.248  -1.939  0.00  0.00    -0.002 A 
ATOM     24  C   UNL     1       3.721  -2.213  -1.936  0.00  0.00    +0.019 A 
ATOM     25  C   UNL     1       4.874  -2.294  -1.147  0.00  0.00    +0.023 A 
ATOM     26  C   UNL     1       5.095  -3.434  -0.368  0.00  0.00    +0.015 A 
ATOM     27  C   UNL     1       4.189  -4.467  -0.381  0.00  0.00    +0.046 A 
ATOM     28  C   UNL     1       3.039  -4.389  -1.171  0.00  0.00    +0.124 A 
ATOM     29  O   UNL     1       2.036  -5.298  -1.340  0.00  0.00    -0.488 OA
ENDBRANCH  18  25
ENDBRANCH   1  18
BRANCH   3  30
ATOM     30  C   UNL     1       8.882  -1.304   3.070  0.00  0.00    +0.145 C 
BRANCH  30  31
ATOM     31  C   UNL     1       8.963  -2.725   3.566  0.00  0.00    -0.012 A 
ATOM     32  C   UNL     1       7.872  -3.316   4.184  0.00  0.00    +0.008 A 
ATOM     33  C   UNL     1       7.992  -4.625   4.624  0.00  0.00    +0.020 A 
ATOM     34  C   UNL     1       9.187  -5.293   4.432  0.00  0.00    +0.111 A 
ATOM     35  N   UNL     1      10.204  -4.699   3.840  0.00  0.00    -0.263 NA
ATOM     36  C   UNL     1      10.124  -3.458   3.404  0.00  0.00    +0.115 A 
ENDBRANCH  30  31
ENDBRANCH   3  30
TORSDOF 8
