REMARK  Name = ZINC40010945
REMARK  10 active torsions:
REMARK  status: ('A' for Active; 'I' for Inactive)
REMARK    1  A    between atoms: C_1  and  N_2
REMARK    2  A    between atoms: N_2  and  C_3
REMARK    3  A    between atoms: C_3  and  N_5
REMARK    4  A    between atoms: C_10  and  O_32
REMARK    5  A    between atoms: C_11  and  O_30
REMARK    6  A    between atoms: C_14  and  C_16
REMARK    7  A    between atoms: C_22  and  O_28
REMARK    8  A    between atoms: O_28  and  C_29
REMARK    9  A    between atoms: O_30  and  C_31
REMARK   10  A    between atoms: O_32  and  C_33
REMARK                            x       y       z     vdW  Elec       q    Type
REMARK                         _______ _______ _______ _____ _____    ______ ____
ROOT
ATOM      1  N   UNL     1       0.733  -1.923  -0.691  0.00  0.00    -0.304 N 
ATOM      2  C   UNL     1       0.225  -2.804   0.374  0.00  0.00    +0.112 C 
ATOM      3  C   UNL     1      -0.776  -3.771  -0.256  0.00  0.00    +0.054 C 
ATOM      4  C   UNL     1      -0.216  -4.379  -1.515  0.00  0.00    -0.037 A 
ATOM      5  C   UNL     1      -0.789  -5.563  -1.967  0.00  0.00    +0.053 A 
ATOM      6  C   UNL     1      -0.331  -6.170  -3.121  0.00  0.00    +0.162 A 
ATOM      7  C   UNL     1       0.712  -5.591  -3.838  0.00  0.00    +0.162 A 
ATOM      8  C   UNL     1       1.282  -4.416  -3.384  0.00  0.00    +0.055 A 
ATOM      9  C   UNL     1       0.822  -3.812  -2.220  0.00  0.00    -0.019 A 
ATOM     10  C   UNL     1       1.502  -2.547  -1.772  0.00  0.00    +0.121 C 
ENDROOT
BRANCH  10  11
ATOM     11  C   UNL     1       1.601  -1.578  -2.952  0.00  0.00    +0.123 C 
ATOM     12  C   UNL     1       2.579  -2.162  -3.953  0.00  0.00    -0.003 C 
ATOM     13  C   UNL     1       2.122  -2.386  -5.215  0.00  0.00    -0.007 A 
ATOM     14  C   UNL     1       3.004  -2.949  -6.240  0.00  0.00    +0.013 A 
ATOM     15  C   UNL     1       2.515  -3.159  -7.485  0.00  0.00    +0.046 A 
ATOM     16  C   UNL     1       1.185  -2.849  -7.808  0.00  0.00    +0.122 A 
ATOM     17  C   UNL     1       0.309  -2.318  -6.886  0.00  0.00    +0.069 A 
ATOM     18  C   UNL     1       0.728  -2.067  -5.573  0.00  0.00    +0.044 A 
ATOM     19  N   UNL     1      -0.130  -1.552  -4.689  0.00  0.00    -0.284 N 
ATOM     20  C   UNL     1       0.198  -1.292  -3.436  0.00  0.00    +0.226 C 
ATOM     21  O   UNL     1      -0.628  -0.824  -2.674  0.00  0.00    -0.275 OA
ATOM     22  H   UNL     1      -1.035  -1.360  -4.980  0.00  0.00    +0.155 HD
BRANCH  16  23
ATOM     23  O   UNL     1       0.748  -3.079  -9.069  0.00  0.00    -0.495 OA
ATOM     24  C   UNL     1       1.689  -3.630  -9.992  0.00  0.00    +0.277 C 
ENDBRANCH  16  23
ENDBRANCH  10  11
BRANCH   1  25
ATOM     25  C   UNL     1       0.496  -0.596  -0.674  0.00  0.00    +0.133 C 
ATOM     26  S   UNL     1       0.967   0.374  -2.004  0.00  0.00    -0.019 S 
BRANCH  25  28
ATOM     27  C   UNL     1      -0.270   1.422   0.456  0.00  0.00    +0.127 C 
ATOM     28  N   UNL     1      -0.111  -0.033   0.389  0.00  0.00    -0.329 N 
ATOM     29  H   UNL     1      -0.444  -0.591   1.109  0.00  0.00    +0.147 HD
ENDBRANCH  25  28
ENDBRANCH   1  25
BRANCH   7  30
ATOM     30  O   UNL     1       1.169  -6.177  -4.977  0.00  0.00    -0.491 OA
ATOM     31  C   UNL     1       2.321  -5.595  -5.589  0.00  0.00    +0.277 C 
ENDBRANCH   7  30
BRANCH   6  32
ATOM     32  O   UNL     1      -0.897  -7.329  -3.554  0.00  0.00    -0.491 OA
ATOM     33  C   UNL     1      -1.963  -7.864  -2.767  0.00  0.00    +0.277 C 
ENDBRANCH   6  32
TORSDOF 6
