REMARK  Name = ZINC65962575
REMARK  10 active torsions:
REMARK  status: ('A' for Active; 'I' for Inactive)
REMARK    1  A    between atoms: C_1  and  C_2
REMARK    2  A    between atoms: C_2  and  C_3
REMARK    3  A    between atoms: C_2  and  C_4
REMARK    4  A    between atoms: C_4  and  N_5
REMARK    5  A    between atoms: N_5  and  C_6
REMARK    6  A    between atoms: N_5  and  C_7
REMARK    7  A    between atoms: C_7  and  C_8
REMARK    8  A    between atoms: N_10  and  C_11
REMARK    9  A    between atoms: C_15  and  S_17
REMARK   10  A    between atoms: S_17  and  N_20
REMARK                            x       y       z     vdW  Elec       q    Type
REMARK                         _______ _______ _______ _____ _____    ______ ____
ROOT
ATOM      1  C   UNL     1      -0.177   0.133   7.209  0.00  0.00    +0.035 A 
ATOM      2  C   UNL     1      -1.418   0.733   7.039  0.00  0.00    +0.023 A 
ATOM      3  C   UNL     1      -2.151   1.125   8.142  0.00  0.00    +0.004 A 
ATOM      4  C   UNL     1      -1.651   0.920   9.415  0.00  0.00    +0.029 A 
ATOM      5  C   UNL     1      -0.416   0.323   9.587  0.00  0.00    +0.114 A 
ATOM      6  C   UNL     1       0.320  -0.076   8.488  0.00  0.00    +0.052 A 
ENDROOT
BRANCH   1   9
ATOM      7  C   UNL     1       1.320  -1.381   6.149  0.00  0.00    +0.201 C 
ATOM      8  O   UNL     1       1.418  -1.996   7.190  0.00  0.00    -0.278 OA
ATOM      9  N   UNL     1       0.568  -0.265   6.093  0.00  0.00    -0.287 N 
ATOM     10  H   UNL     1       0.543   0.264   5.280  0.00  0.00    +0.155 HD
BRANCH   7  11
ATOM     11  C   UNL     1       2.040  -1.867   4.917  0.00  0.00    +0.018 C 
BRANCH  11  12
ATOM     12  N   UNL     1       2.784  -3.093   5.236  0.00  0.00    +0.384 N 
ATOM     13  C   UNL     1       3.842  -2.784   6.208  0.00  0.00    -0.096 C 
ATOM     14  H   UNL     1       2.155  -3.776   5.630  0.00  0.00    -0.082 HD
BRANCH  12  15
ATOM     15  C   UNL     1       3.388  -3.632   4.011  0.00  0.00    -0.076 C 
BRANCH  15  17
ATOM     16  C   UNL     1       2.993  -5.992   4.729  0.00  0.00    +0.005 C 
ATOM     17  C   UNL     1       4.058  -4.973   4.319  0.00  0.00    -0.034 C 
ATOM     18  C   UNL     1       4.793  -5.474   3.074  0.00  0.00    +0.005 C 
ENDBRANCH  15  17
ENDBRANCH  12  15
ENDBRANCH  11  12
ENDBRANCH   7  11
ENDBRANCH   1   9
BRANCH   5  19
ATOM     19  S   UNL     1       0.218   0.066  11.211  0.00  0.00    +0.100 S 
ATOM     20  O   UNL     1       1.631  -0.014  11.088  0.00  0.00    -0.146 OA
ATOM     21  O   UNL     1      -0.421   1.016  12.052  0.00  0.00    -0.146 OA
BRANCH  19  22
ATOM     22  N   UNL     1      -0.299  -1.427  11.707  0.00  0.00    -0.118 NA
ATOM     23  C   UNL     1       0.029  -1.870  12.877  0.00  0.00    +0.117 C 
ATOM     24  C   UNL     1      -0.441  -3.249  13.334  0.00  0.00    +0.073 C 
ATOM     25  C   UNL     1       0.778  -4.144  13.388  0.00  0.00    +0.008 C 
ATOM     26  C   UNL     1       1.505  -4.103  14.733  0.00  0.00    +0.002 C 
ATOM     27  C   UNL     1       1.641  -2.688  15.297  0.00  0.00    +0.019 C 
ATOM     28  C   UNL     1       2.028  -1.663  14.253  0.00  0.00    +0.102 C 
ATOM     29  N   UNL     1       0.774  -1.133  13.677  0.00  0.00    -0.331 N 
ATOM     30  H   UNL     1       0.497  -0.229  13.893  0.00  0.00    +0.147 HD
ENDBRANCH  19  22
ENDBRANCH   5  19
TORSDOF 7
