REMARK  Name = ZINC63996743
REMARK  7 active torsions:
REMARK  status: ('A' for Active; 'I' for Inactive)
REMARK    1  A    between atoms: C_7  and  C_10
REMARK    2  A    between atoms: C_10  and  C_11
REMARK    3  A    between atoms: N_15  and  C_19
REMARK    4  A    between atoms: C_19  and  C_20
REMARK    5  A    between atoms: N_22  and  C_23
REMARK    6  A    between atoms: N_22  and  C_31
REMARK    7  A    between atoms: C_23  and  C_24
REMARK                            x       y       z     vdW  Elec       q    Type
REMARK                         _______ _______ _______ _____ _____    ______ ____
ROOT
ATOM      1  C   UNL     1       0.638  -4.334  -2.121  0.00  0.00    +0.165 C 
ATOM      2  C   UNL     1      -0.394  -5.431  -1.946  0.00  0.00    +0.244 C 
ATOM      3  O   UNL     1      -0.258  -6.476  -1.347  0.00  0.00    -0.273 OA
ATOM      4  N   UNL     1      -1.494  -5.003  -2.596  0.00  0.00    -0.216 N 
ATOM      5  C   UNL     1      -1.303  -3.801  -3.151  0.00  0.00    +0.310 C 
ATOM      6  O   UNL     1      -2.151  -3.209  -3.789  0.00  0.00    -0.252 OA
ATOM      7  N   UNL     1      -0.064  -3.319  -2.925  0.00  0.00    -0.287 N 
ATOM      8  H   UNL     1       0.296  -2.472  -3.231  0.00  0.00    +0.151 HD
ENDROOT
BRANCH   1   9
ATOM      9  C   UNL     1       1.045  -3.758  -0.763  0.00  0.00    +0.065 C 
BRANCH   9  16
ATOM     10  C   UNL     1       0.908   0.809  -1.186  0.00  0.00    +0.001 A 
ATOM     11  C   UNL     1       2.169   1.396  -1.357  0.00  0.00    +0.002 A 
ATOM     12  C   UNL     1       3.310   0.675  -1.393  0.00  0.00    +0.026 A 
ATOM     13  C   UNL     1       3.271  -0.740  -1.254  0.00  0.00    +0.043 A 
ATOM     14  N   UNL     1       4.220  -1.643  -1.256  0.00  0.00    -0.380 N 
ATOM     15  C   UNL     1       3.609  -2.965  -1.074  0.00  0.00    +0.144 C 
ATOM     16  C   UNL     1       2.121  -2.721  -0.960  0.00  0.00    -0.039 C 
ATOM     17  C   UNL     1       1.950  -1.384  -1.072  0.00  0.00    -0.001 A 
ATOM     18  C   UNL     1       0.759  -0.527  -1.044  0.00  0.00    +0.010 A 
ATOM     19  H   UNL     1       5.169  -1.468  -1.360  0.00  0.00    +0.160 HD
ENDBRANCH   9  16
ENDBRANCH   1   9
BRANCH   4  20
ATOM     20  C   UNL     1      -2.745  -5.761  -2.685  0.00  0.00    +0.213 C 
BRANCH  20  21
ATOM     21  C   UNL     1      -3.635  -5.399  -1.524  0.00  0.00    +0.234 C 
ATOM     22  O   UNL     1      -3.225  -4.662  -0.653  0.00  0.00    -0.274 OA
ATOM     23  N   UNL     1      -4.887  -5.893  -1.455  0.00  0.00    -0.293 N 
BRANCH  23  24
ATOM     24  C   UNL     1      -5.792  -5.450  -0.392  0.00  0.00    +0.076 C 
ATOM     25  C   UNL     1      -5.912  -3.925  -0.428  0.00  0.00    +0.022 C 
ATOM     26  C   UNL     1      -6.857  -3.462   0.683  0.00  0.00    +0.002 C 
ATOM     27  C   UNL     1      -6.302  -3.899   2.040  0.00  0.00    +0.000 C 
ATOM     28  C   UNL     1      -6.183  -5.423   2.075  0.00  0.00    +0.002 C 
ATOM     29  C   UNL     1      -5.237  -5.887   0.965  0.00  0.00    +0.022 C 
ENDBRANCH  23  24
BRANCH  23  30
ATOM     30  C   UNL     1      -5.342  -6.875  -2.443  0.00  0.00    +0.143 C 
BRANCH  30  31
ATOM     31  C   UNL     1      -5.184  -8.264  -1.882  0.00  0.00    -0.030 A 
ATOM     32  C   UNL     1      -3.973  -8.922  -1.998  0.00  0.00    +0.008 A 
ATOM     33  C   UNL     1      -3.827 -10.196  -1.482  0.00  0.00    +0.038 A 
ATOM     34  C   UNL     1      -4.892 -10.813  -0.850  0.00  0.00    +0.123 A 
ATOM     35  C   UNL     1      -6.104 -10.153  -0.735  0.00  0.00    +0.038 A 
ATOM     36  C   UNL     1      -6.247  -8.877  -1.246  0.00  0.00    +0.008 A 
ATOM     37  F   UNL     1      -4.750 -12.059  -0.346  0.00  0.00    -0.205 F 
ENDBRANCH  30  31
ENDBRANCH  23  30
ENDBRANCH  20  21
ENDBRANCH   4  20
TORSDOF 7
