REMARK  Name = ZINC12500052
REMARK  7 active torsions:
REMARK  status: ('A' for Active; 'I' for Inactive)
REMARK    1  A    between atoms: C_1  and  C_2
REMARK    2  A    between atoms: C_8  and  C_10
REMARK    3  A    between atoms: C_10  and  S_11
REMARK    4  A    between atoms: S_11  and  C_12
REMARK    5  A    between atoms: C_17  and  C_28
REMARK    6  A    between atoms: C_28  and  C_29
REMARK    7  A    between atoms: C_28  and  C_30
REMARK                            x       y       z     vdW  Elec       q    Type
REMARK                         _______ _______ _______ _____ _____    ______ ____
ROOT
ATOM      1  C   UNL     1      -7.927   4.133   5.631  0.00  0.00    +0.198 A 
ATOM      2  N   UNL     1      -8.777   3.997   4.639  0.00  0.00    -0.122 NA
ATOM      3  N   UNL     1      -9.971   4.279   5.032  0.00  0.00    -0.128 NA
ATOM      4  C   UNL     1      -9.950   4.611   6.299  0.00  0.00    +0.173 A 
ATOM      5  N   UNL     1      -8.643   4.523   6.728  0.00  0.00    -0.257 N 
ATOM      6  C   UNL     1      -8.318   4.809   8.022  0.00  0.00    +0.121 A 
ATOM      7  N   UNL     1      -9.223   5.166   8.887  0.00  0.00    -0.226 NA
ATOM      8  C   UNL     1     -10.510   5.276   8.567  0.00  0.00    +0.114 A 
ATOM      9  C   UNL     1     -10.986   5.023   7.272  0.00  0.00    +0.056 A 
ATOM     10  C   UNL     1     -12.379   5.177   7.062  0.00  0.00    -0.024 A 
ATOM     11  C   UNL     1     -13.133   5.567   8.116  0.00  0.00    -0.004 A 
ATOM     12  S   UNL     1     -11.981   5.724   9.455  0.00  0.00    -0.073 S 
ATOM     13  C   UNL     1     -14.612   5.796   8.143  0.00  0.00    +0.043 C 
ATOM     14  C   UNL     1     -15.115   5.880   6.694  0.00  0.00    +0.005 C 
ATOM     15  C   UNL     1     -14.527   4.709   5.902  0.00  0.00    +0.005 C 
ATOM     16  C   UNL     1     -13.025   4.916   5.703  0.00  0.00    +0.037 C 
ENDROOT
BRANCH   6  17
ATOM     17  C   UNL     1      -6.879   4.707   8.460  0.00  0.00    +0.049 C 
ATOM     18  C   UNL     1      -6.350   6.101   8.801  0.00  0.00    +0.015 C 
ATOM     19  C   UNL     1      -6.785   3.809   9.695  0.00  0.00    +0.015 C 
ENDBRANCH   6  17
BRANCH   1  20
ATOM     20  S   UNL     1      -6.188   3.857   5.562  0.00  0.00    -0.076 S 
BRANCH  20  21
ATOM     21  C   UNL     1      -5.890   3.359   3.843  0.00  0.00    +0.173 C 
BRANCH  21  29
ATOM     22  C   UNL     1       0.042   1.440  -0.091  0.00  0.00    +0.066 C 
ATOM     23  C   UNL     1      -0.671   1.877   1.163  0.00  0.00    +0.047 A 
ATOM     24  C   UNL     1       0.014   2.080   2.315  0.00  0.00    +0.071 A 
ATOM     25  S   UNL     1      -1.313   2.566   3.409  0.00  0.00    -0.060 S 
ATOM     26  C   UNL     1      -2.608   2.453   2.256  0.00  0.00    +0.165 A 
ATOM     27  N   UNL     1      -1.974   2.076   1.163  0.00  0.00    -0.230 NA
ATOM     28  N   UNL     1      -3.963   2.703   2.438  0.00  0.00    -0.264 N 
ATOM     29  C   UNL     1      -4.421   3.089   3.646  0.00  0.00    +0.229 C 
ATOM     30  O   UNL     1      -3.650   3.219   4.573  0.00  0.00    -0.275 OA
ATOM     31  H   UNL     1      -4.579   2.598   1.697  0.00  0.00    +0.157 HD
ENDBRANCH  21  29
ENDBRANCH  20  21
ENDBRANCH   1  20
TORSDOF 4
