REMARK  Name = ZINC63375096
REMARK  12 active torsions:
REMARK  status: ('A' for Active; 'I' for Inactive)
REMARK    1  A    between atoms: C_1  and  C_2
REMARK    2  A    between atoms: C_2  and  C_3
REMARK    3  A    between atoms: C_3  and  C_4
REMARK    4  A    between atoms: C_4  and  C_5
REMARK    5  A    between atoms: C_5  and  N_6
REMARK    6  A    between atoms: C_7  and  C_9
REMARK    7  A    between atoms: C_9  and  C_11
REMARK    8  A    between atoms: C_9  and  N_15
REMARK    9  A    between atoms: C_11  and  C_12
REMARK   10  A    between atoms: C_12  and  C_13
REMARK   11  A    between atoms: C_12  and  C_14
REMARK   12  A    between atoms: C_18  and  C_34
REMARK                            x       y       z     vdW  Elec       q    Type
REMARK                         _______ _______ _______ _____ _____    ______ ____
ROOT
ATOM      1  N   UNL     1      -5.340  -6.761   0.017  0.00  0.00    -0.212 N 
ATOM      2  C   UNL     1      -5.850  -7.548   0.987  0.00  0.00    +0.249 C 
ATOM      3  O   UNL     1      -5.271  -7.976   1.962  0.00  0.00    -0.273 OA
ATOM      4  C   UNL     1      -7.295  -7.786   0.606  0.00  0.00    +0.136 C 
ATOM      5  C   UNL     1      -7.539  -9.281   0.373  0.00  0.00    +0.139 C 
ATOM      6  C   UNL     1      -8.781  -9.384  -0.504  0.00  0.00    -0.034 C 
ATOM      7  C   UNL     1      -9.652 -10.133   0.166  0.00  0.00    -0.001 A 
ATOM      8  C   UNL     1     -10.992 -10.627  -0.188  0.00  0.00    +0.010 A 
ATOM      9  C   UNL     1     -11.623 -11.375   0.755  0.00  0.00    +0.001 A 
ATOM     10  C   UNL     1     -11.062 -11.677   2.000  0.00  0.00    +0.002 A 
ATOM     11  C   UNL     1      -9.834 -11.268   2.407  0.00  0.00    +0.026 A 
ATOM     12  C   UNL     1      -9.071 -10.476   1.500  0.00  0.00    +0.043 A 
ATOM     13  N   UNL     1      -7.867  -9.970   1.624  0.00  0.00    -0.375 N 
ATOM     14  C   UNL     1      -8.920  -8.676  -1.830  0.00  0.00    +0.052 C 
ATOM     15  C   UNL     1      -8.583  -7.190  -1.589  0.00  0.00    +0.115 C 
ATOM     16  N   UNL     1      -7.410  -7.122  -0.713  0.00  0.00    -0.269 N 
ATOM     17  C   UNL     1      -6.247  -6.497  -0.933  0.00  0.00    +0.313 C 
ATOM     18  O   UNL     1      -6.037  -5.774  -1.887  0.00  0.00    -0.252 OA
ATOM     19  C   UNL     1      -8.262  -7.193   1.633  0.00  0.00    +0.044 C 
ATOM     20  H   UNL     1      -7.292 -10.034   2.403  0.00  0.00    +0.160 HD
ENDROOT
BRANCH   1  21
ATOM     21  C   UNL     1      -3.966  -6.254   0.006  0.00  0.00    +0.171 C 
BRANCH  21  23
ATOM     22  N   UNL     1      -2.828  -4.058   0.007  0.00  0.00    -0.314 N 
ATOM     23  C   UNL     1      -3.986  -4.748   0.015  0.00  0.00    +0.234 C 
ATOM     24  O   UNL     1      -5.044  -4.156   0.028  0.00  0.00    -0.274 OA
ATOM     25  H   UNL     1      -1.982  -4.531  -0.003  0.00  0.00    +0.149 HD
BRANCH  22  26
ATOM     26  C   UNL     1      -2.848  -2.593   0.015  0.00  0.00    +0.104 C 
BRANCH  26  27
ATOM     27  C   UNL     1      -1.413  -2.063   0.004  0.00  0.00    +0.019 C 
BRANCH  27  28
ATOM     28  C   UNL     1      -1.433  -0.534   0.013  0.00  0.00    +0.001 C 
BRANCH  28  30
ATOM     29  C   UNL     1      -0.019   1.526   0.010  0.00  0.00    +0.004 C 
ATOM     30  C   UNL     1       0.002  -0.004   0.002  0.00  0.00    -0.003 C 
ENDBRANCH  28  30
ENDBRANCH  27  28
ENDBRANCH  26  27
ENDBRANCH  22  26
ENDBRANCH  21  23
BRANCH  21  31
ATOM     31  C   UNL     1      -3.249  -6.748  -1.252  0.00  0.00    +0.035 C 
BRANCH  31  32
ATOM     32  C   UNL     1      -3.118  -8.271  -1.201  0.00  0.00    -0.015 C 
ATOM     33  C   UNL     1      -2.515  -8.776  -2.513  0.00  0.00    +0.007 C 
ATOM     34  C   UNL     1      -2.208  -8.666  -0.036  0.00  0.00    +0.007 C 
ENDBRANCH  31  32
ENDBRANCH  21  31
ENDBRANCH   1  21
TORSDOF 8
