REMARK  Name = ZINC41684295
REMARK  6 active torsions:
REMARK  status: ('A' for Active; 'I' for Inactive)
REMARK    1  A    between atoms: C_1  and  C_2
REMARK    2  A    between atoms: C_7  and  C_9
REMARK    3  A    between atoms: C_7  and  C_10
REMARK    4  A    between atoms: C_11  and  C_13
REMARK    5  A    between atoms: C_13  and  C_18
REMARK    6  A    between atoms: N_19  and  O_20
REMARK                            x       y       z     vdW  Elec       q    Type
REMARK                         _______ _______ _______ _____ _____    ______ ____
ROOT
ATOM      1  C   UNL     1      -0.180  -2.212  -3.364  0.00  0.00    +0.105 C 
ATOM      2  C   UNL     1      -0.541  -3.338  -4.348  0.00  0.00    +0.024 C 
ATOM      3  C   UNL     1       0.201  -3.029  -5.664  0.00  0.00    +0.001 C 
ATOM      4  C   UNL     1       1.391  -2.138  -5.229  0.00  0.00    +0.001 C 
ATOM      5  C   UNL     1       0.769  -1.257  -4.116  0.00  0.00    +0.024 C 
ENDROOT
BRANCH   1  15
ATOM      6  C   UNL     1       0.154   1.558  -0.038  0.00  0.00    +0.039 C 
ATOM      7  C   UNL     1       0.117   0.029  -0.028  0.00  0.00    +0.133 C 
ATOM      8  C   UNL     1       0.807  -0.508  -1.287  0.00  0.00    +0.139 C 
ATOM      9  N   UNL     1       0.925  -1.970  -1.164  0.00  0.00    -0.295 N 
ATOM     10  C   UNL     1       1.505  -2.515   0.074  0.00  0.00    +0.142 C 
ATOM     11  C   UNL     1       0.781  -1.880   1.267  0.00  0.00    +0.080 C 
ATOM     12  O   UNL     1       0.803  -0.457   1.129  0.00  0.00    -0.368 OA
ATOM     13  C   UNL     1       1.488  -2.278   2.564  0.00  0.00    +0.043 C 
ATOM     14  C   UNL     1      -0.668  -2.367   1.304  0.00  0.00    +0.043 C 
ATOM     15  C   UNL     1       0.516  -2.785  -2.156  0.00  0.00    +0.229 C 
ATOM     16  O   UNL     1       0.707  -3.980  -2.076  0.00  0.00    -0.275 OA
ENDBRANCH   1  15
BRANCH   1  17
ATOM     17  C   UNL     1      -1.425  -1.475  -2.941  0.00  0.00    +0.147 C 
ATOM     18  N   UNL     1      -1.606  -0.250  -3.307  0.00  0.00    -0.076 NA
ATOM     19  N   UNL     1      -2.369  -2.109  -2.164  0.00  0.00    -0.343 N 
ATOM     20  H   UNL     1      -2.270  -3.050  -1.950  0.00  0.00    +0.144 HD
ATOM     21  H   UNL     1      -3.134  -1.614  -1.831  0.00  0.00    +0.144 HD
BRANCH  18  22
ATOM     22  O   UNL     1      -2.775   0.443  -2.909  0.00  0.00    -0.408 OA
ATOM     23  H   UNL     1      -2.822   1.353  -3.231  0.00  0.00    +0.328 HD
ENDBRANCH  18  22
ENDBRANCH   1  17
TORSDOF 3
