REMARK  Name = ZINC39664552
REMARK  12 active torsions:
REMARK  status: ('A' for Active; 'I' for Inactive)
REMARK    1  A    between atoms: C_1  and  C_2
REMARK    2  A    between atoms: C_2  and  C_3
REMARK    3  A    between atoms: C_3  and  C_4
REMARK    4  A    between atoms: C_4  and  C_6
REMARK    5  A    between atoms: C_4  and  C_7
REMARK    6  A    between atoms: C_11  and  C_20
REMARK    7  A    between atoms: N_22  and  C_23
REMARK    8  A    between atoms: C_23  and  C_25
REMARK    9  A    between atoms: C_23  and  C_29
REMARK   10  A    between atoms: C_25  and  N_26
REMARK   11  A    between atoms: N_26  and  C_27
REMARK   12  A    between atoms: N_26  and  C_28
REMARK                            x       y       z     vdW  Elec       q    Type
REMARK                         _______ _______ _______ _____ _____    ______ ____
ROOT
ATOM      1  C   UNL     1       0.506  -2.462   2.260  0.00  0.00    +0.218 C 
ATOM      2  O   UNL     1       0.889  -1.611   3.034  0.00  0.00    -0.275 OA
ATOM      3  N   UNL     1       0.809  -3.757   2.479  0.00  0.00    -0.300 N 
ATOM      4  C   UNL     1       0.441  -4.929   1.650  0.00  0.00    +0.121 C 
ATOM      5  C   UNL     1       1.694  -5.832   1.672  0.00  0.00    +0.100 C 
ATOM      6  C   UNL     1       2.441  -5.436   2.957  0.00  0.00    -0.004 C 
ATOM      7  C   UNL     1       1.592  -4.330   3.600  0.00  0.00    +0.115 C 
ATOM      8  C   UNL     1       3.828  -4.899   2.618  0.00  0.00    -0.010 C 
ATOM      9  C   UNL     1       4.572  -4.566   3.915  0.00  0.00    -0.082 C 
ATOM     10  N   UNL     1       4.681  -5.773   4.742  0.00  0.00    +0.379 N 
ATOM     11  C   UNL     1       3.345  -6.230   5.141  0.00  0.00    -0.082 C 
ATOM     12  C   UNL     1       2.549  -6.634   3.896  0.00  0.00    -0.010 C 
ATOM     13  H   UNL     1       5.141  -6.500   4.215  0.00  0.00    -0.086 HD
ATOM     14  H   UNL     1       5.224  -5.566   5.567  0.00  0.00    -0.086 HD
ENDROOT
BRANCH   5  15
ATOM     15  C   UNL     1       1.294  -7.284   1.722  0.00  0.00    +0.219 C 
ATOM     16  O   UNL     1       0.280  -7.614   2.299  0.00  0.00    -0.275 OA
ATOM     17  N   UNL     1       2.062  -8.216   1.123  0.00  0.00    -0.310 N 
ATOM     18  H   UNL     1       2.912  -7.964   0.730  0.00  0.00    +0.149 HD
BRANCH  17  19
ATOM     19  C   UNL     1       1.614  -9.610   1.067  0.00  0.00    +0.087 C 
BRANCH  19  20
ATOM     20  C   UNL     1       2.812 -10.520   0.979  0.00  0.00    -0.029 A 
ATOM     21  C   UNL     1       3.892 -10.165   0.193  0.00  0.00    +0.005 A 
ATOM     22  C   UNL     1       4.991 -11.000   0.111  0.00  0.00    +0.000 A 
ATOM     23  C   UNL     1       5.010 -12.189   0.817  0.00  0.00    +0.000 A 
ATOM     24  C   UNL     1       3.930 -12.543   1.603  0.00  0.00    +0.000 A 
ATOM     25  C   UNL     1       2.833 -11.706   1.688  0.00  0.00    +0.005 A 
ENDBRANCH  19  20
BRANCH  19  26
ATOM     26  C   UNL     1       0.728  -9.811  -0.164  0.00  0.00    -0.052 C 
BRANCH  26  27
ATOM     27  N   UNL     1       0.169 -11.170  -0.147  0.00  0.00    +0.377 N 
ATOM     28  C   UNL     1      -0.752 -11.307   0.989  0.00  0.00    -0.097 C 
ATOM     29  C   UNL     1      -0.558 -11.415  -1.400  0.00  0.00    -0.097 C 
ATOM     30  H   UNL     1       0.918 -11.840  -0.056  0.00  0.00    -0.083 HD
ENDBRANCH  26  27
ENDBRANCH  19  26
ENDBRANCH  17  19
ENDBRANCH   5  15
BRANCH   1  31
ATOM     31  C   UNL     1      -0.307  -2.072   1.053  0.00  0.00    +0.072 C 
ATOM     32  C   UNL     1      -1.670  -2.766   1.111  0.00  0.00    +0.017 C 
BRANCH  31  33
ATOM     33  C   UNL     1      -0.507  -0.556   1.041  0.00  0.00    +0.012 C 
BRANCH  33  35
ATOM     34  C   UNL     1      -1.425   1.371  -0.259  0.00  0.00    +0.004 C 
ATOM     35  C   UNL     1      -1.225  -0.146  -0.247  0.00  0.00    -0.003 C 
ENDBRANCH  33  35
ENDBRANCH  31  33
ENDBRANCH   1  31
TORSDOF 8
