REMARK  Name = ZINC12023585
REMARK  6 active torsions:
REMARK  status: ('A' for Active; 'I' for Inactive)
REMARK    1  A    between atoms: C_4  and  C_27
REMARK    2  A    between atoms: C_5  and  C_7
REMARK    3  A    between atoms: C_7  and  N_8
REMARK    4  A    between atoms: C_14  and  C_16
REMARK    5  A    between atoms: C_16  and  C_17
REMARK    6  A    between atoms: N_19  and  C_20
REMARK                            x       y       z     vdW  Elec       q    Type
REMARK                         _______ _______ _______ _____ _____    ______ ____
ROOT
ATOM      1  N   UNL     1       1.228  -2.632   1.480  0.00  0.00    +0.391 N 
ATOM      2  C   UNL     1       2.474  -2.095   2.049  0.00  0.00    -0.058 C 
ATOM      3  C   UNL     1       2.489  -2.372   3.553  0.00  0.00    +0.085 C 
ATOM      4  N   UNL     1       2.205  -3.783   3.802  0.00  0.00    -0.318 N 
ATOM      5  C   UNL     1       1.647  -4.579   2.883  0.00  0.00    +0.200 C 
ATOM      6  O   UNL     1       1.420  -5.734   3.174  0.00  0.00    -0.278 OA
ATOM      7  C   UNL     1       1.288  -4.099   1.505  0.00  0.00    +0.028 C 
ATOM      8  H   UNL     1       2.431  -4.158   4.668  0.00  0.00    +0.149 HD
ATOM      9  H   UNL     1       0.442  -2.317   2.027  0.00  0.00    -0.080 HD
ENDROOT
BRANCH   1  10
ATOM     10  C   UNL     1       1.080  -2.169   0.094  0.00  0.00    -0.041 C 
BRANCH  10  15
ATOM     11  C   UNL     1       0.389   1.353   1.265  0.00  0.00    +0.000 A 
ATOM     12  C   UNL     1       0.366   2.042   0.067  0.00  0.00    +0.001 A 
ATOM     13  C   UNL     1       0.573   1.369  -1.122  0.00  0.00    +0.012 A 
ATOM     14  C   UNL     1       0.804   0.006  -1.113  0.00  0.00    +0.056 A 
ATOM     15  C   UNL     1       0.829  -0.683   0.084  0.00  0.00    -0.052 A 
ATOM     16  C   UNL     1       0.620  -0.010   1.274  0.00  0.00    +0.002 A 
BRANCH  14  17
ATOM     17  C   UNL     1       1.030  -0.729  -2.410  0.00  0.00    +0.418 C 
ATOM     18  F   UNL     1       0.833   0.148  -3.483  0.00  0.00    -0.166 F 
ATOM     19  F   UNL     1       2.338  -1.222  -2.445  0.00  0.00    -0.166 F 
ATOM     20  F   UNL     1       0.127  -1.793  -2.506  0.00  0.00    -0.166 F 
ENDBRANCH  14  17
ENDBRANCH  10  15
ENDBRANCH   1  10
BRANCH   7  21
ATOM     21  C   UNL     1      -0.075  -4.669   1.108  0.00  0.00    +0.089 C 
BRANCH  21  22
ATOM     22  C   UNL     1      -1.109  -4.249   2.121  0.00  0.00    +0.212 C 
ATOM     23  O   UNL     1      -0.800  -3.514   3.035  0.00  0.00    -0.276 OA
ATOM     24  N   UNL     1      -2.378  -4.689   2.011  0.00  0.00    -0.312 N 
ATOM     25  H   UNL     1      -2.626  -5.277   1.280  0.00  0.00    +0.149 HD
BRANCH  24  26
ATOM     26  C   UNL     1      -3.384  -4.280   2.995  0.00  0.00    +0.073 C 
ATOM     27  C   UNL     1      -3.260  -5.183   4.240  0.00  0.00    +0.022 C 
ATOM     28  C   UNL     1      -3.895  -4.477   5.407  0.00  0.00    +0.002 C 
ATOM     29  C   UNL     1      -5.367  -4.884   5.612  0.00  0.00    +0.000 C 
ATOM     30  C   UNL     1      -6.146  -4.996   4.287  0.00  0.00    +0.000 C 
ATOM     31  C   UNL     1      -5.820  -3.880   3.331  0.00  0.00    +0.002 C 
ATOM     32  C   UNL     1      -4.702  -4.358   2.382  0.00  0.00    +0.022 C 
ENDBRANCH  24  26
ENDBRANCH  21  22
ENDBRANCH   7  21
TORSDOF 6
