REMARK  Name = ZINC35862507
REMARK  8 active torsions:
REMARK  status: ('A' for Active; 'I' for Inactive)
REMARK    1  A    between atoms: C_1  and  C_2
REMARK    2  A    between atoms: C_5  and  C_8
REMARK    3  A    between atoms: C_12  and  O_24
REMARK    4  A    between atoms: C_19  and  C_21
REMARK    5  A    between atoms: O_24  and  C_25
REMARK    6  A    between atoms: C_25  and  C_26
REMARK    7  A    between atoms: C_28  and  C_31
REMARK    8  A    between atoms: N_33  and  C_34
REMARK                            x       y       z     vdW  Elec       q    Type
REMARK                         _______ _______ _______ _____ _____    ______ ____
ROOT
ATOM      1  C   UNL     1      -1.155  -2.544   0.880  0.00  0.00    +0.137 C 
ATOM      2  C   UNL     1      -2.439  -3.329   0.974  0.00  0.00    -0.016 A 
ATOM      3  C   UNL     1      -3.537  -2.858   0.268  0.00  0.00    +0.051 A 
ATOM      4  C   UNL     1      -4.741  -3.540   0.307  0.00  0.00    +0.122 A 
ATOM      5  C   UNL     1      -4.847  -4.703   1.056  0.00  0.00    +0.046 A 
ATOM      6  C   UNL     1      -3.755  -5.165   1.760  0.00  0.00    +0.007 A 
ATOM      7  C   UNL     1      -2.547  -4.477   1.726  0.00  0.00    -0.040 A 
ATOM      8  C   UNL     1      -1.408  -5.029   2.542  0.00  0.00    +0.054 C 
ATOM      9  C   UNL     1      -0.070  -4.483   2.047  0.00  0.00    +0.113 C 
ATOM     10  N   UNL     1      -0.207  -3.026   1.890  0.00  0.00    -0.290 N 
ATOM     11  C   UNL     1       0.511  -2.170   2.643  0.00  0.00    +0.219 C 
ATOM     12  O   UNL     1       0.328  -0.975   2.544  0.00  0.00    -0.275 OA
ENDROOT
BRANCH   1  17
ATOM     13  C   UNL     1      -2.249   3.056   1.794  0.00  0.00    +0.044 C 
ATOM     14  C   UNL     1      -1.964   1.596   1.556  0.00  0.00    -0.050 A 
ATOM     15  C   UNL     1      -2.352   0.654   2.490  0.00  0.00    +0.004 A 
ATOM     16  C   UNL     1      -2.091  -0.685   2.272  0.00  0.00    +0.006 A 
ATOM     17  C   UNL     1      -1.441  -1.083   1.118  0.00  0.00    -0.023 A 
ATOM     18  C   UNL     1      -1.053  -0.142   0.183  0.00  0.00    +0.006 A 
ATOM     19  C   UNL     1      -1.319   1.198   0.400  0.00  0.00    +0.004 A 
ENDBRANCH   1  17
BRANCH  11  20
ATOM     20  C   UNL     1       1.542  -2.697   3.607  0.00  0.00    +0.075 C 
ATOM     21  C   UNL     1       1.256  -2.541   5.102  0.00  0.00    +0.013 C 
ATOM     22  C   UNL     1       2.325  -1.674   4.434  0.00  0.00    +0.013 C 
ENDBRANCH  11  20
BRANCH   4  23
ATOM     23  O   UNL     1      -5.814  -3.074  -0.385  0.00  0.00    -0.483 OA
BRANCH  23  24
ATOM     24  C   UNL     1      -7.022  -3.832  -0.297  0.00  0.00    +0.324 C 
BRANCH  24  25
ATOM     25  C   UNL     1      -8.093  -3.167  -1.123  0.00  0.00    +0.234 A 
ATOM     26  N   UNL     1      -8.335  -3.408  -2.377  0.00  0.00    -0.206 NA
ATOM     27  C   UNL     1      -9.370  -2.620  -2.776  0.00  0.00    +0.164 A 
ATOM     28  C   UNL     1      -9.749  -1.881  -1.698  0.00  0.00    +0.230 A 
ATOM     29  O   UNL     1      -8.950  -2.237  -0.679  0.00  0.00    -0.444 OA
BRANCH  27  30
ATOM     30  C   UNL     1      -9.967  -2.574  -4.123  0.00  0.00    +0.270 C 
ATOM     31  O   UNL     1     -10.893  -1.820  -4.352  0.00  0.00    -0.268 OA
ATOM     32  N   UNL     1      -9.486  -3.367  -5.101  0.00  0.00    -0.280 N 
ATOM     33  H   UNL     1      -8.797  -4.020  -4.901  0.00  0.00    +0.155 HD
BRANCH  32  34
ATOM     34  C   UNL     1      -9.980  -3.249  -6.404  0.00  0.00    +0.034 A 
ATOM     35  C   UNL     1     -10.080  -4.372  -7.214  0.00  0.00    +0.023 A 
ATOM     36  C   UNL     1     -10.569  -4.252  -8.500  0.00  0.00    +0.002 A 
ATOM     37  C   UNL     1     -10.959  -3.016  -8.981  0.00  0.00    +0.000 A 
ATOM     38  C   UNL     1     -10.861  -1.895  -8.176  0.00  0.00    +0.002 A 
ATOM     39  C   UNL     1     -10.377  -2.009  -6.888  0.00  0.00    +0.023 A 
ENDBRANCH  32  34
ENDBRANCH  27  30
ENDBRANCH  24  25
ENDBRANCH  23  24
ENDBRANCH   4  23
TORSDOF 7
