REMARK  Name = ZINC09926331
REMARK  10 active torsions:
REMARK  status: ('A' for Active; 'I' for Inactive)
REMARK    1  A    between atoms: C_1  and  C_2
REMARK    2  A    between atoms: C_7  and  O_8
REMARK    3  A    between atoms: O_8  and  C_9
REMARK    4  A    between atoms: C_9  and  C_10
REMARK    5  A    between atoms: C_10  and  N_11
REMARK    6  A    between atoms: C_18  and  C_21
REMARK    7  A    between atoms: C_18  and  O_33
REMARK    8  A    between atoms: C_21  and  C_22
REMARK    9  A    between atoms: C_22  and  C_24
REMARK   10  A    between atoms: C_28  and  N_30
REMARK                            x       y       z     vdW  Elec       q    Type
REMARK                         _______ _______ _______ _____ _____    ______ ____
ROOT
ATOM      1  N   UNL     1      -6.110   4.715  -1.835  0.00  0.00    -0.265 N 
ATOM      2  C   UNL     1      -6.913   3.778  -1.185  0.00  0.00    +0.043 A 
ATOM      3  C   UNL     1      -8.159   3.253  -1.525  0.00  0.00    +0.024 A 
ATOM      4  C   UNL     1      -8.764   2.322  -0.708  0.00  0.00    +0.002 A 
ATOM      5  C   UNL     1      -8.142   1.901   0.454  0.00  0.00    +0.000 A 
ATOM      6  C   UNL     1      -6.905   2.417   0.798  0.00  0.00    +0.009 A 
ATOM      7  C   UNL     1      -6.299   3.347  -0.016  0.00  0.00    +0.015 A 
ATOM      8  C   UNL     1      -4.984   4.088   0.071  0.00  0.00    +0.175 C 
ATOM      9  C   UNL     1      -4.967   4.954  -1.171  0.00  0.00    +0.257 C 
ATOM     10  O   UNL     1      -4.087   5.720  -1.503  0.00  0.00    -0.272 OA
ENDROOT
BRANCH   8  11
ATOM     11  O   UNL     1      -4.940   4.899   1.247  0.00  0.00    -0.374 OA
ATOM     12  H   UNL     1      -4.130   5.419   1.336  0.00  0.00    +0.211 HD
ENDBRANCH   8  11
BRANCH   1  13
ATOM     13  C   UNL     1      -6.471   5.364  -3.098  0.00  0.00    +0.154 C 
BRANCH  13  14
ATOM     14  C   UNL     1      -5.951   4.528  -4.269  0.00  0.00    +0.248 C 
BRANCH  14  15
ATOM     15  O   UNL     1      -6.621   3.266  -4.287  0.00  0.00    -0.490 OA
BRANCH  15  22
ATOM     16  C   UNL     1      -7.934   0.765  -4.342  0.00  0.00    +0.047 C 
ATOM     17  C   UNL     1      -6.883   1.154  -5.350  0.00  0.00    -0.009 A 
ATOM     18  C   UNL     1      -6.527   0.272  -6.352  0.00  0.00    +0.007 A 
ATOM     19  C   UNL     1      -5.563   0.628  -7.277  0.00  0.00    +0.000 A 
ATOM     20  C   UNL     1      -4.953   1.867  -7.202  0.00  0.00    +0.004 A 
ATOM     21  C   UNL     1      -5.309   2.754  -6.205  0.00  0.00    +0.046 A 
ATOM     22  C   UNL     1      -6.272   2.397  -5.272  0.00  0.00    +0.123 A 
ENDBRANCH  15  22
ENDBRANCH  14  15
ENDBRANCH  13  14
ENDBRANCH   1  13
BRANCH   8  23
ATOM     23  C   UNL     1      -3.813   3.105   0.055  0.00  0.00    +0.129 C 
BRANCH  23  24
ATOM     24  C   UNL     1      -2.514   3.870   0.046  0.00  0.00    +0.167 C 
ATOM     25  O   UNL     1      -2.526   5.082   0.052  0.00  0.00    -0.292 OA
BRANCH  24  26
ATOM     26  C   UNL     1      -1.234   3.146   0.031  0.00  0.00    +0.020 A 
ATOM     27  C   UNL     1      -1.217   1.747   0.017  0.00  0.00    +0.011 A 
ATOM     28  C   UNL     1      -0.013   1.076   0.008  0.00  0.00    +0.003 A 
ATOM     29  C   UNL     1       1.178   1.782   0.000  0.00  0.00    +0.033 A 
ATOM     30  C   UNL     1       1.169   3.166   0.007  0.00  0.00    +0.127 A 
ATOM     31  C   UNL     1      -0.027   3.852   0.022  0.00  0.00    +0.044 A 
BRANCH  30  32
ATOM     32  N   UNL     1       2.448   3.912  -0.002  0.00  0.00    +0.056 N 
ATOM     33  O   UNL     1       3.505   3.308  -0.015  0.00  0.00    -0.126 OA
ATOM     34  O   UNL     1       2.442   5.130   0.004  0.00  0.00    -0.126 OA
ENDBRANCH  30  32
ENDBRANCH  24  26
ENDBRANCH  23  24
ENDBRANCH   8  23
TORSDOF 9
