REMARK  Name = ZINC39456074
REMARK  6 active torsions:
REMARK  status: ('A' for Active; 'I' for Inactive)
REMARK    1  A    between atoms: C_1  and  C_2
REMARK    2  A    between atoms: C_2  and  O_3
REMARK    3  A    between atoms: O_3  and  C_4
REMARK    4  A    between atoms: C_23  and  O_26
REMARK    5  A    between atoms: O_26  and  C_27
REMARK    6  A    between atoms: C_27  and  C_28
REMARK                            x       y       z     vdW  Elec       q    Type
REMARK                         _______ _______ _______ _____ _____    ______ ____
ROOT
ATOM      1  C   UNL     1      -1.498  -1.846   0.006  0.00  0.00    +0.130 A 
ATOM      2  C   UNL     1      -0.400  -2.679  -0.003  0.00  0.00    +0.046 A 
ATOM      3  C   UNL     1      -0.542  -4.061  -0.009  0.00  0.00    +0.006 A 
ATOM      4  C   UNL     1      -1.766  -4.659  -0.006  0.00  0.00    +0.028 A 
ATOM      5  C   UNL     1      -2.930  -3.871   0.002  0.00  0.00    +0.075 A 
ATOM      6  C   UNL     1      -2.789  -2.412   0.016  0.00  0.00    +0.043 A 
ATOM      7  C   UNL     1      -3.944  -1.619   0.033  0.00  0.00    +0.029 A 
ATOM      8  C   UNL     1      -5.173  -2.265   0.039  0.00  0.00    +0.068 A 
ATOM      9  C   UNL     1      -5.236  -3.684   0.029  0.00  0.00    +0.100 A 
ATOM     10  N   UNL     1      -4.143  -4.423   0.003  0.00  0.00    -0.244 NA
ATOM     11  C   UNL     1      -6.568  -4.315   0.032  0.00  0.00    +0.083 A 
ATOM     12  C   UNL     1      -7.702  -3.529   0.050  0.00  0.00    +0.120 A 
ATOM     13  N   UNL     1      -7.611  -2.141   0.060  0.00  0.00    -0.243 N 
ATOM     14  C   UNL     1      -6.429  -1.500   0.056  0.00  0.00    +0.270 A 
ATOM     15  O   UNL     1      -6.398  -0.283   0.067  0.00  0.00    -0.266 OA
ATOM     16  I   UNL     1      -9.337  -1.035   0.081  0.00  0.00    +0.068 I 
ATOM     17  C   UNL     1      -8.979  -4.136   0.062  0.00  0.00    +0.186 C 
ATOM     18  O   UNL     1      -9.975  -3.443   0.028  0.00  0.00    -0.290 OA
ATOM     19  C   UNL     1      -9.115  -5.636   0.116  0.00  0.00    +0.132 C 
ATOM     20  C   UNL     1      -7.902  -6.281  -0.564  0.00  0.00    +0.211 C 
ATOM     21  N   UNL     1      -6.684  -5.692   0.014  0.00  0.00    -0.315 N 
ATOM     22  H   UNL     1      -5.980  -6.255   0.372  0.00  0.00    +0.149 HD
ENDROOT
BRANCH   1  23
ATOM     23  O   UNL     1      -1.339  -0.499   0.012  0.00  0.00    -0.492 OA
BRANCH  23  25
ATOM     24  C   UNL     1      -0.019   1.526   0.010  0.00  0.00    +0.048 C 
ATOM     25  C   UNL     1       0.002  -0.004   0.002  0.00  0.00    +0.226 C 
ENDBRANCH  23  25
ENDBRANCH   1  23
BRANCH  20  26
ATOM     26  O   UNL     1      -7.943  -6.024  -1.969  0.00  0.00    -0.359 OA
BRANCH  26  27
ATOM     27  C   UNL     1      -7.064  -6.848  -2.736  0.00  0.00    +0.159 C 
ATOM     28  C   UNL     1      -7.191  -6.488  -4.218  0.00  0.00    +0.034 C 
ENDBRANCH  26  27
ENDBRANCH  20  26
TORSDOF 4
