REMARK  Name = ZINC35641965
REMARK  10 active torsions:
REMARK  status: ('A' for Active; 'I' for Inactive)
REMARK    1  A    between atoms: C_1  and  C_2
REMARK    2  A    between atoms: C_2  and  O_3
REMARK    3  A    between atoms: O_3  and  C_4
REMARK    4  A    between atoms: C_4  and  C_6
REMARK    5  A    between atoms: C_7  and  C_24
REMARK    6  A    between atoms: N_8  and  C_21
REMARK    7  A    between atoms: C_12  and  C_14
REMARK    8  A    between atoms: C_21  and  C_22
REMARK    9  A    between atoms: C_24  and  N_25
REMARK   10  A    between atoms: C_31  and  C_33
REMARK                            x       y       z     vdW  Elec       q    Type
REMARK                         _______ _______ _______ _____ _____    ______ ____
ROOT
ATOM      1  C   UNL     1      -2.696  -2.288   0.264  0.00  0.00    +0.080 C 
ATOM      2  C   UNL     1      -2.864  -3.592  -0.044  0.00  0.00    +0.041 C 
ATOM      3  N   UNL     1      -4.109  -4.112  -0.251  0.00  0.00    -0.254 N 
ATOM      4  C   UNL     1      -5.237  -3.395  -0.170  0.00  0.00    +0.307 C 
ATOM      5  O   UNL     1      -6.301  -3.947  -0.371  0.00  0.00    -0.252 OA
ATOM      6  N   UNL     1      -5.230  -2.081   0.129  0.00  0.00    -0.288 N 
ATOM      7  C   UNL     1      -3.936  -1.425   0.377  0.00  0.00    +0.144 C 
ATOM      8  H   UNL     1      -6.059  -1.580   0.182  0.00  0.00    +0.151 HD
ENDROOT
BRANCH   7   9
ATOM      9  C   UNL     1      -3.801  -0.288  -0.603  0.00  0.00    -0.021 A 
ATOM     10  C   UNL     1      -4.088  -0.490  -1.940  0.00  0.00    +0.006 A 
ATOM     11  C   UNL     1      -3.965   0.552  -2.839  0.00  0.00    +0.002 A 
ATOM     12  C   UNL     1      -3.553   1.798  -2.402  0.00  0.00    +0.020 A 
ATOM     13  C   UNL     1      -3.265   2.001  -1.065  0.00  0.00    +0.041 A 
ATOM     14  C   UNL     1      -3.395   0.958  -0.164  0.00  0.00    +0.025 A 
ATOM     15 CL   UNL     1      -2.748   3.564  -0.515  0.00  0.00    -0.084 Cl
ENDBRANCH   7   9
BRANCH   1  16
ATOM     16  C   UNL     1      -1.406  -1.748   0.480  0.00  0.00    +0.339 C 
ATOM     17  O   UNL     1      -1.032  -1.499   1.611  0.00  0.00    -0.245 OA
BRANCH  16  18
ATOM     18  O   UNL     1      -0.591  -1.509  -0.568  0.00  0.00    -0.462 OA
BRANCH  18  20
ATOM     19  C   UNL     1       1.473  -0.761  -1.581  0.00  0.00    +0.048 C 
ATOM     20  C   UNL     1       0.697  -0.963  -0.277  0.00  0.00    +0.229 C 
ENDBRANCH  18  20
ENDBRANCH  16  18
ENDBRANCH   1  16
BRANCH   3  21
ATOM     21  C   UNL     1      -4.218  -5.535  -0.582  0.00  0.00    +0.141 C 
BRANCH  21  22
ATOM     22  C   UNL     1      -4.354  -6.337   0.687  0.00  0.00    -0.015 C 
ATOM     23  C   UNL     1      -5.368  -7.152   0.841  0.00  0.00    +0.005 C 
ENDBRANCH  21  22
ENDBRANCH   3  21
BRANCH   2  24
ATOM     24  C   UNL     1      -1.657  -4.488  -0.161  0.00  0.00    +0.136 C 
BRANCH  24  25
ATOM     25  N   UNL     1      -1.671  -5.473   0.929  0.00  0.00    -0.294 NA
ATOM     26  C   UNL     1      -1.504  -4.818   2.233  0.00  0.00    +0.104 C 
ATOM     27  C   UNL     1      -1.704  -5.849   3.349  0.00  0.00    +0.123 C 
ATOM     28  N   UNL     1      -0.802  -6.984   3.103  0.00  0.00    -0.293 N 
ATOM     29  C   UNL     1      -0.815  -7.607   1.770  0.00  0.00    +0.123 C 
ATOM     30  C   UNL     1      -0.649  -6.507   0.717  0.00  0.00    +0.104 C 
ATOM     31  C   UNL     1       0.013  -7.442   4.073  0.00  0.00    +0.282 C 
ATOM     32  O   UNL     1      -0.038  -6.961   5.189  0.00  0.00    -0.267 OA
BRANCH  31  33
ATOM     33  C   UNL     1       0.964  -8.521   3.783  0.00  0.00    +0.189 A 
ATOM     34  C   UNL     1       1.932  -8.985   4.626  0.00  0.00    +0.054 A 
ATOM     35  C   UNL     1       2.602 -10.013   3.945  0.00  0.00    +0.042 A 
ATOM     36  C   UNL     1       2.020 -10.131   2.731  0.00  0.00    +0.196 A 
ATOM     37  O   UNL     1       1.030  -9.233   2.639  0.00  0.00    -0.458 OA
ENDBRANCH  31  33
ENDBRANCH  24  25
ENDBRANCH   2  24
TORSDOF 9
