REMARK  Name = ZINC03877700
REMARK  9 active torsions:
REMARK  status: ('A' for Active; 'I' for Inactive)
REMARK    1  A    between atoms: C_1  and  C_2
REMARK    2  A    between atoms: C_2  and  O_3
REMARK    3  A    between atoms: O_3  and  C_4
REMARK    4  A    between atoms: C_4  and  C_6
REMARK    5  A    between atoms: C_7  and  C_32
REMARK    6  A    between atoms: C_12  and  N_19
REMARK    7  A    between atoms: N_19  and  S_20
REMARK    8  A    between atoms: S_20  and  C_23
REMARK    9  A    between atoms: C_27  and  N_29
REMARK                            x       y       z     vdW  Elec       q    Type
REMARK                         _______ _______ _______ _____ _____    ______ ____
ROOT
ATOM      1  C   UNL     1      -4.945   5.194  -2.535  0.00  0.00    +0.107 A 
ATOM      2  C   UNL     1      -5.452   4.776  -3.729  0.00  0.00    +0.117 A 
ATOM      3  O   UNL     1      -4.459   4.639  -4.614  0.00  0.00    -0.459 OA
ATOM      4  C   UNL     1      -3.268   4.953  -4.066  0.00  0.00    +0.144 A 
ATOM      5  C   UNL     1      -3.488   5.317  -2.740  0.00  0.00    +0.037 A 
ATOM      6  C   UNL     1      -2.423   5.698  -1.911  0.00  0.00    +0.037 A 
ATOM      7  C   UNL     1      -1.145   5.719  -2.386  0.00  0.00    +0.057 A 
ATOM      8  C   UNL     1      -0.884   5.360  -3.729  0.00  0.00    +0.008 A 
ATOM      9  C   UNL     1      -1.950   4.969  -4.573  0.00  0.00    +0.027 A 
ATOM     10  C   UNL     1      -1.681   4.609  -5.903  0.00  0.00    +0.012 A 
ATOM     11  C   UNL     1      -0.399   4.635  -6.363  0.00  0.00    +0.001 A 
ATOM     12  C   UNL     1       0.651   5.014  -5.531  0.00  0.00    +0.001 A 
ATOM     13  C   UNL     1       0.424   5.370  -4.236  0.00  0.00    +0.010 A 
ATOM     14  C   UNL     1      -6.908   4.508  -4.008  0.00  0.00    +0.087 C 
ENDROOT
BRANCH   1  15
ATOM     15  C   UNL     1      -5.694   5.465  -1.299  0.00  0.00    +0.343 C 
ATOM     16  O   UNL     1      -6.130   6.579  -1.085  0.00  0.00    -0.245 OA
BRANCH  15  17
ATOM     17  O   UNL     1      -5.896   4.478  -0.404  0.00  0.00    -0.461 OA
BRANCH  17  19
ATOM     18  C   UNL     1      -6.771   3.580   1.684  0.00  0.00    +0.048 C 
ATOM     19  C   UNL     1      -6.644   4.818   0.794  0.00  0.00    +0.229 C 
ENDBRANCH  17  19
ENDBRANCH  15  17
ENDBRANCH   1  15
BRANCH   7  20
ATOM     20  N   UNL     1      -0.095   6.100  -1.548  0.00  0.00    -0.216 N 
ATOM     21  H   UNL     1       0.653   6.602  -1.906  0.00  0.00    +0.174 HD
BRANCH  20  22
ATOM     22  S   UNL     1      -0.128   5.694   0.057  0.00  0.00    +0.072 S 
ATOM     23  O   UNL     1      -1.370   6.159   0.569  0.00  0.00    -0.150 OA
ATOM     24  O   UNL     1       1.120   6.098   0.604  0.00  0.00    -0.150 OA
BRANCH  22  25
ATOM     25  C   UNL     1      -0.172   3.935   0.150  0.00  0.00    +0.111 A 
ATOM     26  C   UNL     1       1.007   3.216   0.203  0.00  0.00    +0.029 A 
ATOM     27  C   UNL     1       0.972   1.836   0.275  0.00  0.00    +0.004 A 
ATOM     28  C   UNL     1      -0.242   1.175   0.294  0.00  0.00    +0.033 A 
ATOM     29  C   UNL     1      -1.421   1.894   0.236  0.00  0.00    +0.128 A 
ATOM     30  C   UNL     1      -1.386   3.275   0.169  0.00  0.00    +0.061 A 
BRANCH  29  31
ATOM     31  N   UNL     1      -2.721   1.186   0.250  0.00  0.00    +0.056 N 
ATOM     32  O   UNL     1      -2.752  -0.030   0.314  0.00  0.00    -0.126 OA
ATOM     33  O   UNL     1      -3.760   1.820   0.199  0.00  0.00    -0.126 OA
ENDBRANCH  29  31
ENDBRANCH  22  25
ENDBRANCH  20  22
ENDBRANCH   7  20
TORSDOF 7
