REMARK  Name = ZINC11784016
REMARK  11 active torsions:
REMARK  status: ('A' for Active; 'I' for Inactive)
REMARK    1  A    between atoms: C_1  and  C_2
REMARK    2  A    between atoms: C_3  and  C_35
REMARK    3  A    between atoms: C_11  and  C_12
REMARK    4  A    between atoms: N_14  and  C_15
REMARK    5  A    between atoms: C_18  and  C_31
REMARK    6  A    between atoms: C_21  and  C_22
REMARK    7  A    between atoms: C_21  and  N_64
REMARK    8  A    between atoms: C_22  and  C_30
REMARK    9  A    between atoms: C_23  and  C_24
REMARK   10  A    between atoms: C_31  and  O_33
REMARK   11  A    between atoms: O_33  and  C_34
REMARK                            x       y       z     vdW  Elec       q    Type
REMARK                         _______ _______ _______ _____ _____    ______ ____
ROOT
ATOM      1  C   UNL     1      -2.196  -3.247  -2.398  0.00  0.00    +0.056 C 
ATOM      2  C   UNL     1      -1.312  -2.032  -2.050  0.00  0.00    +0.016 C 
ATOM      3  C   UNL     1      -1.650  -1.698  -0.581  0.00  0.00    +0.045 C 
ATOM      4  C   UNL     1      -2.994  -3.545  -1.111  0.00  0.00    -0.055 C 
ATOM      5  N   UNL     1      -2.990  -2.268  -0.401  0.00  0.00    +0.392 N 
ATOM      6  H   UNL     1      -3.696  -1.641  -0.803  0.00  0.00    -0.080 HD
ENDROOT
BRANCH   1   9
ATOM      7  C   UNL     1      -1.857  -5.364  -3.556  0.00  0.00    +0.246 C 
ATOM      8  O   UNL     1      -2.996  -5.283  -3.975  0.00  0.00    -0.270 OA
ATOM      9  N   UNL     1      -1.362  -4.396  -2.760  0.00  0.00    -0.310 N 
ATOM     10  H   UNL     1      -0.453  -4.460  -2.426  0.00  0.00    +0.149 HD
BRANCH   7  21
ATOM     11  C   UNL     1      -1.097 -10.792  -6.572  0.00  0.00    +0.046 C 
ATOM     12  C   UNL     1      -1.524  -9.488  -5.949  0.00  0.00    -0.022 A 
ATOM     13  C   UNL     1      -2.721  -8.895  -6.077  0.00  0.00    +0.017 A 
ATOM     14  N   UNL     1      -2.739  -7.724  -5.366  0.00  0.00    -0.357 N 
ATOM     15  H   UNL     1      -3.496  -7.121  -5.307  0.00  0.00    +0.166 HD
ATOM     16  C   UNL     1      -1.529  -7.532  -4.750  0.00  0.00    +0.059 A 
ATOM     17  C   UNL     1      -0.711  -8.626  -5.086  0.00  0.00    +0.004 A 
ATOM     18  C   UNL     1       0.593  -8.700  -4.595  0.00  0.00    +0.010 A 
ATOM     19  C   UNL     1       1.081  -7.699  -3.781  0.00  0.00    +0.001 A 
ATOM     20  C   UNL     1       0.290  -6.614  -3.448  0.00  0.00    +0.015 A 
ATOM     21  C   UNL     1      -1.017  -6.521  -3.921  0.00  0.00    +0.061 A 
ATOM     22  C   UNL     1      -3.874  -9.436  -6.882  0.00  0.00    +0.063 C 
ENDBRANCH   7  21
ENDBRANCH   1   9
BRANCH   3  23
ATOM     23  C   UNL     1      -1.655  -0.206  -0.369  0.00  0.00    +0.293 C 
ATOM     24  O   UNL     1      -2.667   0.351  -0.014  0.00  0.00    -0.253 OA
BRANCH  23  25
ATOM     25  O   UNL     1      -0.534   0.505  -0.574  0.00  0.00    -0.469 OA
ATOM     26  C   UNL     1      -0.612   1.937  -0.350  0.00  0.00    +0.280 C 
ENDBRANCH  23  25
ENDBRANCH   3  23
BRANCH   5  27
ATOM     27  C   UNL     1      -3.282  -2.468   1.054  0.00  0.00    -0.046 C 
BRANCH  27  28
ATOM     28  C   UNL     1      -4.740  -2.796   1.245  0.00  0.00    -0.089 C 
ATOM     29  C   UNL     1      -5.133  -4.061   1.307  0.00  0.00    +0.005 C 
ATOM     30  C   UNL     1      -5.753  -1.686   1.367  0.00  0.00    +0.037 C 
BRANCH  29  31
ATOM     31  C   UNL     1      -6.574  -4.387   1.332  0.00  0.00    -0.025 A 
ATOM     32  C   UNL     1      -7.050  -5.394   2.172  0.00  0.00    +0.008 A 
ATOM     33  C   UNL     1      -8.397  -5.691   2.194  0.00  0.00    +0.001 A 
ATOM     34  C   UNL     1      -9.274  -4.999   1.378  0.00  0.00    +0.000 A 
ATOM     35  C   UNL     1      -8.808  -4.003   0.539  0.00  0.00    +0.001 A 
ATOM     36  C   UNL     1      -7.464  -3.693   0.511  0.00  0.00    +0.008 A 
ENDBRANCH  29  31
ENDBRANCH  27  28
ENDBRANCH   5  27
TORSDOF 7
