REMARK  Name = ZINC51169153
REMARK  6 active torsions:
REMARK  status: ('A' for Active; 'I' for Inactive)
REMARK    1  A    between atoms: C_1  and  C_2
REMARK    2  A    between atoms: C_5  and  C_7
REMARK    3  A    between atoms: C_9  and  C_16
REMARK    4  A    between atoms: C_10  and  C_15
REMARK    5  A    between atoms: C_11  and  N_13
REMARK    6  A    between atoms: N_13  and  N_14
REMARK                            x       y       z     vdW  Elec       q    Type
REMARK                         _______ _______ _______ _____ _____    ______ ____
ROOT
ATOM      1  C   UNL     1       1.037  -4.031  -0.024  0.00  0.00    +0.169 A 
ATOM      2  N   UNL     1       2.352  -4.224  -0.026  0.00  0.00    -0.232 NA
ATOM      3  C   UNL     1       2.860  -5.446  -0.034  0.00  0.00    +0.047 A 
ATOM      4  C   UNL     1       2.006  -6.534  -0.042  0.00  0.00    +0.011 A 
ATOM      5  C   UNL     1       0.628  -6.302  -0.041  0.00  0.00    +0.139 A 
ATOM      6  N   UNL     1       0.185  -5.050  -0.026  0.00  0.00    -0.211 NA
ATOM      7  C   UNL     1       2.551  -7.939  -0.052  0.00  0.00    +0.049 C 
ATOM      8  C   UNL     1       4.353  -5.650  -0.036  0.00  0.00    +0.066 C 
ENDROOT
BRANCH   1  13
ATOM      9  C   UNL     1      -0.018   1.503   0.010  0.00  0.00    +0.051 C 
ATOM     10  C   UNL     1       0.002  -0.004   0.002  0.00  0.00    -0.013 A 
ATOM     11  C   UNL     1      -1.043  -0.873   0.002  0.00  0.00    +0.011 A 
ATOM     12  C   UNL     1      -0.791  -2.225  -0.007  0.00  0.00    +0.019 A 
ATOM     13  C   UNL     1       0.511  -2.653  -0.015  0.00  0.00    +0.057 A 
ATOM     14  S   UNL     1       1.405  -1.107  -0.018  0.00  0.00    -0.090 S 
ENDBRANCH   1  13
BRANCH   5  15
ATOM     15  N   UNL     1      -0.262  -7.363  -0.048  0.00  0.00    -0.267 N 
ATOM     16  H   UNL     1       0.069  -8.275  -0.055  0.00  0.00    +0.167 HD
BRANCH  15  17
ATOM     17  N   UNL     1      -1.608  -7.125  -0.047  0.00  0.00    -0.255 NA
ATOM     18  H   UNL     1      -2.127  -7.990  -0.053  0.00  0.00    +0.140 HD
ATOM     19  H   UNL     1      -1.872  -6.550   0.739  0.00  0.00    +0.140 HD
ENDBRANCH  15  17
ENDBRANCH   5  15
TORSDOF 3
