REMARK  Name = ZINC43528076
REMARK  9 active torsions:
REMARK  status: ('A' for Active; 'I' for Inactive)
REMARK    1  A    between atoms: C_1  and  C_2
REMARK    2  A    between atoms: C_4  and  C_28
REMARK    3  A    between atoms: C_6  and  C_8
REMARK    4  A    between atoms: C_17  and  C_19
REMARK    5  A    between atoms: C_19  and  N_20
REMARK    6  A    between atoms: C_21  and  C_23
REMARK    7  A    between atoms: C_31  and  N_34
REMARK    8  A    between atoms: N_34  and  C_35
REMARK    9  A    between atoms: N_34  and  C_36
REMARK                            x       y       z     vdW  Elec       q    Type
REMARK                         _______ _______ _______ _____ _____    ______ ____
ROOT
ATOM      1  C   UNL     1       0.015  -2.699   2.512  0.00  0.00    +0.024 C 
ATOM      2  C   UNL     1      -0.802  -3.987   2.391  0.00  0.00    -0.068 C 
ATOM      3  N   UNL     1       0.044  -5.147   2.683  0.00  0.00    +0.383 N 
ATOM      4  C   UNL     1       1.147  -5.235   1.723  0.00  0.00    -0.078 C 
ATOM      5  C   UNL     1       2.028  -3.988   1.821  0.00  0.00    -0.015 C 
ATOM      6  C   UNL     1       1.455  -3.057   2.902  0.00  0.00    -0.007 C 
ATOM      7  C   UNL     1       1.420  -3.824   4.230  0.00  0.00    -0.010 C 
ATOM      8  C   UNL     1       0.557  -5.079   4.053  0.00  0.00    -0.051 C 
ATOM      9  H   UNL     1      -0.516  -5.981   2.593  0.00  0.00    -0.081 HD
ENDROOT
BRANCH   1  15
ATOM     10  C   UNL     1       0.005   1.502   0.011  0.00  0.00    +0.088 C 
ATOM     11  C   UNL     1       0.010  -0.004   0.002  0.00  0.00    +0.127 A 
ATOM     12  N   UNL     1       0.014  -0.638  -1.152  0.00  0.00    -0.232 NA
ATOM     13  C   UNL     1       0.019  -1.969  -1.197  0.00  0.00    +0.075 A 
ATOM     14  C   UNL     1       0.019  -2.685   0.004  0.00  0.00    +0.052 A 
ATOM     15  C   UNL     1       0.015  -1.975   1.190  0.00  0.00    +0.047 A 
ATOM     16  N   UNL     1       0.015  -0.651   1.151  0.00  0.00    -0.237 NA
BRANCH  13  17
ATOM     17  C   UNL     1       0.023  -2.679  -2.498  0.00  0.00    +0.001 A 
ATOM     18  C   UNL     1       0.022  -4.073  -2.532  0.00  0.00    +0.012 A 
ATOM     19  C   UNL     1       0.025  -4.731  -3.743  0.00  0.00    +0.024 A 
ATOM     20  C   UNL     1       0.030  -4.006  -4.930  0.00  0.00    +0.029 A 
ATOM     21  C   UNL     1       0.032  -2.616  -4.898  0.00  0.00    +0.024 A 
ATOM     22  C   UNL     1       0.022  -1.953  -3.689  0.00  0.00    +0.012 A 
BRANCH  20  23
ATOM     23  N   UNL     1       0.034  -4.674  -6.153  0.00  0.00    -0.336 N 
ATOM     24  C   UNL     1       0.159  -6.133  -6.191  0.00  0.00    +0.129 C 
ATOM     25  C   UNL     1      -0.089  -3.917  -7.401  0.00  0.00    +0.129 C 
ENDBRANCH  20  23
ENDBRANCH  13  17
ENDBRANCH   1  15
BRANCH   8  26
ATOM     26  C   UNL     1       1.402  -6.322   4.341  0.00  0.00    +0.089 C 
BRANCH  26  27
ATOM     27  N   UNL     1       0.610  -7.524   4.072  0.00  0.00    -0.310 N 
ATOM     28  C   UNL     1       1.152  -8.744   4.256  0.00  0.00    +0.279 C 
ATOM     29  O   UNL     1       2.300  -8.847   4.647  0.00  0.00    -0.267 OA
ATOM     30  H   UNL     1      -0.305  -7.442   3.760  0.00  0.00    +0.149 HD
BRANCH  28  31
ATOM     31  C   UNL     1       0.359  -9.948   3.986  0.00  0.00    +0.189 A 
ATOM     32  C   UNL     1       0.781 -11.238   4.136  0.00  0.00    +0.054 A 
ATOM     33  C   UNL     1      -0.295 -12.060   3.769  0.00  0.00    +0.042 A 
ATOM     34  C   UNL     1      -1.315 -11.247   3.415  0.00  0.00    +0.196 A 
ATOM     35  O   UNL     1      -0.918  -9.975   3.552  0.00  0.00    -0.458 OA
ENDBRANCH  28  31
ENDBRANCH  26  27
ENDBRANCH   8  26
TORSDOF 6
