REMARK  Name = ZINC67293254
REMARK  4 active torsions:
REMARK  status: ('A' for Active; 'I' for Inactive)
REMARK    1  A    between atoms: C_8  and  C_10
REMARK    2  A    between atoms: C_15  and  O_30
REMARK    3  A    between atoms: N_20  and  C_21
REMARK    4  A    between atoms: C_24  and  C_27
REMARK                            x       y       z     vdW  Elec       q    Type
REMARK                         _______ _______ _______ _____ _____    ______ ____
ROOT
ATOM      1  C   UNL     1       0.169  -4.203   0.239  0.00  0.00    +0.098 A 
ATOM      2  C   UNL     1      -1.007  -4.943   0.235  0.00  0.00    +0.030 A 
ATOM      3  C   UNL     1      -0.910  -6.354   0.315  0.00  0.00    +0.018 A 
ATOM      4  C   UNL     1      -2.043  -7.157   0.114  0.00  0.00    +0.015 A 
ATOM      5  C   UNL     1      -1.929  -8.515   0.151  0.00  0.00    +0.046 A 
ATOM      6  C   UNL     1      -0.695  -9.115   0.396  0.00  0.00    +0.120 A 
ATOM      7  C   UNL     1       0.433  -8.338   0.616  0.00  0.00    +0.092 A 
ATOM      8  C   UNL     1       0.334  -6.957   0.588  0.00  0.00    +0.141 A 
ATOM      9  O   UNL     1       1.420  -6.188   0.845  0.00  0.00    -0.438 OA
ATOM     10  C   UNL     1       1.439  -4.950   0.285  0.00  0.00    +0.212 A 
ATOM     11  N   UNL     1       2.553  -4.432  -0.195  0.00  0.00    -0.325 N 
ATOM     12  H   UNL     1       2.526  -3.595  -0.684  0.00  0.00    +0.169 HD
ENDROOT
BRANCH   1  20
ATOM     13  C   UNL     1       0.154   1.414  -0.140  0.00  0.00    +0.005 A 
ATOM     14  C   UNL     1       1.236   2.077   0.424  0.00  0.00    +0.020 A 
ATOM     15  C   UNL     1       2.288   1.343   0.933  0.00  0.00    +0.113 A 
ATOM     16  N   UNL     1       2.276   0.024   0.891  0.00  0.00    -0.240 NA
ATOM     17  C   UNL     1       1.263  -0.644   0.362  0.00  0.00    +0.125 A 
ATOM     18  C   UNL     1       0.170   0.031  -0.170  0.00  0.00    +0.044 A 
ATOM     19  N   UNL     1       1.292  -2.037   0.338  0.00  0.00    -0.266 N 
ATOM     20  C   UNL     1       0.147  -2.732   0.192  0.00  0.00    +0.254 C 
ATOM     21  O   UNL     1      -0.904  -2.144   0.020  0.00  0.00    -0.270 OA
ATOM     22  H   UNL     1       2.137  -2.506   0.427  0.00  0.00    +0.157 HD
ENDBRANCH   1  20
BRANCH  11  23
ATOM     23  C   UNL     1       3.739  -5.073  -0.004  0.00  0.00    +0.042 A 
ATOM     24  C   UNL     1       4.058  -5.598   1.254  0.00  0.00    +0.026 A 
ATOM     25  C   UNL     1       5.246  -6.240   1.445  0.00  0.00    +0.015 A 
ATOM     26  C   UNL     1       6.148  -6.373   0.382  0.00  0.00    +0.037 A 
ATOM     27  C   UNL     1       5.830  -5.848  -0.875  0.00  0.00    +0.015 A 
ATOM     28  C   UNL     1       4.639  -5.212  -1.069  0.00  0.00    +0.026 A 
BRANCH  26  29
ATOM     29  C   UNL     1       7.432  -7.066   0.589  0.00  0.00    +0.242 C 
ATOM     30  O   UNL     1       7.708  -7.522   1.682  0.00  0.00    -0.270 OA
ATOM     31  N   UNL     1       8.300  -7.195  -0.434  0.00  0.00    -0.325 N 
ATOM     32  H   UNL     1       8.080  -6.831  -1.306  0.00  0.00    +0.145 HD
ATOM     33  H   UNL     1       9.145  -7.651  -0.298  0.00  0.00    +0.145 HD
ENDBRANCH  26  29
ENDBRANCH  11  23
BRANCH   6  34
ATOM     34  O   UNL     1      -0.596 -10.468   0.419  0.00  0.00    -0.507 OA
ATOM     35  H   UNL     1      -0.397 -10.862  -0.442  0.00  0.00    +0.292 HD
ENDBRANCH   6  34
TORSDOF 4
