REMARK  Name = ZINC19641335
REMARK  7 active torsions:
REMARK  status: ('A' for Active; 'I' for Inactive)
REMARK    1  A    between atoms: C_1  and  N_2
REMARK    2  A    between atoms: N_2  and  C_3
REMARK    3  A    between atoms: N_2  and  C_10
REMARK    4  A    between atoms: C_3  and  C_4
REMARK    5  A    between atoms: N_20  and  C_23
REMARK    6  A    between atoms: C_23  and  C_24
REMARK    7  A    between atoms: C_27  and  C_30
REMARK                            x       y       z     vdW  Elec       q    Type
REMARK                         _______ _______ _______ _____ _____    ______ ____
ROOT
ATOM      1  C   UNL     1      -1.549   3.071  -0.084  0.00  0.00    +0.185 A 
ATOM      2  N   UNL     1      -1.213   1.763   0.094  0.00  0.00    -0.294 N 
ATOM      3  H   UNL     1      -2.000   1.004   0.213  0.00  0.00    +0.172 HD
ATOM      4  C   UNL     1       0.009   1.189   0.154  0.00  0.00    +0.279 A 
ATOM      5  O   UNL     1       0.038  -0.014   0.328  0.00  0.00    -0.265 OA
ATOM      6  C   UNL     1       1.312   1.868   0.025  0.00  0.00    +0.158 A 
ATOM      7  C   UNL     1       1.530   3.228  -0.178  0.00  0.00    +0.141 A 
ATOM      8  C   UNL     1       0.519   4.288  -0.309  0.00  0.00    +0.299 A 
ATOM      9  O   UNL     1       0.939   5.419  -0.484  0.00  0.00    -0.263 OA
ATOM     10  N   UNL     1      -0.816   4.150  -0.258  0.00  0.00    -0.177 NA
ATOM     11  N   UNL     1       2.882   3.397  -0.234  0.00  0.00    -0.321 N 
ATOM     12  C   UNL     1       3.446   2.180  -0.070  0.00  0.00    +0.201 A 
ATOM     13  N   UNL     1       2.513   1.278   0.083  0.00  0.00    -0.230 NA
ENDROOT
BRANCH   1  15
ATOM     14  C   UNL     1      -3.832   2.180  -0.032  0.00  0.00    +0.110 C 
ATOM     15  N   UNL     1      -2.893   3.304  -0.088  0.00  0.00    -0.366 NA
ATOM     16  H   UNL     1      -1.809   3.116  -0.086  0.00  0.00    +0.129 HD
BRANCH  15  17
ATOM     17  C   UNL     1      -3.398   4.678  -0.148  0.00  0.00    +0.123 C 
BRANCH  17  18
ATOM     18  C   UNL     1      -3.578   5.084  -1.588  0.00  0.00    -0.032 A 
ATOM     19  C   UNL     1      -2.539   5.688  -2.271  0.00  0.00    +0.005 A 
ATOM     20  C   UNL     1      -2.703   6.056  -3.593  0.00  0.00    +0.000 A 
ATOM     21  C   UNL     1      -3.909   5.830  -4.229  0.00  0.00    +0.000 A 
ATOM     22  C   UNL     1      -4.950   5.232  -3.544  0.00  0.00    +0.000 A 
ATOM     23  C   UNL     1      -4.785   4.859  -2.224  0.00  0.00    +0.005 A 
ENDBRANCH  17  18
ENDBRANCH  15  17
ENDBRANCH   1  15
BRANCH  11  24
ATOM     24  C   UNL     1       3.591   4.663  -0.435  0.00  0.00    +0.158 C 
BRANCH  24  25
ATOM     25  C   UNL     1       5.076   4.431  -0.319  0.00  0.00    -0.028 A 
ATOM     26  C   UNL     1       5.689   4.501   0.920  0.00  0.00    +0.006 A 
ATOM     27  C   UNL     1       7.046   4.284   1.034  0.00  0.00    +0.008 A 
ATOM     28  C   UNL     1       7.803   4.004  -0.104  0.00  0.00    -0.026 A 
ATOM     29  C   UNL     1       7.180   3.941  -1.351  0.00  0.00    +0.008 A 
ATOM     30  C   UNL     1       5.821   4.155  -1.451  0.00  0.00    +0.006 A 
BRANCH  28  31
ATOM     31  C   UNL     1       9.259   3.776   0.010  0.00  0.00    +0.000 C 
ATOM     32  C   UNL     1       9.848   3.837   1.196  0.00  0.00    +0.009 C 
ENDBRANCH  28  31
ENDBRANCH  24  25
ENDBRANCH  11  24
TORSDOF 6
