REMARK  Name = ZINC57798994
REMARK  9 active torsions:
REMARK  status: ('A' for Active; 'I' for Inactive)
REMARK    1  A    between atoms: C_1  and  C_2
REMARK    2  A    between atoms: C_4  and  C_31
REMARK    3  A    between atoms: C_9  and  C_10
REMARK    4  A    between atoms: C_10  and  N_11
REMARK    5  A    between atoms: N_14  and  C_15
REMARK    6  A    between atoms: C_15  and  C_16
REMARK    7  A    between atoms: C_16  and  C_18
REMARK    8  A    between atoms: C_16  and  N_24
REMARK    9  A    between atoms: C_27  and  C_30
REMARK                            x       y       z     vdW  Elec       q    Type
REMARK                         _______ _______ _______ _____ _____    ______ ____
ROOT
ATOM      1  N   UNL     1      -0.420   0.251   8.046  0.00  0.00    -0.295 N 
ATOM      2  C   UNL     1      -1.071   0.775   6.989  0.00  0.00    +0.300 C 
ATOM      3  O   UNL     1      -0.448   1.127   6.005  0.00  0.00    -0.253 OA
ATOM      4  N   UNL     1      -2.412   0.908   7.021  0.00  0.00    -0.301 N 
ATOM      5  H   UNL     1      -0.917  -0.029   8.831  0.00  0.00    +0.151 HD
ATOM      6  H   UNL     1      -2.908   0.627   7.805  0.00  0.00    +0.150 HD
ENDROOT
BRANCH   1   7
ATOM      7  C   UNL     1       1.037   0.107   8.012  0.00  0.00    +0.146 C 
BRANCH   7  16
ATOM      8  C   UNL     1       1.455  -2.742   8.224  0.00  0.00    +0.044 C 
ATOM      9  C   UNL     1       1.710  -1.845   9.407  0.00  0.00    -0.039 A 
ATOM     10  C   UNL     1       2.158  -2.383  10.621  0.00  0.00    +0.024 A 
ATOM     11  C   UNL     1       2.385  -1.569  11.679  0.00  0.00    +0.016 A 
ATOM     12  N   UNL     1       2.184  -0.230  11.579  0.00  0.00    -0.326 N 
ATOM     13  H   UNL     1       2.351   0.339  12.346  0.00  0.00    +0.169 HD
ATOM     14  C   UNL     1       1.754   0.317  10.426  0.00  0.00    +0.254 A 
ATOM     15  O   UNL     1       1.578   1.522  10.351  0.00  0.00    -0.268 OA
ATOM     16  C   UNL     1       1.513  -0.499   9.307  0.00  0.00    +0.037 A 
ATOM     17  C   UNL     1       2.866  -2.155  12.981  0.00  0.00    +0.063 C 
ENDBRANCH   7  16
ENDBRANCH   1   7
BRANCH   4  18
ATOM     18  C   UNL     1      -3.119   1.476   5.870  0.00  0.00    +0.095 C 
BRANCH  18  19
ATOM     19  C   UNL     1      -4.628   1.410   6.116  0.00  0.00    -0.020 C 
BRANCH  19  20
ATOM     20  N   UNL     1      -5.339   1.892   4.925  0.00  0.00    +0.385 N 
ATOM     21  C   UNL     1      -5.029   1.020   3.785  0.00  0.00    -0.078 C 
ATOM     22  C   UNL     1      -5.703   1.565   2.524  0.00  0.00    -0.015 C 
ATOM     23  C   UNL     1      -7.219   1.607   2.739  0.00  0.00    -0.018 C 
ATOM     24  C   UNL     1      -7.526   2.458   3.974  0.00  0.00    -0.015 C 
ATOM     25  C   UNL     1      -6.785   1.881   5.182  0.00  0.00    -0.078 C 
ATOM     26  C   UNL     1      -7.893   2.224   1.512  0.00  0.00    +0.007 C 
ATOM     27  H   UNL     1      -5.043   2.834   4.716  0.00  0.00    -0.081 HD
ENDBRANCH  19  20
BRANCH  19  28
ATOM     28  C   UNL     1      -4.983   2.275   7.298  0.00  0.00    -0.059 A 
ATOM     29  C   UNL     1      -5.109   3.643   7.140  0.00  0.00    +0.002 A 
ATOM     30  C   UNL     1      -5.434   4.437   8.224  0.00  0.00    +0.000 A 
ATOM     31  C   UNL     1      -5.635   3.863   9.466  0.00  0.00    +0.000 A 
ATOM     32  C   UNL     1      -5.510   2.495   9.623  0.00  0.00    +0.000 A 
ATOM     33  C   UNL     1      -5.188   1.701   8.538  0.00  0.00    +0.002 A 
ENDBRANCH  19  28
ENDBRANCH  18  19
ENDBRANCH   4  18
TORSDOF 6
