REMARK  Name = ZINC63281162
REMARK  13 active torsions:
REMARK  status: ('A' for Active; 'I' for Inactive)
REMARK    1  A    between atoms: C_1  and  C_2
REMARK    2  A    between atoms: C_2  and  C_3
REMARK    3  A    between atoms: C_2  and  C_4
REMARK    4  A    between atoms: C_4  and  C_6
REMARK    5  A    between atoms: C_4  and  N_22
REMARK    6  A    between atoms: N_8  and  C_9
REMARK    7  A    between atoms: C_9  and  C_10
REMARK    8  A    between atoms: C_10  and  C_11
REMARK    9  A    between atoms: C_14  and  O_20
REMARK   10  A    between atoms: O_20  and  C_21
REMARK   11  A    between atoms: C_23  and  C_25
REMARK   12  A    between atoms: C_25  and  C_26
REMARK   13  A    between atoms: C_25  and  C_32
REMARK                            x       y       z     vdW  Elec       q    Type
REMARK                         _______ _______ _______ _____ _____    ______ ____
ROOT
ATOM      1  C   UNL     1      -2.334  -0.586   0.531  0.00  0.00    +0.161 C 
ENDROOT
BRANCH   1   2
ATOM      2  C   UNL     1      -3.258  -0.261  -0.615  0.00  0.00    +0.234 C 
ATOM      3  O   UNL     1      -3.562  -1.122  -1.412  0.00  0.00    -0.274 OA
ATOM      4  N   UNL     1      -3.746   0.988  -0.754  0.00  0.00    -0.313 N 
ATOM      5  H   UNL     1      -3.569   1.656  -0.073  0.00  0.00    +0.149 HD
BRANCH   4   6
ATOM      6  C   UNL     1      -4.542   1.337  -1.933  0.00  0.00    +0.108 C 
BRANCH   6   7
ATOM      7  C   UNL     1      -4.970   2.803  -1.845  0.00  0.00    +0.052 C 
BRANCH   7   8
ATOM      8  C   UNL     1      -5.789   3.161  -3.058  0.00  0.00    -0.040 C 
ATOM      9  C   UNL     1      -7.137   3.155  -3.159  0.00  0.00    +0.002 A 
ATOM     10  C   UNL     1      -8.205   2.825  -2.208  0.00  0.00    +0.055 A 
ATOM     11  C   UNL     1      -9.498   2.912  -2.602  0.00  0.00    +0.121 A 
ATOM     12  C   UNL     1      -9.863   3.310  -3.900  0.00  0.00    +0.047 A 
ATOM     13  C   UNL     1      -8.953   3.632  -4.844  0.00  0.00    +0.029 A 
ATOM     14  C   UNL     1      -7.523   3.574  -4.526  0.00  0.00    +0.043 A 
ATOM     15  N   UNL     1      -6.456   3.829  -5.241  0.00  0.00    -0.380 N 
ATOM     16  C   UNL     1      -5.270   3.607  -4.406  0.00  0.00    +0.144 C 
ATOM     17  H   UNL     1      -6.450   4.120  -6.166  0.00  0.00    +0.160 HD
BRANCH  11  18
ATOM     18  O   UNL     1     -10.477   2.603  -1.711  0.00  0.00    -0.495 OA
ATOM     19  C   UNL     1     -11.827   2.708  -2.168  0.00  0.00    +0.277 C 
ENDBRANCH  11  18
ENDBRANCH   7   8
ENDBRANCH   6   7
ENDBRANCH   4   6
ENDBRANCH   1   2
BRANCH   1  20
ATOM     20  N   UNL     1      -2.309  -2.035   0.741  0.00  0.00    -0.303 N 
ATOM     21  C   UNL     1      -1.994  -2.535   1.952  0.00  0.00    +0.225 C 
ATOM     22  O   UNL     1      -1.731  -1.785   2.868  0.00  0.00    -0.275 OA
ATOM     23  H   UNL     1      -2.518  -2.635   0.008  0.00  0.00    +0.149 HD
BRANCH  21  24
ATOM     24  C   UNL     1      -1.967  -4.026   2.168  0.00  0.00    +0.135 C 
BRANCH  24  25
ATOM     25  C   UNL     1      -1.589  -4.320   3.597  0.00  0.00    -0.031 A 
ATOM     26  C   UNL     1      -0.495  -5.119   3.873  0.00  0.00    +0.005 A 
ATOM     27  C   UNL     1      -0.148  -5.389   5.183  0.00  0.00    +0.000 A 
ATOM     28  C   UNL     1      -0.895  -4.859   6.219  0.00  0.00    +0.000 A 
ATOM     29  C   UNL     1      -1.988  -4.059   5.944  0.00  0.00    +0.000 A 
ATOM     30  C   UNL     1      -2.333  -3.786   4.633  0.00  0.00    +0.005 A 
ENDBRANCH  24  25
BRANCH  24  31
ATOM     31  C   UNL     1      -3.331  -4.600   1.882  0.00  0.00    -0.031 A 
ATOM     32  C   UNL     1      -4.460  -3.985   2.389  0.00  0.00    +0.005 A 
ATOM     33  C   UNL     1      -5.711  -4.511   2.126  0.00  0.00    +0.000 A 
ATOM     34  C   UNL     1      -5.833  -5.652   1.355  0.00  0.00    +0.000 A 
ATOM     35  C   UNL     1      -4.704  -6.266   0.847  0.00  0.00    +0.000 A 
ATOM     36  C   UNL     1      -3.453  -5.738   1.106  0.00  0.00    +0.005 A 
ENDBRANCH  24  31
ENDBRANCH  21  24
ENDBRANCH   1  20
BRANCH   1  38
ATOM     37  C   UNL     1      -0.019  -0.291   1.423  0.00  0.00    +0.009 C 
ATOM     38  C   UNL     1      -0.923  -0.092   0.205  0.00  0.00    +0.012 C 
ATOM     39  C   UNL     1      -0.366  -0.887  -0.979  0.00  0.00    +0.009 C 
ENDBRANCH   1  38
TORSDOF 10
