REMARK  Name = ZINC00940687
REMARK  4 active torsions:
REMARK  status: ('A' for Active; 'I' for Inactive)
REMARK    1  A    between atoms: C_1  and  C_2
REMARK    2  A    between atoms: C_3  and  C_26
REMARK    3  A    between atoms: C_4  and  C_19
REMARK    4  A    between atoms: C_10  and  C_12
REMARK                            x       y       z     vdW  Elec       q    Type
REMARK                         _______ _______ _______ _____ _____    ______ ____
ROOT
ATOM      1  C   UNL     1       0.286   1.398   0.212  0.00  0.00    +0.066 C 
ATOM      2  C   UNL     1       0.180  -0.099   0.074  0.00  0.00    +0.052 C 
ATOM      3  C   UNL     1      -1.059  -0.677   0.063  0.00  0.00    +0.062 C 
ATOM      4  C   UNL     1      -1.117  -2.188  -0.079  0.00  0.00    +0.167 C 
ATOM      5  N   UNL     1       0.174  -2.876  -0.190  0.00  0.00    -0.207 N 
ATOM      6  C   UNL     1       1.329  -2.132  -0.160  0.00  0.00    +0.237 C 
ATOM      7  N   UNL     1       1.289  -0.814  -0.039  0.00  0.00    -0.218 NA
ATOM      8  N   UNL     1       2.359  -2.984  -0.278  0.00  0.00    -0.196 NA
ATOM      9  C   UNL     1       1.920  -4.223  -0.380  0.00  0.00    +0.147 C 
ATOM     10  N   UNL     1       0.551  -4.214  -0.331  0.00  0.00    -0.244 N 
ATOM     11  H   UNL     1      -0.038  -4.983  -0.383  0.00  0.00    +0.172 HD
ENDROOT
BRANCH   9  12
ATOM     12  C   UNL     1       2.765  -5.423  -0.525  0.00  0.00    +0.035 A 
ATOM     13  C   UNL     1       2.178  -6.687  -0.630  0.00  0.00    +0.013 A 
ATOM     14  C   UNL     1       2.974  -7.805  -0.765  0.00  0.00    +0.001 A 
ATOM     15  C   UNL     1       4.352  -7.678  -0.796  0.00  0.00    +0.001 A 
ATOM     16  C   UNL     1       4.942  -6.432  -0.692  0.00  0.00    +0.021 A 
ATOM     17  C   UNL     1       4.157  -5.302  -0.562  0.00  0.00    +0.051 A 
ATOM     18 CL   UNL     1       4.899  -3.737  -0.439  0.00  0.00    -0.083 Cl
ENDBRANCH   9  12
BRANCH   4  19
ATOM     19  C   UNL     1      -1.926  -2.513  -1.308  0.00  0.00    +0.014 A 
ATOM     20  C   UNL     1      -2.128  -1.549  -2.278  0.00  0.00    +0.009 A 
ATOM     21  C   UNL     1      -2.870  -1.847  -3.406  0.00  0.00    +0.001 A 
ATOM     22  C   UNL     1      -3.410  -3.110  -3.566  0.00  0.00    +0.003 A 
ATOM     23  C   UNL     1      -3.209  -4.075  -2.598  0.00  0.00    +0.039 A 
ATOM     24  C   UNL     1      -2.462  -3.780  -1.470  0.00  0.00    +0.129 A 
ATOM     25  F   UNL     1      -2.260  -4.724  -0.525  0.00  0.00    -0.205 F 
ENDBRANCH   4  19
BRANCH   3  26
ATOM     26  C   UNL     1      -2.229   0.095   0.178  0.00  0.00    +0.241 C 
ATOM     27  O   UNL     1      -2.151   1.299   0.349  0.00  0.00    -0.271 OA
ATOM     28  N   UNL     1      -3.437  -0.497   0.099  0.00  0.00    -0.325 N 
ATOM     29  H   UNL     1      -3.501  -1.464   0.047  0.00  0.00    +0.145 HD
ATOM     30  H   UNL     1      -4.243   0.043   0.094  0.00  0.00    +0.145 HD
ENDBRANCH   3  26
TORSDOF 3
