REMARK  Name = ZINC62620781
REMARK  5 active torsions:
REMARK  status: ('A' for Active; 'I' for Inactive)
REMARK    1  A    between atoms: C_4  and  C_7
REMARK    2  A    between atoms: C_7  and  C_31
REMARK    3  A    between atoms: N_10  and  C_14
REMARK    4  A    between atoms: C_14  and  C_15
REMARK    5  A    between atoms: N_20  and  C_21
REMARK                            x       y       z     vdW  Elec       q    Type
REMARK                         _______ _______ _______ _____ _____    ______ ____
ROOT
ATOM      1  C   UNL     1       4.686  -2.868  -2.897  0.00  0.00    +0.214 C 
ENDROOT
BRANCH   1   5
ATOM      2  C   UNL     1       3.711  -0.707  -0.038  0.00  0.00    +0.233 C 
ATOM      3  C   UNL     1       3.596  -1.986  -0.844  0.00  0.00    +0.260 C 
ATOM      4  O   UNL     1       2.871  -2.930  -0.619  0.00  0.00    -0.272 OA
ATOM      5  N   UNL     1       4.468  -1.853  -1.863  0.00  0.00    -0.215 N 
ATOM      6  C   UNL     1       5.112  -0.681  -1.813  0.00  0.00    +0.310 C 
ATOM      7  O   UNL     1       5.947  -0.334  -2.624  0.00  0.00    -0.252 OA
ATOM      8  N   UNL     1       4.730   0.070  -0.764  0.00  0.00    -0.274 N 
ATOM      9  H   UNL     1       5.061   0.952  -0.531  0.00  0.00    +0.152 HD
BRANCH   2  13
ATOM     10  C   UNL     1      -0.017   1.378   0.010  0.00  0.00    +0.000 A 
ATOM     11  C   UNL     1       1.171   2.086   0.002  0.00  0.00    +0.000 A 
ATOM     12  C   UNL     1       2.377   1.411  -0.013  0.00  0.00    +0.006 A 
ATOM     13  C   UNL     1       2.396   0.029  -0.020  0.00  0.00    -0.006 A 
ATOM     14  C   UNL     1       1.208  -0.679  -0.012  0.00  0.00    +0.006 A 
ATOM     15  C   UNL     1       0.002  -0.004   0.002  0.00  0.00    +0.000 A 
ENDBRANCH   2  13
BRANCH   2  16
ATOM     16  C   UNL     1       4.178  -1.006   1.389  0.00  0.00    +0.424 C 
ATOM     17  F   UNL     1       3.223  -1.798   2.035  0.00  0.00    -0.167 F 
ATOM     18  F   UNL     1       5.399  -1.688   1.346  0.00  0.00    -0.167 F 
ATOM     19  F   UNL     1       4.338   0.195   2.088  0.00  0.00    -0.167 F 
ENDBRANCH   2  16
ENDBRANCH   1   5
BRANCH   1  20
ATOM     20  C   UNL     1       3.742  -2.624  -4.046  0.00  0.00    +0.238 C 
ATOM     21  O   UNL     1       2.965  -1.695  -4.006  0.00  0.00    -0.274 OA
ATOM     22  N   UNL     1       3.763  -3.439  -5.119  0.00  0.00    -0.239 N 
ATOM     23  C   UNL     1       2.919  -3.221  -6.147  0.00  0.00    +0.306 C 
ATOM     24  O   UNL     1       2.139  -2.290  -6.106  0.00  0.00    -0.252 OA
ATOM     25  N   UNL     1       2.939  -4.037  -7.220  0.00  0.00    -0.294 N 
ATOM     26  H   UNL     1       4.385  -4.183  -5.152  0.00  0.00    +0.159 HD
ATOM     27  H   UNL     1       3.561  -4.780  -7.253  0.00  0.00    +0.151 HD
BRANCH  25  28
ATOM     28  C   UNL     1       2.021  -3.800  -8.338  0.00  0.00    +0.037 C 
ATOM     29  C   UNL     1       2.280  -2.410  -8.924  0.00  0.00    +0.029 C 
ATOM     30  C   UNL     1       1.322  -2.163 -10.091  0.00  0.00    -0.008 C 
ATOM     31  C   UNL     1       1.549  -3.222 -11.171  0.00  0.00    +0.007 C 
ATOM     32  C   UNL     1       1.290  -4.612 -10.585  0.00  0.00    -0.008 C 
ATOM     33  C   UNL     1       2.249  -4.859  -9.418  0.00  0.00    +0.029 C 
ATOM     34  C   UNL     1      -0.153  -4.694 -10.085  0.00  0.00    +0.007 C 
ATOM     35  C   UNL     1      -0.381  -3.635  -9.005  0.00  0.00    -0.008 C 
ATOM     36  C   UNL     1      -0.122  -2.245  -9.591  0.00  0.00    +0.007 C 
ATOM     37  C   UNL     1       0.578  -3.882  -7.838  0.00  0.00    +0.029 C 
ENDBRANCH  25  28
ENDBRANCH   1  20
TORSDOF 5
