REMARK  Name = ZINC09329441
REMARK  3 active torsions:
REMARK  status: ('A' for Active; 'I' for Inactive)
REMARK    1  A    between atoms: C_8  and  C_26
REMARK    2  A    between atoms: C_26  and  C_28
REMARK    3  A    between atoms: C_32  and  N_34
REMARK                            x       y       z     vdW  Elec       q    Type
REMARK                         _______ _______ _______ _____ _____    ______ ____
ROOT
ATOM      1  C   UNL     1       4.869   6.030   0.589  0.00  0.00    +0.000 A 
ATOM      2  C   UNL     1       4.948   6.286   1.946  0.00  0.00    +0.002 A 
ATOM      3  C   UNL     1       5.336   5.288   2.815  0.00  0.00    +0.023 A 
ATOM      4  C   UNL     1       5.654   4.021   2.333  0.00  0.00    +0.038 A 
ATOM      5  C   UNL     1       5.597   3.776   0.961  0.00  0.00    -0.011 A 
ATOM      6  C   UNL     1       5.188   4.775   0.104  0.00  0.00    +0.006 A 
ATOM      7  C   UNL     1       6.032   2.352   0.781  0.00  0.00    +0.085 C 
ATOM      8  C   UNL     1       5.008   1.511   0.008  0.00  0.00    +0.066 C 
ATOM      9  C   UNL     1       5.611   1.406  -1.411  0.00  0.00    -0.055 C 
ATOM     10  C   UNL     1       5.261   0.025  -1.998  0.00  0.00    -0.016 C 
ATOM     11  C   UNL     1       6.612  -0.724  -2.086  0.00  0.00    -0.020 C 
ATOM     12  C   UNL     1       7.445  -0.015  -0.982  0.00  0.00    -0.076 C 
ATOM     13  C   UNL     1       7.339   2.231   0.000  0.00  0.00    +0.060 C 
ATOM     14  C   UNL     1       7.867   3.580  -0.427  0.00  0.00    -0.024 A 
ATOM     15  C   UNL     1       7.462   4.496  -1.371  0.00  0.00    +0.043 A 
ATOM     16  C   UNL     1       8.151   5.689  -1.521  0.00  0.00    +0.124 A 
ATOM     17  C   UNL     1       9.262   5.944  -0.734  0.00  0.00    +0.040 A 
ATOM     18  C   UNL     1       9.695   5.008   0.182  0.00  0.00    +0.026 A 
ATOM     19  C   UNL     1       9.012   3.803   0.328  0.00  0.00    +0.036 A 
ATOM     20  N   UNL     1       9.303   2.676   1.100  0.00  0.00    -0.286 N 
ATOM     21  C   UNL     1       8.433   1.671   0.873  0.00  0.00    +0.212 C 
ATOM     22  O   UNL     1       8.538   0.543   1.304  0.00  0.00    -0.277 OA
ATOM     23  F   UNL     1       7.746   6.595  -2.437  0.00  0.00    -0.205 F 
ATOM     24  C   UNL     1       6.193   1.818   2.185  0.00  0.00    +0.228 C 
ATOM     25  O   UNL     1       6.392   0.666   2.506  0.00  0.00    -0.275 OA
ATOM     26  N   UNL     1       6.046   2.867   3.014  0.00  0.00    -0.285 N 
ATOM     27  H   UNL     1      10.044   2.619   1.722  0.00  0.00    +0.155 HD
ATOM     28  H   UNL     1       6.198   2.829   3.971  0.00  0.00    +0.155 HD
ATOM     29  N   UNL     1       7.042   1.397  -1.189  0.00  0.00    +0.395 N 
ATOM     30  H   UNL     1       7.532   1.781  -2.005  0.00  0.00    -0.079 HD
ENDROOT
BRANCH   8  31
ATOM     31  C   UNL     1       3.653   2.155  -0.022  0.00  0.00    +0.166 C 
ATOM     32  O   UNL     1       3.341   2.870  -0.951  0.00  0.00    -0.292 OA
BRANCH  31  33
ATOM     33  C   UNL     1       2.703   1.921   1.077  0.00  0.00    +0.020 A 
ATOM     34  C   UNL     1       3.012   1.008   2.091  0.00  0.00    +0.011 A 
ATOM     35  C   UNL     1       2.116   0.793   3.117  0.00  0.00    +0.003 A 
ATOM     36  C   UNL     1       0.913   1.478   3.145  0.00  0.00    +0.033 A 
ATOM     37  C   UNL     1       0.600   2.382   2.146  0.00  0.00    +0.127 A 
ATOM     38  C   UNL     1       1.486   2.608   1.113  0.00  0.00    +0.044 A 
BRANCH  37  39
ATOM     39  N   UNL     1      -0.691   3.105   2.182  0.00  0.00    +0.056 N 
ATOM     40  O   UNL     1      -1.476   2.903   3.091  0.00  0.00    -0.126 OA
ATOM     41  O   UNL     1      -0.968   3.901   1.304  0.00  0.00    -0.126 OA
ENDBRANCH  37  39
ENDBRANCH  31  33
ENDBRANCH   8  31
TORSDOF 3
