REMARK  Name = ZINC10507826
REMARK  12 active torsions:
REMARK  status: ('A' for Active; 'I' for Inactive)
REMARK    1  A    between atoms: C_1  and  C_2
REMARK    2  A    between atoms: C_4  and  S_11
REMARK    3  A    between atoms: C_6  and  C_10
REMARK    4  A    between atoms: C_7  and  O_8
REMARK    5  A    between atoms: O_8  and  C_9
REMARK    6  A    between atoms: S_11  and  N_14
REMARK    7  A    between atoms: N_14  and  C_15
REMARK    8  A    between atoms: C_15  and  C_16
REMARK    9  A    between atoms: C_16  and  C_18
REMARK   10  A    between atoms: C_16  and  N_57
REMARK   11  A    between atoms: C_28  and  N_57
REMARK   12  A    between atoms: C_29  and  N_57
REMARK                            x       y       z     vdW  Elec       q    Type
REMARK                         _______ _______ _______ _____ _____    ______ ____
ROOT
ATOM      1  C   UNL     1       3.799   1.566  -2.138  0.00  0.00    +0.095 C 
ENDROOT
BRANCH   1   2
ATOM      2  N   UNL     1       3.529   0.311  -1.431  0.00  0.00    -0.191 NA
ATOM      3  H   UNL     1       3.258  -0.476  -1.928  0.00  0.00    +0.148 HD
BRANCH   2   4
ATOM      4  S   UNL     1       3.688   0.238   0.216  0.00  0.00    +0.058 S 
ATOM      5  O   UNL     1       4.949   0.811   0.528  0.00  0.00    -0.153 OA
ATOM      6  O   UNL     1       3.335  -1.084   0.599  0.00  0.00    -0.153 OA
BRANCH   4  10
ATOM      7  C   UNL     1      -1.121   1.108   2.068  0.00  0.00    +0.047 C 
ATOM      8  C   UNL     1       0.249   1.646   1.743  0.00  0.00    -0.007 A 
ATOM      9  C   UNL     1       1.210   0.810   1.208  0.00  0.00    +0.035 A 
ATOM     10  C   UNL     1       2.466   1.305   0.905  0.00  0.00    +0.106 A 
ATOM     11  C   UNL     1       2.764   2.634   1.141  0.00  0.00    +0.035 A 
ATOM     12  C   UNL     1       1.807   3.472   1.681  0.00  0.00    -0.007 A 
ATOM     13  C   UNL     1       0.547   2.979   1.986  0.00  0.00    +0.126 A 
ATOM     14  C   UNL     1       2.132   4.921   1.937  0.00  0.00    +0.047 C 
BRANCH  13  15
ATOM     15  O   UNL     1      -0.395   3.801   2.518  0.00  0.00    -0.495 OA
ATOM     16  C   UNL     1      -1.246   4.492   1.600  0.00  0.00    +0.277 C 
ENDBRANCH  13  15
ENDBRANCH   4  10
ENDBRANCH   2   4
ENDBRANCH   1   2
BRANCH   1  17
ATOM     17  C   UNL     1       3.949   1.286  -3.634  0.00  0.00    -0.022 C 
BRANCH  17  18
ATOM     18  C   UNL     1       4.348   2.554  -4.345  0.00  0.00    -0.052 A 
ATOM     19  C   UNL     1       5.051   3.515  -3.686  0.00  0.00    +0.002 A 
ATOM     20  C   UNL     1       5.432   4.692  -4.328  0.00  0.00    +0.001 A 
ATOM     21  C   UNL     1       5.104   4.918  -5.630  0.00  0.00    +0.008 A 
ATOM     22  C   UNL     1       4.375   3.951  -6.341  0.00  0.00    -0.018 A 
ATOM     23  C   UNL     1       3.990   2.752  -5.689  0.00  0.00    -0.016 A 
ATOM     24  C   UNL     1       3.261   1.785  -6.401  0.00  0.00    +0.009 A 
ATOM     25  C   UNL     1       2.934   2.011  -7.703  0.00  0.00    +0.001 A 
ATOM     26  C   UNL     1       3.311   3.190  -8.343  0.00  0.00    +0.001 A 
ATOM     27  C   UNL     1       4.018   4.149  -7.686  0.00  0.00    +0.008 A 
ENDBRANCH  17  18
BRANCH  17  30
ATOM     28  C   UNL     1       4.990  -0.206  -5.232  0.00  0.00    -0.096 C 
ATOM     29  C   UNL     1       6.307   0.767  -3.448  0.00  0.00    -0.096 C 
ATOM     30  N   UNL     1       4.977   0.241  -3.823  0.00  0.00    +0.381 N 
ATOM     31  H   UNL     1       4.753  -0.560  -3.221  0.00  0.00    -0.082 HD
ENDBRANCH  17  30
ENDBRANCH   1  17
TORSDOF 7
