REMARK  Name = ZINC13655247
REMARK  6 active torsions:
REMARK  status: ('A' for Active; 'I' for Inactive)
REMARK    1  A    between atoms: C_1  and  C_2
REMARK    2  A    between atoms: C_5  and  C_34
REMARK    3  A    between atoms: N_8  and  C_10
REMARK    4  A    between atoms: C_10  and  C_11
REMARK    5  A    between atoms: C_12  and  O_33
REMARK    6  A    between atoms: C_19  and  C_20
REMARK                            x       y       z     vdW  Elec       q    Type
REMARK                         _______ _______ _______ _____ _____    ______ ____
ROOT
ATOM      1  C   UNL     1       1.358   0.676   3.124  0.00  0.00    +0.020 A 
ATOM      2  C   UNL     1       1.665   1.972   3.506  0.00  0.00    +0.122 A 
ATOM      3  C   UNL     1       1.160   2.499   4.692  0.00  0.00    +0.046 A 
ATOM      4  C   UNL     1       0.354   1.739   5.492  0.00  0.00    +0.019 A 
ATOM      5  C   UNL     1       0.036   0.433   5.119  0.00  0.00    +0.068 A 
ATOM      6  C   UNL     1       0.536  -0.108   3.923  0.00  0.00    +0.144 A 
ATOM      7  O   UNL     1       0.090  -1.375   3.776  0.00  0.00    -0.451 OA
ATOM      8  C   UNL     1      -0.702  -1.753   4.806  0.00  0.00    +0.176 C 
ATOM      9  C   UNL     1      -1.304  -2.961   4.954  0.00  0.00    +0.061 C 
ATOM     10  C   UNL     1      -0.784  -0.622   5.742  0.00  0.00    +0.231 C 
ATOM     11  O   UNL     1      -1.401  -0.566   6.791  0.00  0.00    -0.283 OA
ENDROOT
BRANCH   9  12
ATOM     12  C   UNL     1      -1.194  -3.970   3.894  0.00  0.00    +0.022 A 
ATOM     13  C   UNL     1      -0.200  -3.856   2.914  0.00  0.00    +0.027 A 
ATOM     14  C   UNL     1      -0.105  -4.807   1.921  0.00  0.00    +0.019 A 
ATOM     15  C   UNL     1      -0.989  -5.875   1.887  0.00  0.00    +0.024 A 
ATOM     16  C   UNL     1      -1.976  -5.999   2.848  0.00  0.00    +0.022 A 
ATOM     17  C   UNL     1      -2.081  -5.059   3.859  0.00  0.00    +0.136 A 
ATOM     18  O   UNL     1      -3.035  -5.178   4.817  0.00  0.00    -0.465 OA
ATOM     19  C   UNL     1      -4.118  -6.072   4.545  0.00  0.00    +0.395 C 
ATOM     20  O   UNL     1      -3.580  -7.307   4.060  0.00  0.00    -0.339 OA
ATOM     21  C   UNL     1      -2.929  -7.166   2.790  0.00  0.00    +0.202 C 
ATOM     22 BR   UNL     1       1.238  -4.656   0.598  0.00  0.00    -0.050 Br
ENDBRANCH   9  12
BRANCH   2  23
ATOM     23  O   UNL     1       2.465   2.734   2.718  0.00  0.00    -0.506 OA
ATOM     24  H   UNL     1       1.987   3.252   2.055  0.00  0.00    +0.292 HD
ENDBRANCH   2  23
BRANCH   1  25
ATOM     25  C   UNL     1       1.911   0.119   1.837  0.00  0.00    -0.036 C 
BRANCH  25  31
ATOM     26  C   UNL     1      -1.540   1.566  -0.113  0.00  0.00    +0.005 C 
ATOM     27  C   UNL     1      -1.283   0.057  -0.131  0.00  0.00    -0.031 C 
ATOM     28  C   UNL     1      -0.708  -0.347  -1.491  0.00  0.00    +0.003 C 
ATOM     29  C   UNL     1       0.645   0.344  -1.688  0.00  0.00    -0.031 C 
ATOM     30  C   UNL     1       1.575  -0.028  -0.531  0.00  0.00    -0.075 C 
ATOM     31  N   UNL     1       0.981   0.408   0.738  0.00  0.00    +0.383 N 
ATOM     32  C   UNL     1      -0.283  -0.304   0.969  0.00  0.00    -0.075 C 
ATOM     33  C   UNL     1       1.265  -0.114  -3.010  0.00  0.00    +0.005 C 
ATOM     34  H   UNL     1       0.804   1.401   0.702  0.00  0.00    -0.081 HD
ENDBRANCH  25  31
ENDBRANCH   1  25
TORSDOF 4
