REMARK  Name = ZINC40011338
REMARK  11 active torsions:
REMARK  status: ('A' for Active; 'I' for Inactive)
REMARK    1  A    between atoms: C_1  and  C_2
REMARK    2  A    between atoms: C_2  and  C_3
REMARK    3  A    between atoms: C_2  and  C_4
REMARK    4  A    between atoms: C_16  and  S_18
REMARK    5  A    between atoms: S_18  and  C_19
REMARK    6  A    between atoms: C_19  and  C_20
REMARK    7  A    between atoms: N_22  and  C_23
REMARK    8  A    between atoms: C_26  and  O_31
REMARK    9  A    between atoms: C_28  and  O_29
REMARK   10  A    between atoms: O_29  and  C_30
REMARK   11  A    between atoms: O_31  and  C_32
REMARK                            x       y       z     vdW  Elec       q    Type
REMARK                         _______ _______ _______ _____ _____    ______ ____
ROOT
ATOM      1  C   UNL     1      -1.364  -0.571   0.071  0.00  0.00    -0.044 A 
ATOM      2  C   UNL     1      -2.203  -0.228   1.141  0.00  0.00    +0.006 A 
ATOM      3  C   UNL     1      -3.486  -0.650   1.202  0.00  0.00    +0.026 A 
ATOM      4  C   UNL     1      -4.018  -1.489   0.122  0.00  0.00    +0.046 A 
ATOM      5  N   UNL     1      -5.191  -2.051  -0.052  0.00  0.00    -0.358 N 
ATOM      6  C   UNL     1      -5.222  -2.675  -1.364  0.00  0.00    +0.252 C 
ATOM      7  C   UNL     1      -3.791  -2.641  -1.872  0.00  0.00    +0.117 C 
ATOM      8  C   UNL     1      -3.101  -1.844  -0.991  0.00  0.00    +0.025 A 
ATOM      9  C   UNL     1      -1.781  -1.339  -0.960  0.00  0.00    +0.015 A 
ATOM     10  N   UNL     1      -3.391  -3.399  -2.896  0.00  0.00    -0.147 NA
ATOM     11  N   UNL     1      -4.060  -4.498  -3.072  0.00  0.00    -0.122 NA
ATOM     12  C   UNL     1      -5.053  -4.880  -2.232  0.00  0.00    +0.208 C 
ATOM     13  N   UNL     1      -5.631  -4.079  -1.368  0.00  0.00    -0.227 NA
ATOM     14  H   UNL     1      -5.918  -2.051   0.590  0.00  0.00    +0.162 HD
ENDROOT
BRANCH   1  16
ATOM     15  C   UNL     1       0.042   1.472   0.083  0.00  0.00    +0.012 C 
ATOM     16  C   UNL     1       0.053  -0.058   0.068  0.00  0.00    +0.013 C 
ATOM     17  C   UNL     1       0.786  -0.574   1.308  0.00  0.00    +0.012 C 
ENDBRANCH   1  16
BRANCH  12  18
ATOM     18  S   UNL     1      -5.604  -6.553  -2.306  0.00  0.00    -0.075 S 
BRANCH  18  19
ATOM     19  C   UNL     1      -6.908  -6.641  -1.048  0.00  0.00    +0.173 C 
BRANCH  19  20
ATOM     20  C   UNL     1      -7.472  -8.038  -1.007  0.00  0.00    +0.228 C 
ATOM     21  O   UNL     1      -7.037  -8.890  -1.753  0.00  0.00    -0.275 OA
ATOM     22  N   UNL     1      -8.460  -8.340  -0.142  0.00  0.00    -0.282 N 
ATOM     23  H   UNL     1      -8.764  -7.678   0.499  0.00  0.00    +0.155 HD
BRANCH  22  24
ATOM     24  C   UNL     1      -9.050  -9.613  -0.167  0.00  0.00    +0.076 A 
ATOM     25  C   UNL     1      -8.283 -10.727  -0.473  0.00  0.00    +0.030 A 
ATOM     26  C   UNL     1      -8.863 -11.981  -0.498  0.00  0.00    +0.047 A 
ATOM     27  C   UNL     1     -10.214 -12.128  -0.218  0.00  0.00    +0.124 A 
ATOM     28  C   UNL     1     -10.985 -11.017   0.088  0.00  0.00    +0.093 A 
ATOM     29  C   UNL     1     -10.405  -9.759   0.120  0.00  0.00    +0.145 A 
BRANCH  29  30
ATOM     30  O   UNL     1     -11.158  -8.669   0.425  0.00  0.00    -0.493 OA
ATOM     31  C   UNL     1     -12.540  -8.895   0.709  0.00  0.00    +0.277 C 
ENDBRANCH  29  30
BRANCH  27  32
ATOM     32  O   UNL     1     -10.782 -13.363  -0.243  0.00  0.00    -0.495 OA
ATOM     33  C   UNL     1      -9.930 -14.463  -0.566  0.00  0.00    +0.277 C 
ENDBRANCH  27  32
ENDBRANCH  22  24
ENDBRANCH  19  20
ENDBRANCH  18  19
ENDBRANCH  12  18
TORSDOF 7
