REMARK  Name = ZINC30977296
REMARK  15 active torsions:
REMARK  status: ('A' for Active; 'I' for Inactive)
REMARK    1  A    between atoms: C_1  and  C_2
REMARK    2  A    between atoms: C_2  and  C_3
REMARK    3  A    between atoms: C_2  and  O_4
REMARK    4  A    between atoms: O_4  and  C_5
REMARK    5  A    between atoms: C_5  and  C_6
REMARK    6  A    between atoms: C_6  and  C_7
REMARK    7  A    between atoms: C_7  and  N_8
REMARK    8  A    between atoms: C_9  and  C_11
REMARK    9  A    between atoms: N_14  and  C_17
REMARK   10  A    between atoms: C_17  and  C_18
REMARK   11  A    between atoms: C_20  and  C_23
REMARK   12  A    between atoms: C_26  and  C_29
REMARK   13  A    between atoms: C_29  and  C_30
REMARK   14  A    between atoms: C_29  and  C_31
REMARK   15  A    between atoms: C_29  and  C_32
REMARK                            x       y       z     vdW  Elec       q    Type
REMARK                         _______ _______ _______ _____ _____    ______ ____
ROOT
ATOM      1  C   UNL     1      -1.330   1.944   0.019  0.00  0.00    +0.071 C 
ATOM      2  C   UNL     1      -1.421   2.811   1.278  0.00  0.00    -0.006 C 
ATOM      3  C   UNL     1      -2.783   3.508   1.313  0.00  0.00    -0.077 C 
ATOM      4  N   UNL     1      -3.851   2.500   1.313  0.00  0.00    +0.386 N 
ATOM      5  C   UNL     1      -3.812   1.686   0.091  0.00  0.00    -0.077 C 
ATOM      6  C   UNL     1      -2.481   0.935   0.019  0.00  0.00    -0.006 C 
ATOM      7  H   UNL     1      -3.679   1.829   2.167  0.00  0.00    -0.081 HD
ENDROOT
BRANCH   1   9
ATOM      8  N   UNL     1       1.143   1.898   0.001  0.00  0.00    -0.315 N 
ATOM      9  C   UNL     1      -0.014   1.209   0.009  0.00  0.00    +0.216 C 
ATOM     10  O   UNL     1       0.002  -0.004   0.002  0.00  0.00    -0.276 OA
ATOM     11  H   UNL     1       1.129   2.998   0.007  0.00  0.00    +0.149 HD
BRANCH   8  12
ATOM     12  C   UNL     1       2.422   1.183  -0.015  0.00  0.00    +0.106 C 
BRANCH  12  13
ATOM     13  C   UNL     1       3.571   2.193  -0.020  0.00  0.00    +0.047 C 
BRANCH  13  14
ATOM     14  C   UNL     1       4.907   1.446  -0.037  0.00  0.00    +0.161 C 
BRANCH  14  15
ATOM     15  O   UNL     1       5.980   2.389  -0.042  0.00  0.00    -0.377 OA
BRANCH  15  17
ATOM     16  C   UNL     1       8.257   2.719  -0.783  0.00  0.00    +0.037 C 
ATOM     17  C   UNL     1       7.278   1.793  -0.058  0.00  0.00    +0.112 C 
ATOM     18  C   UNL     1       7.755   1.572   1.379  0.00  0.00    +0.037 C 
ENDBRANCH  15  17
ENDBRANCH  14  15
ENDBRANCH  13  14
ENDBRANCH  12  13
ENDBRANCH   8  12
ENDBRANCH   1   9
BRANCH   4  19
ATOM     19  C   UNL     1      -5.168   3.127   1.486  0.00  0.00    +0.022 C 
BRANCH  19  20
ATOM     20  C   UNL     1      -5.253   3.747   2.857  0.00  0.00    +0.211 A 
ATOM     21  N   UNL     1      -4.917   4.970   3.180  0.00  0.00    -0.193 NA
ATOM     22  C   UNL     1      -5.162   5.077   4.505  0.00  0.00    +0.202 A 
ATOM     23  N   UNL     1      -5.629   3.922   4.905  0.00  0.00    -0.056 NA
ATOM     24  O   UNL     1      -5.691   3.152   3.971  0.00  0.00    -0.340 OA
BRANCH  22  25
ATOM     25  C   UNL     1      -4.943   6.278   5.348  0.00  0.00    +0.022 A 
ATOM     26  C   UNL     1      -4.431   7.445   4.784  0.00  0.00    +0.012 A 
ATOM     27  C   UNL     1      -4.234   8.561   5.572  0.00  0.00    +0.005 A 
ATOM     28  C   UNL     1      -4.534   8.520   6.921  0.00  0.00    -0.042 A 
ATOM     29  C   UNL     1      -5.038   7.363   7.488  0.00  0.00    +0.005 A 
ATOM     30  C   UNL     1      -5.244   6.242   6.708  0.00  0.00    +0.012 A 
BRANCH  28  31
ATOM     31  C   UNL     1      -4.311   9.739   7.777  0.00  0.00    -0.013 C 
ATOM     32  C   UNL     1      -3.314   9.406   8.890  0.00  0.00    +0.015 C 
ATOM     33  C   UNL     1      -3.752  10.873   6.915  0.00  0.00    +0.015 C 
ATOM     34  C   UNL     1      -5.639  10.178   8.397  0.00  0.00    +0.015 C 
ENDBRANCH  28  31
ENDBRANCH  22  25
ENDBRANCH  19  20
ENDBRANCH   4  19
TORSDOF 10
