REMARK  Name = ZINC66817078
REMARK  7 active torsions:
REMARK  status: ('A' for Active; 'I' for Inactive)
REMARK    1  A    between atoms: C_1  and  C_2
REMARK    2  A    between atoms: C_2  and  C_4
REMARK    3  A    between atoms: C_2  and  N_11
REMARK    4  A    between atoms: C_12  and  C_14
REMARK    5  A    between atoms: C_14  and  C_16
REMARK    6  A    between atoms: C_14  and  N_17
REMARK    7  A    between atoms: C_18  and  C_20
REMARK                            x       y       z     vdW  Elec       q    Type
REMARK                         _______ _______ _______ _____ _____    ______ ____
ROOT
ATOM      1  N   UNL     1      -1.372  -0.511   0.012  0.00  0.00    -0.307 N 
ATOM      2  C   UNL     1      -2.051  -0.643  -1.145  0.00  0.00    +0.234 C 
ATOM      3  O   UNL     1      -1.524  -0.341  -2.194  0.00  0.00    -0.274 OA
ATOM      4  H   UNL     1      -1.794  -0.752   0.852  0.00  0.00    +0.149 HD
ENDROOT
BRANCH   1   6
ATOM      5  C   UNL     1      -0.019   1.526   0.010  0.00  0.00    +0.033 C 
ATOM      6  C   UNL     1       0.002  -0.004   0.002  0.00  0.00    +0.100 C 
BRANCH   6   7
ATOM      7  C   UNL     1       0.731  -0.503   1.223  0.00  0.00    -0.027 A 
ATOM      8  C   UNL     1       0.081  -0.558   2.442  0.00  0.00    +0.006 A 
ATOM      9  C   UNL     1       0.749  -1.017   3.562  0.00  0.00    +0.015 A 
ATOM     10  C   UNL     1       2.068  -1.420   3.463  0.00  0.00    +0.018 A 
ATOM     11  C   UNL     1       2.718  -1.365   2.243  0.00  0.00    +0.015 A 
ATOM     12  C   UNL     1       2.048  -0.911   1.123  0.00  0.00    +0.006 A 
ATOM     13 BR   UNL     1       2.983  -2.046   4.995  0.00  0.00    -0.050 Br
ENDBRANCH   6   7
ENDBRANCH   1   6
BRANCH   2  14
ATOM     14  C   UNL     1      -3.465  -1.164  -1.134  0.00  0.00    +0.156 C 
ATOM     15  C   UNL     1      -3.485  -2.571  -0.532  0.00  0.00    +0.038 C 
BRANCH  14  16
ATOM     16  N   UNL     1      -3.978  -1.213  -2.505  0.00  0.00    -0.304 N 
ATOM     17  C   UNL     1      -5.305  -1.151  -2.731  0.00  0.00    +0.217 C 
ATOM     18  O   UNL     1      -6.075  -1.054  -1.799  0.00  0.00    -0.275 OA
ATOM     19  H   UNL     1      -3.362  -1.290  -3.251  0.00  0.00    +0.149 HD
BRANCH  17  20
ATOM     20  C   UNL     1      -5.832  -1.201  -4.142  0.00  0.00    +0.079 C 
ATOM     21  C   UNL     1      -5.275  -0.018  -4.940  0.00  0.00    +0.041 C 
ATOM     22  C   UNL     1      -5.878  -0.032  -6.347  0.00  0.00    +0.160 C 
ATOM     23  O   UNL     1      -7.303   0.021  -6.254  0.00  0.00    -0.380 OA
ATOM     24  C   UNL     1      -7.884  -1.085  -5.559  0.00  0.00    +0.160 C 
ATOM     25  C   UNL     1      -7.362  -1.113  -4.120  0.00  0.00    +0.041 C 
ENDBRANCH  17  20
ENDBRANCH  14  16
ENDBRANCH   2  14
TORSDOF 5
