REMARK  Name = ZINC35370225
REMARK  7 active torsions:
REMARK  status: ('A' for Active; 'I' for Inactive)
REMARK    1  A    between atoms: C_4  and  S_7
REMARK    2  A    between atoms: S_7  and  C_8
REMARK    3  A    between atoms: C_8  and  C_9
REMARK    4  A    between atoms: C_18  and  C_22
REMARK    5  A    between atoms: N_24  and  C_25
REMARK    6  A    between atoms: C_25  and  C_26
REMARK    7  A    between atoms: C_26  and  C_27
REMARK                            x       y       z     vdW  Elec       q    Type
REMARK                         _______ _______ _______ _____ _____    ______ ____
ROOT
ATOM      1  C   UNL     1       4.705  -3.433  -0.063  0.00  0.00    +0.226 C 
ATOM      2  O   UNL     1       5.801  -2.913  -0.072  0.00  0.00    -0.275 OA
ATOM      3  N   UNL     1       4.597  -4.777  -0.069  0.00  0.00    -0.301 N 
ATOM      4  C   UNL     1       3.276  -5.420  -0.065  0.00  0.00    +0.107 C 
ATOM      5  C   UNL     1       3.210  -6.400   1.113  0.00  0.00    +0.017 C 
ATOM      6  C   UNL     1       4.396  -7.350   1.049  0.00  0.00    -0.016 C 
ATOM      7  C   UNL     1       5.719  -6.603   1.098  0.00  0.00    +0.017 C 
ATOM      8  C   UNL     1       5.798  -5.624  -0.086  0.00  0.00    +0.107 C 
ATOM      9  N   UNL     1       4.319  -8.215  -0.147  0.00  0.00    +0.397 N 
ATOM     10  C   UNL     1       4.877  -9.559   0.107  0.00  0.00    +0.028 C 
ATOM     11  C   UNL     1       4.282 -10.104   1.440  0.00  0.00    +0.061 C 
ATOM     12  S   UNL     1       4.307  -8.550   2.436  0.00  0.00    -0.174 S 
ATOM     13  H   UNL     1       3.353  -8.308  -0.423  0.00  0.00    -0.083 HD
ATOM     14  H   UNL     1       4.834  -7.782  -0.899  0.00  0.00    -0.083 HD
ENDROOT
BRANCH  10  15
ATOM     15  C   UNL     1       4.506 -10.482  -1.025  0.00  0.00    +0.200 C 
ATOM     16  O   UNL     1       3.844 -10.069  -1.953  0.00  0.00    -0.278 OA
ATOM     17  N   UNL     1       4.911 -11.768  -1.005  0.00  0.00    -0.316 N 
ATOM     18  H   UNL     1       5.441 -12.098  -0.263  0.00  0.00    +0.149 HD
BRANCH  17  19
ATOM     19  C   UNL     1       4.551 -12.666  -2.105  0.00  0.00    +0.109 C 
BRANCH  19  20
ATOM     20  C   UNL     1       5.131 -14.057  -1.839  0.00  0.00    +0.055 C 
BRANCH  20  21
ATOM     21  C   UNL     1       4.761 -14.980  -2.970  0.00  0.00    -0.027 A 
ATOM     22  C   UNL     1       3.640 -15.784  -2.868  0.00  0.00    +0.006 A 
ATOM     23  C   UNL     1       3.300 -16.631  -3.906  0.00  0.00    +0.020 A 
ATOM     24  C   UNL     1       4.081 -16.676  -5.047  0.00  0.00    +0.042 A 
ATOM     25  C   UNL     1       5.202 -15.872  -5.150  0.00  0.00    +0.040 A 
ATOM     26  C   UNL     1       5.539 -15.021  -4.113  0.00  0.00    +0.046 A 
ATOM     27 CL   UNL     1       6.943 -14.007  -4.244  0.00  0.00    -0.083 Cl
ATOM     28 CL   UNL     1       3.654 -17.741  -6.350  0.00  0.00    -0.083 Cl
ENDBRANCH  20  21
ENDBRANCH  19  20
ENDBRANCH  17  19
ENDBRANCH  10  15
BRANCH   1  29
ATOM     29  C   UNL     1       3.465  -2.578  -0.046  0.00  0.00    +0.170 C 
BRANCH  29  30
ATOM     30  S   UNL     1       3.939  -0.827  -0.042  0.00  0.00    -0.116 S 
BRANCH  30  34
ATOM     31  C   UNL     1      -0.017   1.379   0.010  0.00  0.00    +0.000 A 
ATOM     32  C   UNL     1       1.169   2.090   0.002  0.00  0.00    +0.001 A 
ATOM     33  C   UNL     1       2.377   1.421  -0.013  0.00  0.00    +0.015 A 
ATOM     34  C   UNL     1       2.400   0.031  -0.021  0.00  0.00    +0.008 A 
ATOM     35  C   UNL     1       1.206  -0.680  -0.013  0.00  0.00    +0.015 A 
ATOM     36  C   UNL     1       0.002  -0.004   0.002  0.00  0.00    +0.001 A 
ENDBRANCH  30  34
ENDBRANCH  29  30
ENDBRANCH   1  29
TORSDOF 7
