REMARK  Name = ZINC09007772
REMARK  12 active torsions:
REMARK  status: ('A' for Active; 'I' for Inactive)
REMARK    1  A    between atoms: C_1  and  N_2
REMARK    2  A    between atoms: C_3  and  O_35
REMARK    3  A    between atoms: C_4  and  C_10
REMARK    4  A    between atoms: C_10  and  C_12
REMARK    5  A    between atoms: C_10  and  C_25
REMARK    6  A    between atoms: C_15  and  O_23
REMARK    7  A    between atoms: C_16  and  C_18
REMARK    8  A    between atoms: C_18  and  N_61
REMARK    9  A    between atoms: O_23  and  C_24
REMARK   10  A    between atoms: C_26  and  O_34
REMARK   11  A    between atoms: C_28  and  S_33
REMARK   12  A    between atoms: N_29  and  C_32
REMARK                            x       y       z     vdW  Elec       q    Type
REMARK                         _______ _______ _______ _____ _____    ______ ____
ROOT
ATOM      1  C   UNL     1       2.727   0.940  -0.121  0.00  0.00    +0.100 C 
ENDROOT
BRANCH   1   5
ATOM      2  C   UNL     1      -1.404   3.288   1.247  0.00  0.00    +0.154 C 
ATOM      3  N   UNL     1      -0.490   2.830   0.198  0.00  0.00    -0.294 N 
ATOM      4  C   UNL     1       0.637   2.131   0.533  0.00  0.00    +0.204 A 
ATOM      5  C   UNL     1       1.476   1.712  -0.454  0.00  0.00    +0.090 A 
ATOM      6  C   UNL     1       1.154   2.013  -1.795  0.00  0.00    +0.282 A 
ATOM      7  O   UNL     1       1.891   1.648  -2.700  0.00  0.00    -0.265 OA
ATOM      8  N   UNL     1       0.039   2.706  -2.072  0.00  0.00    -0.184 NA
ATOM      9  C   UNL     1      -0.767   3.101  -1.108  0.00  0.00    +0.186 A 
ATOM     10  S   UNL     1      -2.225   4.002  -1.515  0.00  0.00    -0.011 SA
BRANCH   4  11
ATOM     11  O   UNL     1       0.915   1.861   1.828  0.00  0.00    -0.493 OA
ATOM     12  H   UNL     1       1.447   2.540   2.266  0.00  0.00    +0.294 HD
ENDBRANCH   4  11
ENDBRANCH   1   5
BRANCH   1  13
ATOM     13  C   UNL     1       2.540   0.225   1.192  0.00  0.00    +0.090 A 
ATOM     14  C   UNL     1       3.439   0.409   2.229  0.00  0.00    +0.224 A 
ATOM     15  N   UNL     1       3.256  -0.230   3.388  0.00  0.00    -0.189 NA
ATOM     16  C   UNL     1       2.236  -1.046   3.564  0.00  0.00    +0.172 A 
ATOM     17  N   UNL     1       1.326  -1.265   2.574  0.00  0.00    -0.291 N 
ATOM     18  C   UNL     1       1.458  -0.643   1.384  0.00  0.00    +0.262 A 
ATOM     19  O   UNL     1       0.649  -0.834   0.490  0.00  0.00    -0.267 OA
ATOM     20  C   UNL     1       0.203  -2.178   2.802  0.00  0.00    +0.154 C 
BRANCH  16  21
ATOM     21  S   UNL     1       2.045  -1.868   5.111  0.00  0.00    -0.105 S 
ATOM     22  H   UNL     1       3.166  -1.361   5.798  0.00  0.00    +0.110 HD
ENDBRANCH  16  21
BRANCH  14  23
ATOM     23  O   UNL     1       4.497   1.237   2.071  0.00  0.00    -0.492 OA
ATOM     24  H   UNL     1       5.067   1.300   2.850  0.00  0.00    +0.294 HD
ENDBRANCH  14  23
ENDBRANCH   1  13
BRANCH   1  25
ATOM     25  C   UNL     1       2.999  -0.068  -1.208  0.00  0.00    -0.035 A 
ATOM     26  C   UNL     1       1.950  -0.749  -1.797  0.00  0.00    +0.008 A 
ATOM     27  C   UNL     1       2.196  -1.669  -2.797  0.00  0.00    +0.046 A 
ATOM     28  C   UNL     1       3.500  -1.917  -3.203  0.00  0.00    +0.121 A 
ATOM     29  C   UNL     1       4.551  -1.237  -2.607  0.00  0.00    -0.022 A 
ATOM     30  C   UNL     1       4.299  -0.314  -1.611  0.00  0.00    +0.010 A 
BRANCH  28  31
ATOM     31  O   UNL     1       3.746  -2.826  -4.183  0.00  0.00    -0.495 OA
ATOM     32  C   UNL     1       2.615  -3.489  -4.752  0.00  0.00    +0.277 C 
ENDBRANCH  28  31
BRANCH  29  33
ATOM     33  C   UNL     1       5.968  -1.504  -3.046  0.00  0.00    -0.039 C 
BRANCH  33  38
ATOM     34  C   UNL     1       5.938   0.586  -4.296  0.00  0.00    -0.078 C 
ATOM     35  C   UNL     1       6.713   1.134  -5.521  0.00  0.00    -0.020 C 
ATOM     36  C   UNL     1       7.988   0.261  -5.543  0.00  0.00    -0.020 C 
ATOM     37  C   UNL     1       7.617  -1.014  -4.762  0.00  0.00    -0.078 C 
ATOM     38  N   UNL     1       6.215  -0.858  -4.370  0.00  0.00    +0.382 N 
ATOM     39  H   UNL     1       5.608  -1.291  -5.075  0.00  0.00    -0.081 HD
ENDBRANCH  33  38
ENDBRANCH  29  33
ENDBRANCH   1  25
TORSDOF 9
