REMARK  Name = ZINC59484254
REMARK  5 active torsions:
REMARK  status: ('A' for Active; 'I' for Inactive)
REMARK    1  A    between atoms: C_4  and  C_7
REMARK    2  A    between atoms: C_8  and  C_22
REMARK    3  A    between atoms: N_12  and  N_13
REMARK    4  A    between atoms: C_14  and  C_15
REMARK    5  A    between atoms: C_25  and  N_28
REMARK                            x       y       z     vdW  Elec       q    Type
REMARK                         _______ _______ _______ _____ _____    ______ ____
ROOT
ATOM      1  C   UNL     1       3.694  -0.675   0.004  0.00  0.00    +0.063 A 
ATOM      2  C   UNL     1       3.740  -2.087   0.054  0.00  0.00    +0.047 A 
ATOM      3  S   UNL     1       5.385  -2.420  -0.057  0.00  0.00    -0.048 S 
ATOM      4  C   UNL     1       5.992  -0.747  -0.166  0.00  0.00    +0.193 A 
ATOM      5  N   UNL     1       4.839  -0.012  -0.113  0.00  0.00    -0.332 N 
ATOM      6  N   UNL     1       7.247  -0.321  -0.276  0.00  0.00    -0.124 NA
ATOM      7  H   UNL     1       4.857   0.957  -0.156  0.00  0.00    +0.168 HD
ENDROOT
BRANCH   1  11
ATOM      8  C   UNL     1      -0.004   1.392   0.204  0.00  0.00    +0.000 A 
ATOM      9  C   UNL     1       0.271   0.383   1.112  0.00  0.00    +0.001 A 
ATOM     10  C   UNL     1       1.470  -0.294   1.054  0.00  0.00    +0.010 A 
ATOM     11  C   UNL     1       2.412   0.041   0.073  0.00  0.00    -0.001 A 
ATOM     12  C   UNL     1       2.126   1.063  -0.842  0.00  0.00    +0.010 A 
ATOM     13  C   UNL     1       0.922   1.730  -0.770  0.00  0.00    +0.001 A 
ENDBRANCH   1  11
BRANCH   2  14
ATOM     14  C   UNL     1       2.621  -3.035   0.175  0.00  0.00    -0.009 A 
ATOM     15  C   UNL     1       1.490  -2.898  -0.639  0.00  0.00    +0.011 A 
ATOM     16  C   UNL     1       0.447  -3.790  -0.520  0.00  0.00    +0.033 A 
ATOM     17  C   UNL     1       0.514  -4.821   0.403  0.00  0.00    +0.126 A 
ATOM     18  C   UNL     1       1.629  -4.964   1.213  0.00  0.00    +0.033 A 
ATOM     19  C   UNL     1       2.684  -4.083   1.102  0.00  0.00    +0.011 A 
BRANCH  17  20
ATOM     20  N   UNL     1      -0.611  -5.774   0.525  0.00  0.00    +0.056 N 
ATOM     21  O   UNL     1      -1.673  -5.641  -0.243  0.00  0.00    -0.126 OA
ATOM     22  O   UNL     1      -0.551  -6.755   1.401  0.00  0.00    -0.126 OA
ENDBRANCH  17  20
ENDBRANCH   2  14
BRANCH   6  23
ATOM     23  N   UNL     1       7.496   0.943  -0.343  0.00  0.00    -0.155 NA
ATOM     24  C   UNL     1       8.746   1.367  -0.452  0.00  0.00    +0.143 C 
BRANCH  24  25
ATOM     25  C   UNL     1       9.028   2.798  -0.528  0.00  0.00    -0.004 A 
ATOM     26  C   UNL     1       7.977   3.730  -0.479  0.00  0.00    +0.009 A 
ATOM     27  C   UNL     1       8.253   5.077  -0.550  0.00  0.00    +0.002 A 
ATOM     28  C   UNL     1       9.562   5.516  -0.671  0.00  0.00    +0.015 A 
ATOM     29  C   UNL     1      10.607   4.605  -0.720  0.00  0.00    +0.018 A 
ATOM     30  C   UNL     1      10.352   3.253  -0.644  0.00  0.00    +0.024 A 
ATOM     31 BR   UNL     1      12.387   5.221  -0.885  0.00  0.00    -0.050 Br
ENDBRANCH  24  25
ENDBRANCH   6  23
TORSDOF 5
