REMARK  Name = ZINC05504094
REMARK  4 active torsions:
REMARK  status: ('A' for Active; 'I' for Inactive)
REMARK    1  A    between atoms: C_1  and  C_2
REMARK    2  A    between atoms: N_12  and  C_13
REMARK    3  A    between atoms: C_14  and  C_15
REMARK    4  A    between atoms: C_14  and  C_18
REMARK                            x       y       z     vdW  Elec       q    Type
REMARK                         _______ _______ _______ _____ _____    ______ ____
ROOT
ATOM      1  C   UNL     1      -5.820   1.037  -3.438  0.00  0.00    +0.044 C 
ATOM      2  C   UNL     1      -4.561   1.134  -2.615  0.00  0.00    -0.048 A 
ATOM      3  C   UNL     1      -3.504   0.277  -2.869  0.00  0.00    +0.005 A 
ATOM      4  C   UNL     1      -2.346   0.358  -2.120  0.00  0.00    +0.028 A 
ATOM      5  C   UNL     1      -2.243   1.302  -1.110  0.00  0.00    +0.072 A 
ATOM      6  C   UNL     1      -3.309   2.166  -0.853  0.00  0.00    +0.066 A 
ATOM      7  C   UNL     1      -4.467   2.077  -1.611  0.00  0.00    +0.031 A 
ATOM      8  N   UNL     1      -2.917   2.987   0.201  0.00  0.00    -0.333 N 
ATOM      9  H   UNL     1      -3.602   3.761   0.580  0.00  0.00    +0.168 HD
ATOM     10  C   UNL     1      -1.672   2.635   0.574  0.00  0.00    +0.163 A 
ATOM     11  S   UNL     1      -0.779   3.365   1.839  0.00  0.00    -0.013 S 
ATOM     12  N   UNL     1      -1.235   1.625  -0.201  0.00  0.00    -0.294 N 
ENDROOT
BRANCH  12  13
ATOM     13  C   UNL     1      -0.017   1.018  -0.110  0.00  0.00    +0.112 C 
ATOM     14  C   UNL     1       1.133   1.752  -0.289  0.00  0.00    +0.114 C 
BRANCH  14  15
ATOM     15  C   UNL     1       2.445   1.130  -0.065  0.00  0.00    +0.248 C 
ATOM     16  O   UNL     1       2.519  -0.058   0.190  0.00  0.00    -0.270 OA
ATOM     17  N   UNL     1       3.566   1.874  -0.140  0.00  0.00    -0.325 N 
ATOM     18  H   UNL     1       4.548   1.408   0.028  0.00  0.00    +0.145 HD
ATOM     19  H   UNL     1       3.499   2.948  -0.370  0.00  0.00    +0.145 HD
ENDBRANCH  14  15
BRANCH  14  20
ATOM     20  C   UNL     1       1.049   3.159  -0.705  0.00  0.00    +0.248 C 
ATOM     21  O   UNL     1       1.280   4.045   0.096  0.00  0.00    -0.270 OA
ATOM     22  N   UNL     1       0.716   3.468  -1.974  0.00  0.00    -0.325 N 
ATOM     23  H   UNL     1       0.653   4.521  -2.286  0.00  0.00    +0.145 HD
ATOM     24  H   UNL     1       0.507   2.667  -2.699  0.00  0.00    +0.145 HD
ENDBRANCH  14  20
ENDBRANCH  12  13
TORSDOF 3
