REMARK  Name = ZINC38670309
REMARK  10 active torsions:
REMARK  status: ('A' for Active; 'I' for Inactive)
REMARK    1  A    between atoms: C_1  and  C_2
REMARK    2  A    between atoms: C_4  and  S_10
REMARK    3  A    between atoms: S_10  and  N_13
REMARK    4  A    between atoms: N_13  and  C_14
REMARK    5  A    between atoms: C_14  and  C_15
REMARK    6  A    between atoms: C_15  and  C_17
REMARK    7  A    between atoms: C_15  and  N_28
REMARK    8  A    between atoms: N_26  and  C_27
REMARK    9  A    between atoms: N_28  and  C_29
REMARK   10  A    between atoms: N_28  and  C_30
REMARK                            x       y       z     vdW  Elec       q    Type
REMARK                         _______ _______ _______ _____ _____    ______ ____
ROOT
ATOM      1  C   UNL     1       2.830  -5.423  -2.667  0.00  0.00    -0.023 C 
ENDROOT
BRANCH   1   2
ATOM      2  C   UNL     1       3.117  -6.677  -1.881  0.00  0.00    -0.059 A 
ATOM      3  C   UNL     1       2.373  -7.820  -2.110  0.00  0.00    +0.004 A 
ATOM      4  C   UNL     1       2.635  -8.968  -1.389  0.00  0.00    +0.023 A 
ATOM      5  C   UNL     1       3.647  -8.974  -0.435  0.00  0.00    +0.033 A 
ATOM      6  C   UNL     1       4.394  -7.829  -0.208  0.00  0.00    -0.026 A 
ATOM      7  C   UNL     1       4.126  -6.683  -0.938  0.00  0.00    +0.007 A 
ATOM      8  C   UNL     1       5.504  -7.802   0.809  0.00  0.00    +0.038 C 
ATOM      9  C   UNL     1       5.327  -8.931   1.824  0.00  0.00    +0.024 C 
ATOM     10  C   UNL     1       5.135 -10.252   1.068  0.00  0.00    +0.105 C 
ATOM     11  N   UNL     1       3.894 -10.146   0.288  0.00  0.00    -0.333 N 
ATOM     12  C   UNL     1       2.930 -11.250   0.269  0.00  0.00    +0.129 C 
ENDBRANCH   1   2
BRANCH   1  13
ATOM     13  N   UNL     1       2.539  -5.776  -4.063  0.00  0.00    +0.381 N 
ATOM     14  C   UNL     1       2.342  -4.550  -4.847  0.00  0.00    -0.096 C 
ATOM     15  C   UNL     1       3.664  -6.539  -4.620  0.00  0.00    -0.096 C 
ATOM     16  H   UNL     1       1.701  -6.338  -4.100  0.00  0.00    -0.082 HD
ENDBRANCH   1  13
BRANCH   1  17
ATOM     17  C   UNL     1       1.622  -4.707  -2.060  0.00  0.00    +0.095 C 
BRANCH  17  18
ATOM     18  N   UNL     1       1.947  -4.268  -0.700  0.00  0.00    -0.191 NA
ATOM     19  H   UNL     1       2.729  -4.624  -0.250  0.00  0.00    +0.148 HD
BRANCH  18  20
ATOM     20  S   UNL     1       0.979  -3.165   0.068  0.00  0.00    +0.060 S 
ATOM     21  O   UNL     1       0.777  -2.096  -0.847  0.00  0.00    -0.153 OA
ATOM     22  O   UNL     1       1.535  -2.968   1.360  0.00  0.00    -0.153 OA
BRANCH  20  26
ATOM     23  C   UNL     1      -2.777  -5.063   3.167  0.00  0.00    +0.045 C 
ATOM     24  C   UNL     1      -2.280  -4.782   1.772  0.00  0.00    -0.030 A 
ATOM     25  C   UNL     1      -1.048  -4.185   1.585  0.00  0.00    +0.034 A 
ATOM     26  C   UNL     1      -0.592  -3.927   0.306  0.00  0.00    +0.124 A 
ATOM     27  C   UNL     1      -1.369  -4.266  -0.788  0.00  0.00    +0.069 A 
ATOM     28  C   UNL     1      -2.602  -4.864  -0.601  0.00  0.00    +0.042 A 
ATOM     29  C   UNL     1      -3.056  -5.127   0.679  0.00  0.00    +0.045 A 
ATOM     30 CL   UNL     1      -4.601  -5.882   0.915  0.00  0.00    -0.083 Cl
ATOM     31 CL   UNL     1      -0.796  -3.942  -2.394  0.00  0.00    -0.081 Cl
ENDBRANCH  20  26
ENDBRANCH  18  20
ENDBRANCH  17  18
ENDBRANCH   1  17
TORSDOF 6
