REMARK  Name = ZINC55020113
REMARK  5 active torsions:
REMARK  status: ('A' for Active; 'I' for Inactive)
REMARK    1  A    between atoms: C_1  and  N_2
REMARK    2  A    between atoms: N_2  and  C_3
REMARK    3  A    between atoms: N_2  and  C_19
REMARK    4  A    between atoms: C_3  and  C_4
REMARK    5  A    between atoms: N_6  and  N_7
REMARK                            x       y       z     vdW  Elec       q    Type
REMARK                         _______ _______ _______ _____ _____    ______ ____
ROOT
ATOM      1  C   UNL     1      -1.383  -0.893   1.784  0.00  0.00    +0.247 C 
ATOM      2  O   UNL     1      -2.319  -0.529   1.105  0.00  0.00    -0.273 OA
ATOM      3  N   UNL     1      -1.602  -1.443   2.995  0.00  0.00    -0.222 N 
ATOM      4  H   UNL     1      -0.853  -1.734   3.538  0.00  0.00    +0.174 HD
ENDROOT
BRANCH   3   5
ATOM      5  N   UNL     1      -2.912  -1.595   3.468  0.00  0.00    -0.137 N 
ATOM      6  C   UNL     1      -3.471  -0.816   4.417  0.00  0.00    +0.263 C 
ATOM      7  O   UNL     1      -2.955   0.114   5.000  0.00  0.00    -0.271 OA
ATOM      8  C   UNL     1      -4.874  -1.345   4.599  0.00  0.00    +0.114 C 
ATOM      9  C   UNL     1      -5.898  -0.270   4.252  0.00  0.00    +0.035 C 
ATOM     10  C   UNL     1      -7.311  -0.836   4.414  0.00  0.00    +0.003 C 
ATOM     11  C   UNL     1      -7.509  -1.305   5.857  0.00  0.00    +0.000 C 
ATOM     12  C   UNL     1      -6.491  -2.400   6.183  0.00  0.00    +0.003 C 
ATOM     13  C   UNL     1      -5.074  -1.840   6.028  0.00  0.00    +0.035 C 
ATOM     14  N   UNL     1      -4.960  -2.463   3.651  0.00  0.00    -0.284 N 
ATOM     15  C   UNL     1      -3.766  -2.529   3.031  0.00  0.00    +0.326 C 
ATOM     16  O   UNL     1      -3.493  -3.346   2.174  0.00  0.00    -0.251 OA
ATOM     17  H   UNL     1      -5.726  -3.038   3.498  0.00  0.00    +0.151 HD
ENDBRANCH   3   5
BRANCH   1  18
ATOM     18  C   UNL     1       0.026  -0.729   1.275  0.00  0.00    +0.202 C 
BRANCH  18  20
ATOM     19  C   UNL     1      -0.029   1.459  -0.010  0.00  0.00    +0.130 C 
ATOM     20  N   UNL     1       0.004  -0.006   0.001  0.00  0.00    -0.324 N 
BRANCH  20  21
ATOM     21  C   UNL     1       0.014  -0.711  -1.200  0.00  0.00    +0.038 A 
ATOM     22  C   UNL     1      -1.169  -0.999  -1.848  0.00  0.00    +0.024 A 
ATOM     23  C   UNL     1      -1.169  -1.703  -3.048  0.00  0.00    +0.002 A 
ATOM     24  C   UNL     1      -0.006  -2.126  -3.616  0.00  0.00    +0.008 A 
ATOM     25  C   UNL     1       1.221  -1.853  -2.989  0.00  0.00    -0.016 A 
ATOM     26  C   UNL     1       1.235  -1.132  -1.769  0.00  0.00    +0.003 A 
ATOM     27  C   UNL     1       2.462  -0.856  -1.146  0.00  0.00    +0.010 A 
ATOM     28  C   UNL     1       3.621  -1.278  -1.723  0.00  0.00    +0.001 A 
ATOM     29  C   UNL     1       3.609  -1.982  -2.926  0.00  0.00    +0.001 A 
ATOM     30  C   UNL     1       2.437  -2.277  -3.552  0.00  0.00    +0.008 A 
ENDBRANCH  20  21
ENDBRANCH  18  20
ENDBRANCH   1  18
TORSDOF 4
