REMARK  Name = ZINC35827649
REMARK  6 active torsions:
REMARK  status: ('A' for Active; 'I' for Inactive)
REMARK    1  A    between atoms: C_1  and  C_2
REMARK    2  A    between atoms: C_5  and  C_33
REMARK    3  A    between atoms: C_7  and  C_32
REMARK    4  A    between atoms: C_10  and  C_12
REMARK    5  A    between atoms: C_17  and  C_28
REMARK    6  A    between atoms: C_20  and  C_23
REMARK                            x       y       z     vdW  Elec       q    Type
REMARK                         _______ _______ _______ _____ _____    ______ ____
ROOT
ATOM      1  C   UNL     1       2.796  -0.663   2.533  0.00  0.00    +0.149 A 
ATOM      2  C   UNL     1       4.030  -1.253   2.889  0.00  0.00    +0.078 A 
ATOM      3  C   UNL     1       3.955  -1.601   4.188  0.00  0.00    +0.119 A 
ATOM      4  N   UNL     1       2.720  -1.248   4.653  0.00  0.00    -0.238 N 
ATOM      5  N   UNL     1       2.018  -0.660   3.601  0.00  0.00    -0.164 NA
ATOM      6  C   UNL     1       2.276  -1.469   6.032  0.00  0.00    +0.215 C 
ATOM      7  C   UNL     1       3.507  -1.676   6.922  0.00  0.00    +0.066 C 
ATOM      8  C   UNL     1       4.432  -2.727   6.298  0.00  0.00    +0.140 C 
ATOM      9  N   UNL     1       4.913  -2.217   4.999  0.00  0.00    -0.319 N 
ATOM     10  H   UNL     1       5.839  -2.305   4.723  0.00  0.00    +0.148 HD
ENDROOT
BRANCH   1  18
ATOM     11  C   UNL     1      -0.891   0.074   2.071  0.00  0.00    +0.028 C 
ATOM     12  C   UNL     1       0.422   0.852   2.174  0.00  0.00    +0.074 C 
ATOM     13  C   UNL     1       0.131   2.356   2.166  0.00  0.00    +0.025 C 
ATOM     14  C   UNL     1      -0.464   2.748   0.811  0.00  0.00    -0.011 C 
ATOM     15  C   UNL     1       0.546   2.446  -0.298  0.00  0.00    +0.025 C 
ATOM     16  C   UNL     1       0.842   0.943  -0.318  0.00  0.00    +0.074 C 
ATOM     17  N   UNL     1       1.279   0.527   1.025  0.00  0.00    -0.291 N 
ATOM     18  C   UNL     1       2.440  -0.136   1.200  0.00  0.00    +0.267 C 
ATOM     19  O   UNL     1       3.193  -0.299   0.260  0.00  0.00    -0.268 OA
ATOM     20  C   UNL     1       1.950   0.651  -1.332  0.00  0.00    +0.028 C 
ATOM     21  C   UNL     1      -0.789   4.243   0.811  0.00  0.00    +0.007 C 
ENDBRANCH   1  18
BRANCH   8  22
ATOM     22  C   UNL     1       5.603  -2.978   7.212  0.00  0.00    +0.125 A 
ATOM     23  C   UNL     1       5.733  -4.018   8.056  0.00  0.00    +0.046 A 
ATOM     24  C   UNL     1       6.974  -3.859   8.714  0.00  0.00    +0.041 A 
ATOM     25  C   UNL     1       7.529  -2.732   8.232  0.00  0.00    +0.195 A 
ATOM     26  O   UNL     1       6.696  -2.206   7.319  0.00  0.00    -0.466 OA
ENDBRANCH   8  22
BRANCH   6  27
ATOM     27  C   UNL     1       1.489  -0.251   6.519  0.00  0.00    +0.412 C 
ATOM     28  F   UNL     1       0.312  -0.128   5.772  0.00  0.00    -0.168 F 
ATOM     29  F   UNL     1       1.168  -0.412   7.871  0.00  0.00    -0.168 F 
ATOM     30  F   UNL     1       2.265   0.902   6.358  0.00  0.00    -0.168 F 
ENDBRANCH   6  27
TORSDOF 3
