REMARK  Name = ZINC24837755
REMARK  11 active torsions:
REMARK  status: ('A' for Active; 'I' for Inactive)
REMARK    1  A    between atoms: C_1  and  C_2
REMARK    2  A    between atoms: C_2  and  C_4
REMARK    3  A    between atoms: C_2  and  N_30
REMARK    4  A    between atoms: C_7  and  S_16
REMARK    5  A    between atoms: N_8  and  C_9
REMARK    6  A    between atoms: S_16  and  C_17
REMARK    7  A    between atoms: C_17  and  C_18
REMARK    8  A    between atoms: C_18  and  C_20
REMARK    9  A    between atoms: C_18  and  O_29
REMARK   10  A    between atoms: C_20  and  O_21
REMARK   11  A    between atoms: O_21  and  C_22
REMARK                            x       y       z     vdW  Elec       q    Type
REMARK                         _______ _______ _______ _____ _____    ______ ____
ROOT
ATOM      1  C   UNL     1       6.981  -8.343  -0.700  0.00  0.00    +0.125 A 
ATOM      2  N   UNL     1       7.285  -7.079  -0.599  0.00  0.00    -0.135 NA
ATOM      3  N   UNL     1       6.218  -6.376  -0.471  0.00  0.00    -0.122 NA
ATOM      4  C   UNL     1       5.163  -7.158  -0.484  0.00  0.00    +0.196 A 
ATOM      5  N   UNL     1       5.617  -8.440  -0.625  0.00  0.00    -0.275 N 
ENDROOT
BRANCH   5   6
ATOM      6  C   UNL     1       4.847  -9.611  -0.685  0.00  0.00    +0.050 A 
ATOM      7  C   UNL     1       4.956 -10.566   0.317  0.00  0.00    +0.029 A 
ATOM      8  C   UNL     1       4.192 -11.716   0.260  0.00  0.00    +0.040 A 
ATOM      9  C   UNL     1       3.327 -11.921  -0.802  0.00  0.00    +0.124 A 
ATOM     10  C   UNL     1       3.221 -10.972  -1.804  0.00  0.00    +0.040 A 
ATOM     11  C   UNL     1       3.978  -9.819  -1.748  0.00  0.00    +0.029 A 
ATOM     12  F   UNL     1       2.585 -13.049  -0.859  0.00  0.00    -0.205 F 
ENDBRANCH   5   6
BRANCH   1  14
ATOM     13  C   UNL     1       8.645  -9.759   0.473  0.00  0.00    -0.005 C 
ATOM     14  C   UNL     1       7.951  -9.485  -0.863  0.00  0.00    -0.002 C 
BRANCH  14  15
ATOM     15  N   UNL     1       8.958  -9.132  -1.873  0.00  0.00    +0.386 N 
ATOM     16  C   UNL     1       8.321  -8.764  -3.144  0.00  0.00    -0.078 C 
ATOM     17  C   UNL     1       9.385  -8.265  -4.124  0.00  0.00    -0.019 C 
ATOM     18  C   UNL     1      10.421  -9.370  -4.351  0.00  0.00    -0.004 C 
ATOM     19  C   UNL     1      11.034  -9.768  -3.006  0.00  0.00    -0.019 C 
ATOM     20  C   UNL     1       9.922 -10.224  -2.059  0.00  0.00    -0.078 C 
ATOM     21  H   UNL     1       9.511  -8.254  -1.509  0.00  0.00    -0.081 HD
ENDBRANCH  14  15
ENDBRANCH   1  14
BRANCH   4  22
ATOM     22  S   UNL     1       3.481  -6.652  -0.339  0.00  0.00    -0.083 S 
BRANCH  22  23
ATOM     23  C   UNL     1       3.704  -4.863  -0.184  0.00  0.00    +0.112 C 
BRANCH  23  24
ATOM     24  C   UNL     1       2.337  -4.189  -0.042  0.00  0.00    +0.162 C 
BRANCH  24  25
ATOM     25  O   UNL     1       1.728  -4.602   1.183  0.00  0.00    -0.388 OA
ATOM     26  H   UNL     1       0.735  -4.219   1.460  0.00  0.00    +0.210 HD
ENDBRANCH  24  25
BRANCH  24  27
ATOM     27  C   UNL     1       2.515  -2.670  -0.036  0.00  0.00    +0.261 C 
BRANCH  27  28
ATOM     28  O   UNL     1       1.233  -2.040  -0.020  0.00  0.00    -0.489 OA
BRANCH  28  29
ATOM     29  C   UNL     1       1.213  -0.680  -0.013  0.00  0.00    +0.121 A 
ATOM     30  C   UNL     1       0.002  -0.004   0.002  0.00  0.00    +0.048 A 
ATOM     31  C   UNL     1      -0.017   1.377   0.010  0.00  0.00    +0.042 A 
ATOM     32  C   UNL     1       1.173   2.086   0.002  0.00  0.00    +0.124 A 
ATOM     33  C   UNL     1       2.382   1.413  -0.013  0.00  0.00    +0.042 A 
ATOM     34  C   UNL     1       2.404   0.031  -0.021  0.00  0.00    +0.048 A 
ATOM     35  F   UNL     1       1.153   3.437   0.009  0.00  0.00    -0.205 F 
ENDBRANCH  28  29
ENDBRANCH  27  28
ENDBRANCH  24  27
ENDBRANCH  23  24
ENDBRANCH  22  23
ENDBRANCH   4  22
TORSDOF 10
