REMARK  Name = ZINC13499098
REMARK  13 active torsions:
REMARK  status: ('A' for Active; 'I' for Inactive)
REMARK    1  A    between atoms: C_1  and  C_2
REMARK    2  A    between atoms: C_4  and  C_38
REMARK    3  A    between atoms: C_7  and  C_14
REMARK    4  A    between atoms: C_14  and  N_75
REMARK    5  A    between atoms: C_15  and  N_75
REMARK    6  A    between atoms: C_20  and  C_22
REMARK    7  A    between atoms: C_20  and  C_35
REMARK    8  A    between atoms: C_20  and  N_75
REMARK    9  A    between atoms: N_26  and  C_27
REMARK   10  A    between atoms: C_27  and  C_28
REMARK   11  A    between atoms: C_28  and  C_29
REMARK   12  A    between atoms: C_35  and  C_36
REMARK   13  A    between atoms: C_35  and  C_37
REMARK                            x       y       z     vdW  Elec       q    Type
REMARK                         _______ _______ _______ _____ _____    ______ ____
ROOT
ATOM      1  N   UNL     1      -0.159   3.314   1.103  0.00  0.00    +0.391 N 
ATOM      2  H   UNL     1      -1.009   3.206   0.537  0.00  0.00    -0.080 HD
ENDROOT
BRANCH   1   3
ATOM      3  C   UNL     1      -0.423   4.289   2.183  0.00  0.00    -0.067 C 
ATOM      4  C   UNL     1      -1.383   3.670   3.219  0.00  0.00    -0.015 C 
ATOM      5  C   UNL     1      -2.306   4.845   3.630  0.00  0.00    -0.002 C 
ATOM      6  C   UNL     1      -2.513   5.601   2.295  0.00  0.00    -0.002 C 
ATOM      7  C   UNL     1      -1.141   5.517   1.595  0.00  0.00    -0.015 C 
ENDBRANCH   1   3
BRANCH   1   8
ATOM      8  C   UNL     1       0.935   3.803   0.237  0.00  0.00    -0.036 C 
BRANCH   8  15
ATOM      9  C   UNL     1      -0.373  11.402  -1.804  0.00  0.00    +0.044 C 
ATOM     10  C   UNL     1       0.013  10.053  -1.252  0.00  0.00    -0.048 A 
ATOM     11  C   UNL     1       0.888   9.976  -0.177  0.00  0.00    +0.007 A 
ATOM     12  C   UNL     1       1.251   8.764   0.338  0.00  0.00    -0.041 A 
ATOM     13  C   UNL     1       0.738   7.590  -0.223  0.00  0.00    +0.002 A 
ATOM     14  C   UNL     1       1.102   6.275   0.307  0.00  0.00    +0.017 A 
ATOM     15  C   UNL     1       0.577   5.172  -0.281  0.00  0.00    +0.001 A 
ATOM     16  C   UNL     1      -0.308   5.301  -1.373  0.00  0.00    +0.251 A 
ATOM     17  O   UNL     1      -0.773   4.296  -1.883  0.00  0.00    -0.268 OA
ATOM     18  N   UNL     1      -0.653   6.505  -1.863  0.00  0.00    -0.322 N 
ATOM     19  H   UNL     1      -1.264   6.558  -2.615  0.00  0.00    +0.169 HD
ATOM     20  C   UNL     1      -0.149   7.665  -1.313  0.00  0.00    +0.050 A 
ATOM     21  C   UNL     1      -0.505   8.910  -1.821  0.00  0.00    +0.029 A 
ATOM     22  C   UNL     1       2.201   8.692   1.506  0.00  0.00    +0.044 C 
ENDBRANCH   8  15
ENDBRANCH   1   8
BRANCH   1  23
ATOM     23  C   UNL     1       0.202   2.004   1.683  0.00  0.00    +0.006 C 
BRANCH  23  24
ATOM     24  C   UNL     1      -1.064   1.280   2.063  0.00  0.00    +0.138 A 
ATOM     25  N   UNL     1      -2.209   1.319   1.426  0.00  0.00    -0.115 NA
ATOM     26  N   UNL     1      -3.042   0.568   2.060  0.00  0.00    -0.023 NA
ATOM     27  N   UNL     1      -2.461   0.057   3.088  0.00  0.00    -0.044 NA
ATOM     28  N   UNL     1      -1.240   0.471   3.125  0.00  0.00    -0.231 N 
BRANCH  28  29
ATOM     29  C   UNL     1      -0.234   0.127   4.132  0.00  0.00    +0.152 C 
BRANCH  29  30
ATOM     30  C   UNL     1      -0.376   1.061   5.336  0.00  0.00    +0.058 C 
BRANCH  30  31
ATOM     31  C   UNL     1       0.709   0.761   6.336  0.00  0.00    -0.046 A 
ATOM     32  C   UNL     1       0.491  -0.171   7.334  0.00  0.00    +0.004 A 
ATOM     33  C   UNL     1       1.489  -0.451   8.249  0.00  0.00    +0.000 A 
ATOM     34  C   UNL     1       2.701   0.210   8.173  0.00  0.00    +0.000 A 
ATOM     35  C   UNL     1       2.917   1.146   7.179  0.00  0.00    +0.000 A 
ATOM     36  C   UNL     1       1.921   1.421   6.260  0.00  0.00    +0.004 A 
ENDBRANCH  30  31
ENDBRANCH  29  30
ENDBRANCH  28  29
ENDBRANCH  23  24
BRANCH  23  37
ATOM     37  C   UNL     1       0.967   1.183   0.643  0.00  0.00    -0.024 C 
ATOM     38  C   UNL     1       2.382   1.744   0.491  0.00  0.00    +0.006 C 
ATOM     39  C   UNL     1       0.240   1.260  -0.702  0.00  0.00    +0.006 C 
ENDBRANCH  23  37
ENDBRANCH   1  23
TORSDOF 9
