REMARK  Name = ZINC00828840
REMARK  9 active torsions:
REMARK  status: ('A' for Active; 'I' for Inactive)
REMARK    1  A    between atoms: C_1  and  C_2
REMARK    2  A    between atoms: C_5  and  N_8
REMARK    3  A    between atoms: C_9  and  C_11
REMARK    4  A    between atoms: C_12  and  C_29
REMARK    5  A    between atoms: C_17  and  C_19
REMARK    6  A    between atoms: C_21  and  O_27
REMARK    7  A    between atoms: C_24  and  O_25
REMARK    8  A    between atoms: O_25  and  C_26
REMARK    9  A    between atoms: O_27  and  C_28
REMARK                            x       y       z     vdW  Elec       q    Type
REMARK                         _______ _______ _______ _____ _____    ______ ____
ROOT
ATOM      1  C   UNL     1       4.705   1.936   1.085  0.00  0.00    +0.056 C 
ATOM      2  C   UNL     1       5.348   3.018   1.575  0.00  0.00    +0.017 C 
ATOM      3  N   UNL     1       5.069   4.272   1.113  0.00  0.00    -0.300 N 
ATOM      4  C   UNL     1       4.161   4.529   0.163  0.00  0.00    +0.135 C 
ATOM      5  S   UNL     1       3.909   6.151  -0.325  0.00  0.00    -0.019 S 
ATOM      6  N   UNL     1       3.439   3.553  -0.421  0.00  0.00    -0.315 N 
ATOM      7  C   UNL     1       3.665   2.162   0.007  0.00  0.00    +0.143 C 
ATOM      8  C   UNL     1       6.389   2.838   2.649  0.00  0.00    +0.061 C 
ATOM      9  H   UNL     1       5.556   5.019   1.495  0.00  0.00    +0.154 HD
ATOM     10  H   UNL     1       2.786   3.761  -1.108  0.00  0.00    +0.149 HD
ENDROOT
BRANCH   7  11
ATOM     11  C   UNL     1       2.353   1.610   0.504  0.00  0.00    +0.022 A 
ATOM     12  C   UNL     1       2.163   1.391   1.855  0.00  0.00    +0.055 A 
ATOM     13  C   UNL     1       0.957   0.882   2.312  0.00  0.00    +0.121 A 
ATOM     14  C   UNL     1      -0.059   0.593   1.413  0.00  0.00    +0.049 A 
ATOM     15  C   UNL     1       0.130   0.814   0.062  0.00  0.00    +0.049 A 
ATOM     16  C   UNL     1       1.337   1.323  -0.395  0.00  0.00    +0.126 A 
BRANCH  16  17
ATOM     17  O   UNL     1       1.524   1.539  -1.724  0.00  0.00    -0.495 OA
ATOM     18  C   UNL     1       0.485   1.104  -2.604  0.00  0.00    +0.277 C 
ENDBRANCH  16  17
BRANCH  13  19
ATOM     19  O   UNL     1       0.769   0.671   3.642  0.00  0.00    -0.495 OA
ATOM     20  C   UNL     1      -0.500   0.150   4.042  0.00  0.00    +0.277 C 
ENDBRANCH  13  19
ENDBRANCH   7  11
BRANCH   1  22
ATOM     21  N   UNL     1       4.491  -0.443   0.928  0.00  0.00    -0.282 N 
ATOM     22  C   UNL     1       4.993   0.635   1.563  0.00  0.00    +0.248 C 
ATOM     23  O   UNL     1       5.694   0.489   2.548  0.00  0.00    -0.270 OA
ATOM     24  H   UNL     1       3.846  -0.328   0.213  0.00  0.00    +0.155 HD
BRANCH  21  29
ATOM     25  C   UNL     1       6.152  -5.652   2.438  0.00  0.00    +0.044 C 
ATOM     26  C   UNL     1       5.710  -4.268   2.037  0.00  0.00    -0.050 A 
ATOM     27  C   UNL     1       5.182  -4.051   0.778  0.00  0.00    +0.005 A 
ATOM     28  C   UNL     1       4.777  -2.783   0.407  0.00  0.00    +0.023 A 
ATOM     29  C   UNL     1       4.900  -1.727   1.301  0.00  0.00    +0.034 A 
ATOM     30  C   UNL     1       5.436  -1.948   2.563  0.00  0.00    +0.023 A 
ATOM     31  C   UNL     1       5.835  -3.219   2.929  0.00  0.00    +0.005 A 
ENDBRANCH  21  29
ENDBRANCH   1  22
TORSDOF 5
