REMARK  Name = ZINC39123915
REMARK  8 active torsions:
REMARK  status: ('A' for Active; 'I' for Inactive)
REMARK    1  A    between atoms: C_1  and  C_2
REMARK    2  A    between atoms: C_4  and  C_22
REMARK    3  A    between atoms: C_6  and  O_20
REMARK    4  A    between atoms: C_8  and  O_18
REMARK    5  A    between atoms: C_9  and  C_12
REMARK    6  A    between atoms: C_12  and  C_14
REMARK    7  A    between atoms: O_18  and  C_19
REMARK    8  A    between atoms: O_20  and  C_21
REMARK                            x       y       z     vdW  Elec       q    Type
REMARK                         _______ _______ _______ _____ _____    ______ ____
ROOT
ATOM      1  C   UNL     1      -0.206   0.981  -0.136  0.00  0.00    +0.035 C 
ATOM      2  C   UNL     1       0.057  -0.526  -0.139  0.00  0.00    +0.108 C 
ATOM      3  C   UNL     1       0.911  -0.905  -1.329  0.00  0.00    -0.006 C 
ATOM      4  C   UNL     1       2.064  -1.452  -0.801  0.00  0.00    +0.046 A 
ATOM      5  C   UNL     1       3.271  -2.005  -1.417  0.00  0.00    +0.133 A 
ATOM      6  C   UNL     1       4.286  -2.493  -0.626  0.00  0.00    +0.092 A 
ATOM      7  C   UNL     1       4.214  -2.483   0.761  0.00  0.00    +0.136 A 
ATOM      8  C   UNL     1       3.100  -1.974   1.443  0.00  0.00    +0.087 A 
ATOM      9  C   UNL     1       1.966  -1.431   0.672  0.00  0.00    +0.061 A 
ATOM     10  N   UNL     1       0.826  -0.907   1.050  0.00  0.00    -0.377 N 
ATOM     11  H   UNL     1       0.537  -0.788   1.969  0.00  0.00    +0.160 HD
ENDROOT
BRANCH   3  12
ATOM     12  C   UNL     1       0.583  -0.728  -2.745  0.00  0.00    -0.019 A 
ATOM     13  C   UNL     1      -0.526  -1.383  -3.300  0.00  0.00    +0.009 A 
ATOM     14  C   UNL     1      -0.826  -1.210  -4.633  0.00  0.00    +0.016 A 
ATOM     15  C   UNL     1      -0.037  -0.393  -5.426  0.00  0.00    +0.018 A 
ATOM     16  C   UNL     1       1.061   0.259  -4.886  0.00  0.00    +0.016 A 
ATOM     17  C   UNL     1       1.373   0.103  -3.553  0.00  0.00    +0.009 A 
ATOM     18 BR   UNL     1      -0.459  -0.165  -7.255  0.00  0.00    -0.050 Br
ENDBRANCH   3  12
BRANCH   8  19
ATOM     19  C   UNL     1       3.064  -1.982   2.850  0.00  0.00    +0.219 C 
ATOM     20  O   UNL     1       3.523  -1.047   3.475  0.00  0.00    -0.287 OA
BRANCH  19  21
ATOM     21  C   UNL     1       2.455  -3.151   3.581  0.00  0.00    +0.253 C 
ATOM     22 CL   UNL     1       2.424  -2.803   5.350  0.00  0.00    -0.075 Cl
ATOM     23 CL   UNL     1       0.772  -3.418   2.992  0.00  0.00    -0.075 Cl
ATOM     24 CL   UNL     1       3.440  -4.630   3.277  0.00  0.00    -0.075 Cl
ENDBRANCH  19  21
ENDBRANCH   8  19
BRANCH   7  25
ATOM     25  O   UNL     1       5.250  -2.979   1.475  0.00  0.00    -0.494 OA
ATOM     26  C   UNL     1       6.364  -3.487   0.736  0.00  0.00    +0.277 C 
ENDBRANCH   7  25
BRANCH   5  27
ATOM     27  O   UNL     1       3.389  -2.037  -2.765  0.00  0.00    -0.494 OA
ATOM     28  C   UNL     1       4.594  -2.590  -3.298  0.00  0.00    +0.277 C 
ENDBRANCH   5  27
TORSDOF 5
