REMARK  Name = ZINC05444115
REMARK  14 active torsions:
REMARK  status: ('A' for Active; 'I' for Inactive)
REMARK    1  A    between atoms: C_1  and  C_2
REMARK    2  A    between atoms: C_2  and  C_3
REMARK    3  A    between atoms: C_2  and  C_4
REMARK    4  A    between atoms: C_4  and  N_61
REMARK    5  A    between atoms: C_5  and  C_6
REMARK    6  A    between atoms: C_5  and  N_61
REMARK    7  A    between atoms: C_12  and  O_25
REMARK    8  A    between atoms: C_13  and  C_17
REMARK    9  A    between atoms: C_22  and  O_23
REMARK   10  A    between atoms: O_23  and  C_24
REMARK   11  A    between atoms: C_26  and  C_27
REMARK   12  A    between atoms: C_26  and  N_61
REMARK   13  A    between atoms: C_27  and  C_28
REMARK   14  A    between atoms: C_27  and  C_29
REMARK                            x       y       z     vdW  Elec       q    Type
REMARK                         _______ _______ _______ _____ _____    ______ ____
ROOT
ATOM      1  C   UNL     1      -0.837   1.897   1.420  0.00  0.00    +0.026 A 
ATOM      2  C   UNL     1      -1.955   1.304   2.014  0.00  0.00    +0.184 A 
ATOM      3  O   UNL     1      -2.384   0.117   1.582  0.00  0.00    -0.288 OA
ATOM      4  C   UNL     1      -2.630   1.952   3.066  0.00  0.00    +0.052 A 
ATOM      5  C   UNL     1      -2.202   3.160   3.514  0.00  0.00    +0.019 A 
ATOM      6  C   UNL     1      -1.079   3.769   2.926  0.00  0.00    +0.060 A 
ATOM      7  C   UNL     1      -0.617   5.024   3.377  0.00  0.00    +0.138 A 
ATOM      8  C   UNL     1       0.525   5.577   2.756  0.00  0.00    +0.063 A 
ATOM      9  C   UNL     1       1.140   4.893   1.734  0.00  0.00    +0.207 A 
ATOM     10  O   UNL     1       0.689   3.708   1.314  0.00  0.00    -0.462 OA
ATOM     11  C   UNL     1      -0.391   3.124   1.873  0.00  0.00    +0.143 A 
ENDROOT
BRANCH   8  12
ATOM     12  C   UNL     1       1.052   6.891   3.198  0.00  0.00    +0.030 A 
ATOM     13  C   UNL     1       1.024   7.983   2.334  0.00  0.00    +0.012 A 
ATOM     14  C   UNL     1       1.516   9.204   2.749  0.00  0.00    +0.001 A 
ATOM     15  C   UNL     1       2.036   9.348   4.023  0.00  0.00    +0.004 A 
ATOM     16  C   UNL     1       2.068   8.271   4.889  0.00  0.00    +0.046 A 
ATOM     17  C   UNL     1       1.574   7.041   4.486  0.00  0.00    +0.128 A 
BRANCH  17  18
ATOM     18  O   UNL     1       1.600   5.984   5.339  0.00  0.00    -0.494 OA
ATOM     19  C   UNL     1       2.147   6.212   6.639  0.00  0.00    +0.277 C 
ENDBRANCH  17  18
ENDBRANCH   8  12
BRANCH   7  20
ATOM     20  O   UNL     1      -1.241   5.671   4.383  0.00  0.00    -0.505 OA
ATOM     21  H   UNL     1      -0.898   5.457   5.262  0.00  0.00    +0.292 HD
ENDBRANCH   7  20
BRANCH   1  22
ATOM     22  C   UNL     1      -0.118   1.198   0.295  0.00  0.00    -0.035 C 
BRANCH  22  23
ATOM     23  N   UNL     1      -0.735   1.598  -0.987  0.00  0.00    +0.383 N 
ATOM     24  H   UNL     1      -1.750   1.454  -0.927  0.00  0.00    -0.081 HD
BRANCH  23  25
ATOM     25  C   UNL     1      -0.467   3.027  -1.252  0.00  0.00    -0.075 C 
BRANCH  25  27
ATOM     26  C   UNL     1      -2.850   3.379  -1.916  0.00  0.00    +0.005 C 
ATOM     27  C   UNL     1      -1.395   3.501  -2.373  0.00  0.00    -0.034 C 
ATOM     28  C   UNL     1      -1.086   4.962  -2.706  0.00  0.00    +0.005 C 
ENDBRANCH  25  27
ENDBRANCH  23  25
BRANCH  23  29
ATOM     29  C   UNL     1      -0.197   0.770  -2.087  0.00  0.00    -0.075 C 
BRANCH  29  30
ATOM     30  C   UNL     1      -0.866  -0.605  -2.038  0.00  0.00    -0.034 C 
ATOM     31  C   UNL     1      -2.366  -0.452  -2.297  0.00  0.00    +0.005 C 
ATOM     32  C   UNL     1      -0.253  -1.509  -3.109  0.00  0.00    +0.005 C 
ENDBRANCH  29  30
ENDBRANCH  23  29
ENDBRANCH  22  23
ENDBRANCH   1  22
TORSDOF 9
