REMARK  Name = ZINC35780702
REMARK  11 active torsions:
REMARK  status: ('A' for Active; 'I' for Inactive)
REMARK    1  A    between atoms: C_4  and  C_7
REMARK    2  A    between atoms: C_7  and  C_8
REMARK    3  A    between atoms: C_8  and  C_10
REMARK    4  A    between atoms: C_8  and  O_37
REMARK    5  A    between atoms: C_10  and  N_11
REMARK    6  A    between atoms: N_11  and  C_12
REMARK    7  A    between atoms: N_11  and  C_20
REMARK    8  A    between atoms: C_12  and  C_13
REMARK    9  A    between atoms: C_20  and  C_21
REMARK   10  A    between atoms: C_22  and  C_31
REMARK   11  A    between atoms: C_25  and  N_26
REMARK                            x       y       z     vdW  Elec       q    Type
REMARK                         _______ _______ _______ _____ _____    ______ ____
ROOT
ATOM      1  N   UNL     1       5.681  -1.687   3.980  0.00  0.00    +0.387 N 
ATOM      2  H   UNL     1       5.413  -2.231   4.786  0.00  0.00    -0.081 HD
ENDROOT
BRANCH   1   3
ATOM      3  C   UNL     1       4.643  -1.799   2.946  0.00  0.00    -0.046 C 
BRANCH   3   4
ATOM      4  C   UNL     1       3.263  -1.685   3.595  0.00  0.00    +0.102 C 
BRANCH   4   5
ATOM      5  O   UNL     1       3.127  -2.686   4.607  0.00  0.00    -0.393 OA
ATOM      6  H   UNL     1       3.214  -3.591   4.279  0.00  0.00    +0.210 HD
ENDBRANCH   4   5
BRANCH   4   7
ATOM      7  C   UNL     1       2.181  -1.885   2.532  0.00  0.00    +0.064 C 
BRANCH   7  11
ATOM      8  C   UNL     1      -1.666  -1.223   4.268  0.00  0.00    +0.000 A 
ATOM      9  C   UNL     1      -0.974  -0.171   3.699  0.00  0.00    +0.000 A 
ATOM     10  C   UNL     1       0.271  -0.385   3.137  0.00  0.00    +0.004 A 
ATOM     11  C   UNL     1       0.824  -1.652   3.145  0.00  0.00    -0.045 A 
ATOM     12  C   UNL     1       0.133  -2.704   3.715  0.00  0.00    +0.004 A 
ATOM     13  C   UNL     1      -1.113  -2.490   4.275  0.00  0.00    +0.000 A 
ENDBRANCH   7  11
ENDBRANCH   4   7
ENDBRANCH   3   4
ENDBRANCH   1   3
BRANCH   1  14
ATOM     14  C   UNL     1       5.835  -0.279   4.368  0.00  0.00    -0.042 C 
BRANCH  14  15
ATOM     15  C   UNL     1       4.594   0.183   5.087  0.00  0.00    -0.064 A 
ATOM     16  C   UNL     1       3.829   1.205   4.557  0.00  0.00    +0.004 A 
ATOM     17  C   UNL     1       2.690   1.629   5.215  0.00  0.00    +0.038 A 
ATOM     18  C   UNL     1       2.315   1.029   6.406  0.00  0.00    +0.123 A 
ATOM     19  C   UNL     1       3.082   0.005   6.936  0.00  0.00    +0.038 A 
ATOM     20  C   UNL     1       4.218  -0.420   6.273  0.00  0.00    +0.004 A 
ATOM     21  F   UNL     1       1.202   1.443   7.050  0.00  0.00    -0.205 F 
ENDBRANCH  14  15
ENDBRANCH   1  14
BRANCH   1  22
ATOM     22  C   UNL     1       6.955  -2.192   3.451  0.00  0.00    -0.035 C 
BRANCH  22  23
ATOM     23  C   UNL     1       7.990  -2.191   4.547  0.00  0.00    +0.025 A 
ATOM     24  C   UNL     1       8.938  -1.176   4.793  0.00  0.00    +0.117 A 
ATOM     25  N   UNL     1       9.659  -1.538   5.829  0.00  0.00    -0.076 NA
ATOM     26  O   UNL     1       9.187  -2.797   6.273  0.00  0.00    -0.339 OA
ATOM     27  C   UNL     1       8.168  -3.164   5.476  0.00  0.00    +0.222 A 
BRANCH  24  28
ATOM     28  C   UNL     1       9.094   0.079   4.016  0.00  0.00    +0.004 A 
ATOM     29  C   UNL     1       9.303   1.288   4.676  0.00  0.00    +0.010 A 
ATOM     30  C   UNL     1       9.448   2.452   3.949  0.00  0.00    +0.001 A 
ATOM     31  C   UNL     1       9.386   2.420   2.567  0.00  0.00    +0.000 A 
ATOM     32  C   UNL     1       9.178   1.223   1.907  0.00  0.00    +0.001 A 
ATOM     33  C   UNL     1       9.037   0.052   2.624  0.00  0.00    +0.010 A 
ENDBRANCH  24  28
BRANCH  27  34
ATOM     34  N   UNL     1       7.434  -4.331   5.583  0.00  0.00    -0.299 N 
ATOM     35  C   UNL     1       6.327  -4.730   4.701  0.00  0.00    +0.108 C 
ATOM     36  C   UNL     1       5.797  -6.085   5.215  0.00  0.00    +0.020 C 
ATOM     37  C   UNL     1       6.263  -6.101   6.695  0.00  0.00    +0.020 C 
ATOM     38  C   UNL     1       7.634  -5.384   6.595  0.00  0.00    +0.108 C 
ENDBRANCH  27  34
ENDBRANCH  22  23
ENDBRANCH   1  22
TORSDOF 11
