REMARK  Name = ZINC33126249
REMARK  10 active torsions:
REMARK  status: ('A' for Active; 'I' for Inactive)
REMARK    1  A    between atoms: C_1  and  C_2
REMARK    2  A    between atoms: C_6  and  C_8
REMARK    3  A    between atoms: C_12  and  C_19
REMARK    4  A    between atoms: C_19  and  N_20
REMARK    5  A    between atoms: N_20  and  C_21
REMARK    6  A    between atoms: N_20  and  C_29
REMARK    7  A    between atoms: C_21  and  C_22
REMARK    8  A    between atoms: C_29  and  C_30
REMARK    9  A    between atoms: C_30  and  C_31
REMARK   10  A    between atoms: C_30  and  C_32
REMARK                            x       y       z     vdW  Elec       q    Type
REMARK                         _______ _______ _______ _____ _____    ______ ____
ROOT
ATOM      1  C   UNL     1       4.231   3.095   1.213  0.00  0.00    +0.066 A 
ATOM      2  C   UNL     1       3.952   4.426   1.283  0.00  0.00    +0.075 A 
ATOM      3  C   UNL     1       5.083   5.138   0.828  0.00  0.00    +0.158 A 
ATOM      4  N   UNL     1       5.320   6.437   0.703  0.00  0.00    -0.234 NA
ATOM      5  C   UNL     1       6.480   6.886   0.238  0.00  0.00    +0.032 A 
ATOM      6  C   UNL     1       7.464   6.010  -0.126  0.00  0.00    +0.093 A 
ATOM      7  C   UNL     1       7.228   4.630   0.001  0.00  0.00    +0.273 A 
ATOM      8  O   UNL     1       8.085   3.821  -0.316  0.00  0.00    -0.266 OA
ATOM      9  N   UNL     1       6.036   4.216   0.477  0.00  0.00    -0.201 N 
ATOM     10  N   UNL     1       5.507   2.942   0.717  0.00  0.00    -0.288 N 
ATOM     11  H   UNL     1       5.926   1.934   0.578  0.00  0.00    +0.187 HD
ENDROOT
BRANCH   1  17
ATOM     12  C   UNL     1      -0.181   1.575   2.978  0.00  0.00    +0.044 C 
ATOM     13  C   UNL     1       1.195   1.264   2.448  0.00  0.00    -0.050 A 
ATOM     14  C   UNL     1       1.602  -0.052   2.315  0.00  0.00    +0.003 A 
ATOM     15  C   UNL     1       2.865  -0.347   1.834  0.00  0.00    +0.001 A 
ATOM     16  C   UNL     1       3.724   0.671   1.472  0.00  0.00    +0.010 A 
ATOM     17  C   UNL     1       3.318   2.001   1.598  0.00  0.00    +0.000 A 
ATOM     18  C   UNL     1       2.043   2.291   2.090  0.00  0.00    +0.013 A 
ENDBRANCH   1  17
BRANCH   5  19
ATOM     19  C   UNL     1       6.712   8.370   0.110  0.00  0.00    -0.022 C 
BRANCH  19  20
ATOM     20  N   UNL     1       6.393   8.799  -1.258  0.00  0.00    +0.386 N 
ATOM     21  H   UNL     1       6.555   7.942  -1.928  0.00  0.00    -0.081 HD
BRANCH  20  22
ATOM     22  C   UNL     1       7.283   9.885  -1.690  0.00  0.00    -0.042 C 
BRANCH  22  23
ATOM     23  C   UNL     1       7.247   9.996  -3.193  0.00  0.00    -0.064 A 
ATOM     24  C   UNL     1       8.036   9.165  -3.966  0.00  0.00    +0.004 A 
ATOM     25  C   UNL     1       8.000   9.264  -5.344  0.00  0.00    +0.038 A 
ATOM     26  C   UNL     1       7.181  10.202  -5.950  0.00  0.00    +0.123 A 
ATOM     27  C   UNL     1       6.395  11.037  -5.174  0.00  0.00    +0.038 A 
ATOM     28  C   UNL     1       6.429  10.934  -3.796  0.00  0.00    +0.004 A 
ATOM     29  F   UNL     1       7.148  10.302  -7.297  0.00  0.00    -0.205 F 
ENDBRANCH  22  23
ENDBRANCH  20  22
BRANCH  20  30
ATOM     30  C   UNL     1       4.984   9.199  -1.369  0.00  0.00    -0.075 C 
BRANCH  30  31
ATOM     31  C   UNL     1       4.099   7.950  -1.382  0.00  0.00    -0.034 C 
ATOM     32  C   UNL     1       2.629   8.367  -1.460  0.00  0.00    +0.005 C 
ATOM     33  C   UNL     1       4.450   7.090  -2.598  0.00  0.00    +0.005 C 
ENDBRANCH  30  31
ENDBRANCH  20  30
ENDBRANCH  19  20
ENDBRANCH   5  19
TORSDOF 7
