REMARK  Name = ZINC67411148
REMARK  12 active torsions:
REMARK  status: ('A' for Active; 'I' for Inactive)
REMARK    1  A    between atoms: C_1  and  C_2
REMARK    2  A    between atoms: C_2  and  N_3
REMARK    3  A    between atoms: N_3  and  C_4
REMARK    4  A    between atoms: C_4  and  C_5
REMARK    5  A    between atoms: C_8  and  C_11
REMARK    6  A    between atoms: C_11  and  N_12
REMARK    7  A    between atoms: N_12  and  C_13
REMARK    8  A    between atoms: N_12  and  C_14
REMARK    9  A    between atoms: N_17  and  C_18
REMARK   10  A    between atoms: N_22  and  C_24
REMARK   11  A    between atoms: C_24  and  C_25
REMARK   12  A    between atoms: C_24  and  C_26
REMARK                            x       y       z     vdW  Elec       q    Type
REMARK                         _______ _______ _______ _____ _____    ______ ____
ROOT
ATOM      1  N   UNL     1      -1.372  -0.511   0.012  0.00  0.00    -0.282 N 
ATOM      2  C   UNL     1      -1.993  -0.751   1.184  0.00  0.00    +0.303 C 
ATOM      3  O   UNL     1      -3.134  -1.171   1.193  0.00  0.00    -0.253 OA
ATOM      4  N   UNL     1      -1.350  -0.524   2.347  0.00  0.00    -0.298 N 
ATOM      5  H   UNL     1      -0.440  -0.188   2.340  0.00  0.00    +0.150 HD
ENDROOT
BRANCH   4   6
ATOM      6  C   UNL     1      -2.025  -0.784   3.620  0.00  0.00    +0.056 C 
ATOM      7  C   UNL     1      -1.817  -2.255   4.047  0.00  0.00    +0.002 C 
ATOM      8  C   UNL     1      -0.625  -2.164   5.033  0.00  0.00    -0.077 C 
ATOM      9  N   UNL     1      -0.880  -0.894   5.759  0.00  0.00    +0.382 N 
ATOM     10  C   UNL     1      -1.390   0.057   4.744  0.00  0.00    -0.056 C 
ATOM     11  H   UNL     1      -1.572  -1.037   6.479  0.00  0.00    -0.081 HD
BRANCH   9  12
ATOM     12  C   UNL     1       0.367  -0.387   6.346  0.00  0.00    -0.075 C 
ATOM     13  C   UNL     1       0.093   0.940   7.059  0.00  0.00    -0.014 C 
ATOM     14  C   UNL     1       0.908  -1.404   7.353  0.00  0.00    -0.014 C 
ENDBRANCH   9  12
ENDBRANCH   4   6
BRANCH   1  16
ATOM     15  C   UNL     1      -0.019   1.526   0.010  0.00  0.00    +0.024 C 
ATOM     16  C   UNL     1       0.002  -0.004   0.002  0.00  0.00    +0.106 C 
ENDBRANCH   1  16
BRANCH   1  17
ATOM     17  C   UNL     1      -2.072  -0.758  -1.251  0.00  0.00    +0.144 C 
BRANCH  17  18
ATOM     18  C   UNL     1      -1.820  -2.175  -1.696  0.00  0.00    -0.030 A 
ATOM     19  C   UNL     1      -0.734  -2.464  -2.502  0.00  0.00    +0.005 A 
ATOM     20  C   UNL     1      -0.503  -3.765  -2.910  0.00  0.00    +0.002 A 
ATOM     21  C   UNL     1      -1.357  -4.776  -2.512  0.00  0.00    -0.064 A 
ATOM     22  C   UNL     1      -2.442  -4.487  -1.706  0.00  0.00    +0.002 A 
ATOM     23  C   UNL     1      -2.671  -3.188  -1.294  0.00  0.00    +0.005 A 
BRANCH  21  24
ATOM     24  C   UNL     1      -1.106  -6.194  -2.958  0.00  0.00    -0.044 C 
BRANCH  24  25
ATOM     25  N   UNL     1      -0.245  -6.870  -1.978  0.00  0.00    +0.379 N 
ATOM     26  C   UNL     1      -0.098  -8.284  -2.349  0.00  0.00    -0.096 C 
ATOM     27  C   UNL     1       1.076  -6.228  -1.961  0.00  0.00    -0.096 C 
ATOM     28  H   UNL     1      -0.663  -6.804  -1.062  0.00  0.00    -0.082 HD
ENDBRANCH  24  25
ENDBRANCH  21  24
ENDBRANCH  17  18
ENDBRANCH   1  17
TORSDOF 7
