REMARK  Name = ZINC16927199
REMARK  9 active torsions:
REMARK  status: ('A' for Active; 'I' for Inactive)
REMARK    1  A    between atoms: C_1  and  C_2
REMARK    2  A    between atoms: C_2  and  C_4
REMARK    3  A    between atoms: C_2  and  S_16
REMARK    4  A    between atoms: N_6  and  C_7
REMARK    5  A    between atoms: C_12  and  C_13
REMARK    6  A    between atoms: C_13  and  C_15
REMARK    7  A    between atoms: S_16  and  C_17
REMARK    8  A    between atoms: N_30  and  C_31
REMARK    9  A    between atoms: C_31  and  C_32
REMARK                            x       y       z     vdW  Elec       q    Type
REMARK                         _______ _______ _______ _____ _____    ______ ____
ROOT
ATOM      1  C   UNL     1       0.168   4.403   0.005  0.00  0.00    +0.198 A 
ATOM      2  N   UNL     1       0.692   5.605  -0.009  0.00  0.00    -0.120 NA
ATOM      3  N   UNL     1       2.086   5.470  -0.033  0.00  0.00    -0.109 NA
ATOM      4  C   UNL     1       2.373   4.187  -0.033  0.00  0.00    +0.240 A 
ATOM      5  N   UNL     1       1.192   3.495  -0.010  0.00  0.00    -0.256 N 
ATOM      6  C   UNL     1       1.189   2.102  -0.005  0.00  0.00    +0.064 A 
ATOM      7  C   UNL     1      -0.002   1.391   0.018  0.00  0.00    +0.027 A 
ATOM      8  C   UNL     1       0.022   0.011   0.022  0.00  0.00    +0.002 A 
ATOM      9  C   UNL     1       1.228  -0.674   0.004  0.00  0.00    +0.001 A 
ATOM     10  C   UNL     1       2.421   0.017  -0.019  0.00  0.00    +0.015 A 
ATOM     11  C   UNL     1       2.410   1.411  -0.024  0.00  0.00    +0.064 A 
ATOM     12  C   UNL     1       3.663   2.186  -0.048  0.00  0.00    +0.263 A 
ATOM     13  O   UNL     1       4.740   1.621  -0.065  0.00  0.00    -0.267 OA
ATOM     14  N   UNL     1       3.595   3.533  -0.052  0.00  0.00    -0.272 N 
ENDROOT
BRANCH   1  15
ATOM     15  S   UNL     1      -1.552   4.024   0.037  0.00  0.00    -0.073 S 
BRANCH  15  17
ATOM     16  C   UNL     1      -2.064   6.371  -1.271  0.00  0.00    +0.029 C 
ATOM     17  C   UNL     1      -2.360   5.648   0.045  0.00  0.00    +0.137 C 
BRANCH  17  18
ATOM     18  C   UNL     1      -3.848   5.468   0.196  0.00  0.00    +0.230 C 
ATOM     19  O   UNL     1      -4.360   4.402  -0.070  0.00  0.00    -0.274 OA
ATOM     20  N   UNL     1      -4.610   6.493   0.627  0.00  0.00    -0.284 N 
ATOM     21  H   UNL     1      -4.193   7.320   0.916  0.00  0.00    +0.155 HD
BRANCH  20  22
ATOM     22  C   UNL     1      -5.995   6.365   0.656  0.00  0.00    +0.044 A 
ATOM     23  C   UNL     1      -6.633   5.471  -0.194  0.00  0.00    +0.024 A 
ATOM     24  C   UNL     1      -8.006   5.342  -0.158  0.00  0.00    +0.002 A 
ATOM     25  C   UNL     1      -8.762   6.108   0.715  0.00  0.00    +0.001 A 
ATOM     26  C   UNL     1      -8.151   7.005   1.562  0.00  0.00    +0.013 A 
ATOM     27  C   UNL     1      -6.758   7.145   1.544  0.00  0.00    +0.038 A 
BRANCH  27  28
ATOM     28  C   UNL     1      -6.099   8.098   2.443  0.00  0.00    +0.162 C 
ATOM     29  O   UNL     1      -4.903   8.282   2.362  0.00  0.00    -0.292 OA
ATOM     30  C   UNL     1      -6.909   8.850   3.469  0.00  0.00    +0.091 C 
ENDBRANCH  27  28
ENDBRANCH  20  22
ENDBRANCH  17  18
ENDBRANCH  15  17
ENDBRANCH   1  15
BRANCH  14  31
ATOM     31  C   UNL     1       4.832   4.318  -0.077  0.00  0.00    +0.163 C 
BRANCH  31  32
ATOM     32  C   UNL     1       5.231   4.581  -1.506  0.00  0.00    -0.028 A 
ATOM     33  C   UNL     1       6.059   3.694  -2.168  0.00  0.00    +0.005 A 
ATOM     34  C   UNL     1       6.421   3.934  -3.480  0.00  0.00    +0.000 A 
ATOM     35  C   UNL     1       5.963   5.066  -4.128  0.00  0.00    +0.000 A 
ATOM     36  C   UNL     1       5.139   5.955  -3.465  0.00  0.00    +0.000 A 
ATOM     37  C   UNL     1       4.773   5.713  -2.154  0.00  0.00    +0.005 A 
ENDBRANCH  31  32
ENDBRANCH  14  31
TORSDOF 7
