REMARK  Name = ZINC15675683
REMARK  8 active torsions:
REMARK  status: ('A' for Active; 'I' for Inactive)
REMARK    1  A    between atoms: C_1  and  C_2
REMARK    2  A    between atoms: C_2  and  C_24
REMARK    3  A    between atoms: N_14  and  C_15
REMARK    4  A    between atoms: C_15  and  C_16
REMARK    5  A    between atoms: C_16  and  N_77
REMARK    6  A    between atoms: C_17  and  N_77
REMARK    7  A    between atoms: C_18  and  N_77
REMARK    8  A    between atoms: N_26  and  C_27
REMARK                            x       y       z     vdW  Elec       q    Type
REMARK                         _______ _______ _______ _____ _____    ______ ____
ROOT
ATOM      1  C   UNL     1       2.453   1.110   0.505  0.00  0.00    +0.043 C 
ATOM      2  C   UNL     1       1.433   1.659  -0.494  0.00  0.00    +0.128 C 
ATOM      3  C   UNL     1       0.026   1.319  -0.002  0.00  0.00    +0.157 C 
ATOM      4  N   UNL     1      -0.225  -0.110  -0.213  0.00  0.00    -0.331 N 
ATOM      5  C   UNL     1      -1.022  -0.970   0.479  0.00  0.00    +0.088 A 
ATOM      6  C   UNL     1      -1.911  -1.127   1.569  0.00  0.00    +0.067 A 
ATOM      7  C   UNL     1      -2.314  -2.409   1.575  0.00  0.00    +0.198 A 
ATOM      8  O   UNL     1      -1.733  -3.066   0.557  0.00  0.00    -0.461 OA
ATOM      9  C   UNL     1      -0.935  -2.221  -0.132  0.00  0.00    +0.153 A 
ATOM     10  C   UNL     1      -0.054  -2.103  -1.218  0.00  0.00    +0.079 A 
ATOM     11  C   UNL     1       0.380  -0.811  -1.254  0.00  0.00    +0.109 A 
ATOM     12  C   UNL     1       1.322  -0.145  -2.161  0.00  0.00    +0.264 C 
ATOM     13  O   UNL     1       1.728  -0.685  -3.174  0.00  0.00    -0.268 OA
ATOM     14  N   UNL     1       1.716   1.102  -1.812  0.00  0.00    -0.282 N 
ENDROOT
BRANCH   2  15
ATOM     15  C   UNL     1       1.576   3.158  -0.559  0.00  0.00    +0.238 C 
ATOM     16  O   UNL     1       2.571   3.692  -0.114  0.00  0.00    -0.273 OA
ATOM     17  N   UNL     1       0.600   3.906  -1.110  0.00  0.00    -0.311 N 
ATOM     18  H   UNL     1      -0.210   3.482  -1.434  0.00  0.00    +0.149 HD
BRANCH  17  19
ATOM     19  C   UNL     1       0.762   5.357  -1.220  0.00  0.00    +0.073 C 
ATOM     20  C   UNL     1       0.342   6.019   0.094  0.00  0.00    +0.022 C 
ATOM     21  C   UNL     1       0.871   7.454   0.135  0.00  0.00    +0.002 C 
ATOM     22  C   UNL     1       2.321   7.478  -0.353  0.00  0.00    +0.000 C 
ATOM     23  C   UNL     1       2.400   8.233  -1.682  0.00  0.00    +0.000 C 
ATOM     24  C   UNL     1       1.866   7.343  -2.806  0.00  0.00    +0.000 C 
ATOM     25  C   UNL     1       0.339   7.295  -2.739  0.00  0.00    +0.002 C 
ATOM     26  C   UNL     1      -0.113   5.884  -2.360  0.00  0.00    +0.022 C 
ENDBRANCH  17  19
ENDBRANCH   2  15
BRANCH  14  27
ATOM     27  C   UNL     1       2.448   1.915  -2.785  0.00  0.00    +0.091 C 
BRANCH  27  28
ATOM     28  C   UNL     1       1.456   2.595  -3.731  0.00  0.00    -0.060 C 
BRANCH  28  30
ATOM     29  C   UNL     1       3.079   4.317  -4.241  0.00  0.00    -0.096 C 
ATOM     30  N   UNL     1       2.208   3.268  -4.811  0.00  0.00    +0.381 N 
ATOM     31  H   UNL     1       2.791   2.575  -5.293  0.00  0.00    -0.082 HD
BRANCH  30  32
ATOM     32  C   UNL     1       1.269   3.865  -5.784  0.00  0.00    -0.069 C 
ATOM     33  C   UNL     1       0.429   2.750  -6.411  0.00  0.00    -0.015 C 
ATOM     34  C   UNL     1      -0.532   3.352  -7.438  0.00  0.00    -0.002 C 
ATOM     35  C   UNL     1       0.270   4.063  -8.531  0.00  0.00    -0.000 C 
ATOM     36  C   UNL     1       1.109   5.178  -7.904  0.00  0.00    -0.002 C 
ATOM     37  C   UNL     1       2.070   4.576  -6.876  0.00  0.00    -0.015 C 
ENDBRANCH  30  32
ENDBRANCH  28  30
ENDBRANCH  27  28
ENDBRANCH  14  27
TORSDOF 6
