REMARK  Name = ZINC39898201
REMARK  13 active torsions:
REMARK  status: ('A' for Active; 'I' for Inactive)
REMARK    1  A    between atoms: C_1  and  C_2
REMARK    2  A    between atoms: C_2  and  O_3
REMARK    3  A    between atoms: O_3  and  C_4
REMARK    4  A    between atoms: C_6  and  C_14
REMARK    5  A    between atoms: C_9  and  O_10
REMARK    6  A    between atoms: O_10  and  C_11
REMARK    7  A    between atoms: C_11  and  C_12
REMARK    8  A    between atoms: C_17  and  C_29
REMARK    9  A    between atoms: N_24  and  C_25
REMARK   10  A    between atoms: C_25  and  C_26
REMARK   11  A    between atoms: C_26  and  O_27
REMARK   12  A    between atoms: O_27  and  C_28
REMARK   13  A    between atoms: C_34  and  O_35
REMARK                            x       y       z     vdW  Elec       q    Type
REMARK                         _______ _______ _______ _____ _____    ______ ____
ROOT
ATOM      1  C   UNL     1       0.166  -5.081  -0.126  0.00  0.00    +0.141 C 
ATOM      2  C   UNL     1       0.833  -5.535  -1.395  0.00  0.00    +0.035 A 
ATOM      3  C   UNL     1       1.469  -5.173  -2.588  0.00  0.00    +0.102 A 
ATOM      4  N   UNL     1       1.787  -6.287  -3.218  0.00  0.00    -0.173 NA
ATOM      5  N   UNL     1       1.415  -7.315  -2.542  0.00  0.00    -0.272 N 
ATOM      6  H   UNL     1       1.546  -8.237  -2.813  0.00  0.00    +0.189 HD
ATOM      7  C   UNL     1       0.808  -6.916  -1.385  0.00  0.00    +0.126 A 
ATOM      8  C   UNL     1       0.149  -7.362  -0.153  0.00  0.00    +0.266 C 
ATOM      9  O   UNL     1      -0.031  -8.524   0.157  0.00  0.00    -0.268 OA
ATOM     10  N   UNL     1      -0.228  -6.303   0.588  0.00  0.00    -0.283 N 
ENDROOT
BRANCH   3  11
ATOM     11  C   UNL     1       1.736  -3.791  -3.057  0.00  0.00    +0.045 A 
ATOM     12  C   UNL     1       1.465  -2.706  -2.227  0.00  0.00    +0.033 A 
ATOM     13  C   UNL     1       1.715  -1.421  -2.669  0.00  0.00    +0.042 A 
ATOM     14  C   UNL     1       2.234  -1.208  -3.934  0.00  0.00    +0.023 A 
ATOM     15  C   UNL     1       2.505  -2.279  -4.766  0.00  0.00    +0.047 A 
ATOM     16  C   UNL     1       2.265  -3.572  -4.332  0.00  0.00    +0.126 A 
ATOM     17 CL   UNL     1       1.376  -0.069  -1.633  0.00  0.00    -0.084 Cl
BRANCH  16  18
ATOM     18  O   UNL     1       2.537  -4.626  -5.146  0.00  0.00    -0.506 OA
ATOM     19  H   UNL     1       1.798  -4.885  -5.714  0.00  0.00    +0.292 HD
ENDBRANCH  16  18
ENDBRANCH   3  11
BRANCH   1  22
ATOM     20  C   UNL     1      -3.205  -4.041  -1.476  0.00  0.00    +0.162 A 
ATOM     21  C   UNL     1      -2.085  -4.801  -1.180  0.00  0.00    +0.055 A 
ATOM     22  C   UNL     1      -1.051  -4.252  -0.446  0.00  0.00    -0.019 A 
ATOM     23  C   UNL     1      -1.131  -2.944  -0.005  0.00  0.00    +0.009 A 
ATOM     24  C   UNL     1      -2.245  -2.180  -0.296  0.00  0.00    +0.050 A 
ATOM     25  C   UNL     1      -3.283  -2.723  -1.037  0.00  0.00    +0.162 A 
BRANCH  20  26
ATOM     26  O   UNL     1      -4.224  -4.580  -2.199  0.00  0.00    -0.489 OA
BRANCH  26  28
ATOM     27  C   UNL     1      -5.343  -6.398  -3.329  0.00  0.00    +0.048 C 
ATOM     28  C   UNL     1      -4.054  -5.922  -2.658  0.00  0.00    +0.226 C 
ENDBRANCH  26  28
ENDBRANCH  20  26
BRANCH  25  29
ATOM     29  O   UNL     1      -4.378  -1.971  -1.329  0.00  0.00    -0.484 OA
BRANCH  29  30
ATOM     30  C   UNL     1      -4.389  -0.626  -0.846  0.00  0.00    +0.256 C 
BRANCH  30  31
ATOM     31  C   UNL     1      -5.671   0.048  -1.263  0.00  0.00    +0.006 C 
ATOM     32  C   UNL     1      -6.344   0.767  -0.400  0.00  0.00    +0.007 C 
ENDBRANCH  30  31
ENDBRANCH  29  30
ENDBRANCH  25  29
ENDBRANCH   1  22
BRANCH  10  33
ATOM     33  C   UNL     1      -0.912  -6.358   1.882  0.00  0.00    +0.137 C 
BRANCH  33  34
ATOM     34  C   UNL     1      -2.418  -6.502   1.656  0.00  0.00    +0.178 C 
BRANCH  34  35
ATOM     35  O   UNL     1      -2.691  -7.768   1.052  0.00  0.00    -0.381 OA
ATOM     36  C   UNL     1      -4.077  -8.004   0.797  0.00  0.00    +0.194 C 
ENDBRANCH  34  35
ENDBRANCH  33  34
ENDBRANCH  10  33
TORSDOF 11
