REMARK  Name = ZINC00802286
REMARK  9 active torsions:
REMARK  status: ('A' for Active; 'I' for Inactive)
REMARK    1  A    between atoms: C_3  and  C_17
REMARK    2  A    between atoms: C_5  and  O_7
REMARK    3  A    between atoms: O_7  and  C_8
REMARK    4  A    between atoms: C_8  and  C_10
REMARK    5  A    between atoms: C_11  and  C_12
REMARK    6  A    between atoms: N_18  and  N_19
REMARK    7  A    between atoms: C_20  and  C_22
REMARK    8  A    between atoms: C_22  and  O_23
REMARK    9  A    between atoms: O_23  and  C_24
REMARK                            x       y       z     vdW  Elec       q    Type
REMARK                         _______ _______ _______ _____ _____    ______ ____
ROOT
ATOM      1  C   UNL     1      -6.887  -3.588   0.019  0.00  0.00    +0.004 A 
ATOM      2  C   UNL     1      -8.138  -3.010  -0.037  0.00  0.00    +0.010 A 
ATOM      3  C   UNL     1      -8.262  -1.619  -0.066  0.00  0.00    -0.002 A 
ATOM      4  C   UNL     1      -7.117  -0.820  -0.032  0.00  0.00    +0.055 A 
ATOM      5  C   UNL     1      -5.867  -1.412   0.018  0.00  0.00    +0.133 A 
ATOM      6  C   UNL     1      -5.754  -2.796   0.046  0.00  0.00    +0.046 A 
ENDROOT
BRANCH   3   7
ATOM      7  C   UNL     1      -9.598  -0.996  -0.126  0.00  0.00    +0.138 C 
ATOM      8  N   UNL     1     -10.660  -1.740  -0.151  0.00  0.00    -0.188 NA
BRANCH   8   9
ATOM      9  N   UNL     1     -11.929  -1.148  -0.208  0.00  0.00    -0.204 N 
ATOM     10  C   UNL     1     -13.033  -1.922  -0.235  0.00  0.00    +0.270 C 
ATOM     11  O   UNL     1     -12.927  -3.130  -0.210  0.00  0.00    -0.270 OA
ATOM     12  H   UNL     1     -12.013  -0.182  -0.228  0.00  0.00    +0.177 HD
BRANCH  10  13
ATOM     13  C   UNL     1     -14.397  -1.285  -0.296  0.00  0.00    +0.326 C 
BRANCH  13  14
ATOM     14  O   UNL     1     -15.398  -2.305  -0.314  0.00  0.00    -0.482 OA
BRANCH  14  15
ATOM     15  C   UNL     1     -16.694  -1.897  -0.369  0.00  0.00    +0.135 A 
ATOM     16  C   UNL     1     -16.995  -0.544  -0.404  0.00  0.00    +0.048 A 
ATOM     17  C   UNL     1     -18.312  -0.131  -0.459  0.00  0.00    +0.023 A 
ATOM     18  C   UNL     1     -19.331  -1.067  -0.480  0.00  0.00    +0.042 A 
ATOM     19  C   UNL     1     -19.034  -2.418  -0.446  0.00  0.00    +0.039 A 
ATOM     20  C   UNL     1     -17.717  -2.835  -0.396  0.00  0.00    +0.061 A 
ATOM     21 BR   UNL     1     -17.309  -4.681  -0.356  0.00  0.00    -0.046 Br
ATOM     22 CL   UNL     1     -20.986  -0.546  -0.549  0.00  0.00    -0.084 Cl
ENDBRANCH  14  15
ENDBRANCH  13  14
ENDBRANCH  10  13
ENDBRANCH   8   9
ENDBRANCH   3   7
BRANCH   5  23
ATOM     23  O   UNL     1      -4.750  -0.639   0.045  0.00  0.00    -0.423 OA
BRANCH  23  24
ATOM     24  C   UNL     1      -4.033  -0.520  -1.093  0.00  0.00    +0.337 C 
ATOM     25  O   UNL     1      -4.343  -1.166  -2.077  0.00  0.00    -0.245 OA
BRANCH  24  26
ATOM     26  C   UNL     1      -2.925   0.354  -1.142  0.00  0.00    +0.095 C 
ATOM     27  C   UNL     1      -2.204   0.474  -2.286  0.00  0.00    +0.053 C 
BRANCH  27  28
ATOM     28  C   UNL     1      -1.094   1.349  -2.335  0.00  0.00    +0.128 A 
ATOM     29  C   UNL     1      -0.277   1.567  -3.426  0.00  0.00    +0.049 A 
ATOM     30  C   UNL     1       0.685   2.506  -3.023  0.00  0.00    +0.042 A 
ATOM     31  C   UNL     1       0.425   2.817  -1.734  0.00  0.00    +0.195 A 
ATOM     32  O   UNL     1      -0.644   2.121  -1.323  0.00  0.00    -0.464 OA
ENDBRANCH  27  28
ENDBRANCH  24  26
ENDBRANCH  23  24
ENDBRANCH   5  23
TORSDOF 9
