REMARK  Name = ZINC49765432
REMARK  9 active torsions:
REMARK  status: ('A' for Active; 'I' for Inactive)
REMARK    1  A    between atoms: C_1  and  C_2
REMARK    2  A    between atoms: C_2  and  O_3
REMARK    3  A    between atoms: O_3  and  C_4
REMARK    4  A    between atoms: C_6  and  C_12
REMARK    5  A    between atoms: C_9  and  O_10
REMARK    6  A    between atoms: O_10  and  C_11
REMARK    7  A    between atoms: C_12  and  N_14
REMARK    8  A    between atoms: N_21  and  C_24
REMARK    9  A    between atoms: C_24  and  C_25
REMARK                            x       y       z     vdW  Elec       q    Type
REMARK                         _______ _______ _______ _____ _____    ______ ____
ROOT
ATOM      1  N   UNL     1       0.462  -6.277  -0.025  0.00  0.00    -0.152 NA
ATOM      2  C   UNL     1       1.526  -7.078  -0.034  0.00  0.00    +0.164 A 
ATOM      3  N   UNL     1       2.842  -6.734  -0.034  0.00  0.00    -0.339 N 
ATOM      4  C   UNL     1       3.796  -7.714  -0.044  0.00  0.00    +0.024 A 
ATOM      5  C   UNL     1       3.325  -8.973  -0.056  0.00  0.00    -0.004 A 
ATOM      6  S   UNL     1       1.568  -8.761  -0.042  0.00  0.00    -0.059 S 
ATOM      7  C   UNL     1       4.131 -10.229  -0.074  0.00  0.00    -0.033 C 
ATOM      8  N   UNL     1       5.515  -9.888  -0.452  0.00  0.00    +0.386 N 
ATOM      9  C   UNL     1       5.989  -8.773   0.379  0.00  0.00    -0.072 C 
ATOM     10  C   UNL     1       5.300  -7.471  -0.041  0.00  0.00    +0.035 C 
ATOM     11  H   UNL     1       3.103  -5.800  -0.026  0.00  0.00    +0.167 HD
ATOM     12  H   UNL     1       5.541  -9.618  -1.424  0.00  0.00    -0.081 HD
ENDROOT
BRANCH   1  13
ATOM     13  C   UNL     1       0.623  -4.952  -0.019  0.00  0.00    +0.270 C 
ATOM     14  O   UNL     1       1.746  -4.474  -0.023  0.00  0.00    -0.268 OA
BRANCH  13  17
ATOM     15  C   UNL     1      -1.498  -1.849   0.006  0.00  0.00    +0.163 A 
ATOM     16  C   UNL     1      -0.391  -2.676  -0.003  0.00  0.00    +0.062 A 
ATOM     17  C   UNL     1      -0.559  -4.062  -0.009  0.00  0.00    +0.042 A 
ATOM     18  C   UNL     1      -1.844  -4.607  -0.005  0.00  0.00    +0.017 A 
ATOM     19  C   UNL     1      -2.945  -3.777   0.004  0.00  0.00    +0.050 A 
ATOM     20  C   UNL     1      -2.779  -2.400   0.016  0.00  0.00    +0.162 A 
BRANCH  20  21
ATOM     21  O   UNL     1      -3.866  -1.586   0.031  0.00  0.00    -0.491 OA
ATOM     22  C   UNL     1      -5.149  -2.217   0.040  0.00  0.00    +0.277 C 
ENDBRANCH  20  21
BRANCH  15  23
ATOM     23  O   UNL     1      -1.339  -0.499   0.012  0.00  0.00    -0.489 OA
BRANCH  23  25
ATOM     24  C   UNL     1      -0.019   1.526   0.010  0.00  0.00    +0.048 C 
ATOM     25  C   UNL     1       0.002  -0.004   0.002  0.00  0.00    +0.226 C 
ENDBRANCH  23  25
ENDBRANCH  15  23
ENDBRANCH  13  17
ENDBRANCH   1  13
BRANCH   8  26
ATOM     26  C   UNL     1       6.382 -11.056  -0.245  0.00  0.00    -0.043 C 
BRANCH  26  27
ATOM     27  C   UNL     1       5.972 -12.159  -1.186  0.00  0.00    -0.064 A 
ATOM     28  C   UNL     1       5.018 -13.081  -0.797  0.00  0.00    +0.002 A 
ATOM     29  C   UNL     1       4.641 -14.093  -1.660  0.00  0.00    +0.000 A 
ATOM     30  C   UNL     1       5.219 -14.183  -2.913  0.00  0.00    +0.000 A 
ATOM     31  C   UNL     1       6.172 -13.261  -3.302  0.00  0.00    +0.000 A 
ATOM     32  C   UNL     1       6.545 -12.246  -2.441  0.00  0.00    +0.002 A 
ENDBRANCH  26  27
ENDBRANCH   8  26
TORSDOF 7
