REMARK  Name = ZINC63557508
REMARK  8 active torsions:
REMARK  status: ('A' for Active; 'I' for Inactive)
REMARK    1  A    between atoms: C_1  and  C_2
REMARK    2  A    between atoms: C_2  and  C_3
REMARK    3  A    between atoms: C_5  and  C_32
REMARK    4  A    between atoms: C_7  and  N_10
REMARK    5  A    between atoms: C_11  and  C_13
REMARK    6  A    between atoms: N_18  and  C_20
REMARK    7  A    between atoms: C_20  and  C_21
REMARK    8  A    between atoms: C_21  and  C_22
REMARK                            x       y       z     vdW  Elec       q    Type
REMARK                         _______ _______ _______ _____ _____    ______ ____
ROOT
ATOM      1  C   UNL     1       4.403  -2.989   5.111  0.00  0.00    +0.101 C 
ATOM      2  C   UNL     1       5.577  -2.002   5.309  0.00  0.00    +0.110 C 
ATOM      3  C   UNL     1       6.455  -2.672   6.343  0.00  0.00    +0.216 C 
ATOM      4  O   UNL     1       7.323  -2.117   6.982  0.00  0.00    -0.276 OA
ATOM      5  N   UNL     1       6.132  -3.973   6.451  0.00  0.00    -0.300 N 
ATOM      6  C   UNL     1       5.044  -4.330   5.532  0.00  0.00    +0.121 C 
ENDROOT
BRANCH   1   8
ATOM      7  N   UNL     1       3.442  -1.929   3.093  0.00  0.00    -0.285 N 
ATOM      8  C   UNL     1       3.969  -3.029   3.668  0.00  0.00    +0.220 C 
ATOM      9  O   UNL     1       4.093  -4.049   3.025  0.00  0.00    -0.275 OA
ATOM     10  H   UNL     1       3.342  -1.113   3.608  0.00  0.00    +0.152 HD
BRANCH   7  14
ATOM     11  C   UNL     1       0.735  -0.508   1.287  0.00  0.00    +0.099 C 
ATOM     12  C   UNL     1       0.660  -2.026   1.353  0.00  0.00    +0.059 C 
ATOM     13  N   UNL     1       1.734  -2.678   1.540  0.00  0.00    -0.254 NA
ATOM     14  C   UNL     1       3.020  -1.968   1.691  0.00  0.00    +0.252 C 
ATOM     15  S   UNL     1       2.558  -0.283   1.088  0.00  0.00    -0.106 S 
BRANCH  12  16
ATOM     16  C   UNL     1      -0.631  -2.726   1.204  0.00  0.00    -0.003 A 
ATOM     17  C   UNL     1      -0.663  -4.061   0.796  0.00  0.00    +0.010 A 
ATOM     18  C   UNL     1      -1.873  -4.708   0.658  0.00  0.00    +0.001 A 
ATOM     19  C   UNL     1      -3.054  -4.038   0.922  0.00  0.00    +0.000 A 
ATOM     20  C   UNL     1      -3.030  -2.715   1.327  0.00  0.00    +0.001 A 
ATOM     21  C   UNL     1      -1.827  -2.057   1.475  0.00  0.00    +0.010 A 
ENDBRANCH  12  16
BRANCH  11  23
ATOM     22  C   UNL     1       0.157   1.551  -0.005  0.00  0.00    +0.005 C 
ATOM     23  C   UNL     1      -0.027   0.034   0.076  0.00  0.00    +0.017 C 
ENDBRANCH  11  23
ENDBRANCH   7  14
ENDBRANCH   1   8
BRANCH   5  24
ATOM     24  C   UNL     1       6.781  -4.912   7.368  0.00  0.00    +0.112 C 
BRANCH  24  25
ATOM     25  C   UNL     1       6.039  -4.915   8.706  0.00  0.00    +0.052 C 
BRANCH  25  26
ATOM     26  C   UNL     1       6.707  -5.881   9.649  0.00  0.00    -0.040 C 
ATOM     27  C   UNL     1       7.639  -5.591  10.585  0.00  0.00    +0.000 A 
ATOM     28  C   UNL     1       8.286  -4.337  10.988  0.00  0.00    +0.030 A 
ATOM     29  C   UNL     1       9.205  -4.362  11.982  0.00  0.00    +0.042 A 
ATOM     30  C   UNL     1       9.554  -5.554  12.633  0.00  0.00    +0.022 A 
ATOM     31  C   UNL     1       9.003  -6.745  12.318  0.00  0.00    +0.027 A 
ATOM     32  C   UNL     1       8.025  -6.835  11.289  0.00  0.00    +0.043 A 
ATOM     33  N   UNL     1       7.357  -7.855  10.807  0.00  0.00    -0.380 N 
ATOM     34  C   UNL     1       6.466  -7.371   9.746  0.00  0.00    +0.144 C 
ATOM     35 CL   UNL     1       9.972  -2.880  12.461  0.00  0.00    -0.084 Cl
ATOM     36  H   UNL     1       7.435  -8.774  11.105  0.00  0.00    +0.160 HD
ENDBRANCH  25  26
ENDBRANCH  24  25
ENDBRANCH   5  24
TORSDOF 7
