REMARK  Name = ZINC13273876
REMARK  8 active torsions:
REMARK  status: ('A' for Active; 'I' for Inactive)
REMARK    1  A    between atoms: C_4  and  N_9
REMARK    2  A    between atoms: C_5  and  C_7
REMARK    3  A    between atoms: N_9  and  S_10
REMARK    4  A    between atoms: S_10  and  C_13
REMARK    5  A    between atoms: C_16  and  O_22
REMARK    6  A    between atoms: C_17  and  N_19
REMARK    7  A    between atoms: O_22  and  C_23
REMARK    8  A    between atoms: C_27  and  C_29
REMARK                            x       y       z     vdW  Elec       q    Type
REMARK                         _______ _______ _______ _____ _____    ______ ____
ROOT
ATOM      1  C   UNL     1      -3.510   2.115  -2.426  0.00  0.00    +0.111 A 
ATOM      2  C   UNL     1      -2.868   3.183  -3.025  0.00  0.00    +0.032 A 
ATOM      3  C   UNL     1      -2.648   3.181  -4.389  0.00  0.00    +0.050 A 
ATOM      4  C   UNL     1      -3.082   2.112  -5.159  0.00  0.00    +0.159 A 
ATOM      5  C   UNL     1      -3.731   1.044  -4.556  0.00  0.00    +0.170 A 
ATOM      6  C   UNL     1      -3.943   1.048  -3.191  0.00  0.00    +0.065 A 
ENDROOT
BRANCH   1   7
ATOM      7  S   UNL     1      -3.782   2.117  -0.685  0.00  0.00    +0.072 S 
ATOM      8  O   UNL     1      -4.891   1.260  -0.447  0.00  0.00    -0.150 OA
ATOM      9  O   UNL     1      -3.768   3.477  -0.273  0.00  0.00    -0.150 OA
BRANCH   7  10
ATOM     10  N   UNL     1      -2.467   1.396   0.017  0.00  0.00    -0.215 N 
ATOM     11  H   UNL     1      -2.580   0.591   0.547  0.00  0.00    +0.174 HD
BRANCH  10  15
ATOM     12  C   UNL     1       1.326   3.042  -0.494  0.00  0.00    +0.001 A 
ATOM     13  C   UNL     1       0.216   3.864  -0.384  0.00  0.00    +0.002 A 
ATOM     14  C   UNL     1      -1.041   3.323  -0.211  0.00  0.00    +0.025 A 
ATOM     15  C   UNL     1      -1.203   1.944  -0.151  0.00  0.00    +0.062 A 
ATOM     16  C   UNL     1      -0.080   1.108  -0.258  0.00  0.00    +0.085 A 
ATOM     17  C   UNL     1       1.187   1.673  -0.432  0.00  0.00    +0.017 A 
BRANCH  16  18
ATOM     18  C   UNL     1      -0.236  -0.355  -0.191  0.00  0.00    +0.388 C 
ATOM     19  O   UNL     1      -1.339  -0.842  -0.039  0.00  0.00    -0.241 OA
ATOM     20  O   UNL     1       0.844  -1.154  -0.299  0.00  0.00    -0.241 OA
ENDBRANCH  16  18
ENDBRANCH  10  15
ENDBRANCH   7  10
ENDBRANCH   1   7
BRANCH   5  21
ATOM     21  N   UNL     1      -4.196  -0.099  -5.375  0.00  0.00    +0.060 N 
ATOM     22  O   UNL     1      -4.766  -1.036  -4.845  0.00  0.00    -0.126 OA
ATOM     23  O   UNL     1      -4.008  -0.101  -6.578  0.00  0.00    -0.126 OA
ENDBRANCH   5  21
BRANCH   4  24
ATOM     24  O   UNL     1      -2.872   2.110  -6.502  0.00  0.00    -0.454 OA
BRANCH  24  25
ATOM     25  C   UNL     1      -3.851   2.608  -7.301  0.00  0.00    +0.129 A 
ATOM     26  C   UNL     1      -5.066   2.996  -6.751  0.00  0.00    +0.046 A 
ATOM     27  C   UNL     1      -6.064   3.509  -7.559  0.00  0.00    +0.004 A 
ATOM     28  C   UNL     1      -5.864   3.628  -8.919  0.00  0.00    +0.015 A 
ATOM     29  C   UNL     1      -4.648   3.235  -9.482  0.00  0.00    +0.067 A 
ATOM     30  C   UNL     1      -3.639   2.723  -8.665  0.00  0.00    +0.061 A 
BRANCH  29  31
ATOM     31  C   UNL     1      -4.430   3.361 -10.938  0.00  0.00    +0.387 C 
ATOM     32  O   UNL     1      -3.372   3.019 -11.426  0.00  0.00    -0.241 OA
ATOM     33  O   UNL     1      -5.406   3.856 -11.725  0.00  0.00    -0.241 OA
ENDBRANCH  29  31
ENDBRANCH  24  25
ENDBRANCH   4  24
TORSDOF 8
