REMARK  Name = ZINC12132085
REMARK  6 active torsions:
REMARK  status: ('A' for Active; 'I' for Inactive)
REMARK    1  A    between atoms: C_6  and  C_7
REMARK    2  A    between atoms: C_8  and  C_13
REMARK    3  A    between atoms: C_13  and  N_63
REMARK    4  A    between atoms: C_20  and  C_24
REMARK    5  A    between atoms: C_24  and  N_65
REMARK    6  A    between atoms: C_28  and  C_31
REMARK                            x       y       z     vdW  Elec       q    Type
REMARK                         _______ _______ _______ _____ _____    ______ ____
ROOT
ATOM      1  C   UNL     1      -2.611   0.858   1.972  0.00  0.00    -0.036 C 
ATOM      2  C   UNL     1      -3.952   0.989   1.281  0.00  0.00    +0.210 C 
ATOM      3  O   UNL     1      -3.932   0.328   0.009  0.00  0.00    -0.494 OA
ATOM      4  C   UNL     1      -3.453   1.071  -1.025  0.00  0.00    +0.122 A 
ATOM      5  C   UNL     1      -4.312   1.510  -2.023  0.00  0.00    +0.046 A 
ATOM      6  C   UNL     1      -3.823   2.293  -3.051  0.00  0.00    +0.005 A 
ATOM      7  C   UNL     1      -2.484   2.638  -3.088  0.00  0.00    -0.064 A 
ATOM      8  C   UNL     1      -1.625   2.192  -2.099  0.00  0.00    +0.007 A 
ATOM      9  C   UNL     1      -2.113   1.404  -1.077  0.00  0.00    -0.022 A 
ATOM     10  C   UNL     1      -1.180   0.888   0.002  0.00  0.00    -0.039 C 
ATOM     11  N   UNL     1      -1.525   1.576   1.268  0.00  0.00    +0.387 N 
ATOM     12  H   UNL     1      -1.846   2.526   1.049  0.00  0.00    -0.081 HD
ENDROOT
BRANCH  11  13
ATOM     13  C   UNL     1      -0.336   1.663   2.134  0.00  0.00    -0.039 C 
BRANCH  13  15
ATOM     14  C   UNL     1      -0.724   3.936   3.333  0.00  0.00    +0.094 A 
ATOM     15  C   UNL     1      -0.669   2.528   3.322  0.00  0.00    -0.019 A 
ATOM     16  C   UNL     1      -0.961   2.093   4.566  0.00  0.00    +0.107 A 
ATOM     17  N   UNL     1      -1.199   3.173   5.341  0.00  0.00    -0.284 N 
ATOM     18  H   UNL     1      -1.440   3.158   6.311  0.00  0.00    +0.188 HD
ATOM     19  N   UNL     1      -1.049   4.319   4.549  0.00  0.00    -0.174 NA
BRANCH  14  25
ATOM     20  C   UNL     1       0.620   4.586   1.335  0.00  0.00    +0.013 A 
ATOM     21  C   UNL     1       0.854   5.416   0.258  0.00  0.00    +0.039 A 
ATOM     22  C   UNL     1       0.020   6.495   0.018  0.00  0.00    +0.123 A 
ATOM     23  C   UNL     1      -1.056   6.744   0.855  0.00  0.00    +0.039 A 
ATOM     24  C   UNL     1      -1.301   5.916   1.931  0.00  0.00    +0.013 A 
ATOM     25  C   UNL     1      -0.465   4.829   2.176  0.00  0.00    +0.002 A 
ATOM     26  F   UNL     1       0.256   7.309  -1.034  0.00  0.00    -0.205 F 
ENDBRANCH  14  25
ENDBRANCH  13  15
ENDBRANCH  11  13
BRANCH   7  27
ATOM     27  C   UNL     1      -1.960   3.501  -4.207  0.00  0.00    -0.043 C 
BRANCH  27  33
ATOM     28  C   UNL     1      -3.464   5.325  -3.688  0.00  0.00    -0.078 C 
ATOM     29  C   UNL     1      -3.530   6.755  -3.149  0.00  0.00    -0.018 C 
ATOM     30  C   UNL     1      -2.796   7.693  -4.112  0.00  0.00    +0.009 C 
ATOM     31  C   UNL     1      -1.350   7.216  -4.273  0.00  0.00    +0.058 C 
ATOM     32  C   UNL     1      -1.348   5.772  -4.780  0.00  0.00    -0.066 C 
ATOM     33  N   UNL     1      -2.047   4.917  -3.797  0.00  0.00    +0.383 N 
ATOM     34  H   UNL     1      -1.598   5.027  -2.881  0.00  0.00    -0.081 HD
BRANCH  31  35
ATOM     35  C   UNL     1      -0.637   8.098  -5.265  0.00  0.00    +0.212 C 
ATOM     36  O   UNL     1      -0.172   7.620  -6.278  0.00  0.00    -0.276 OA
ATOM     37  N   UNL     1      -0.515   9.419  -5.026  0.00  0.00    -0.329 N 
ATOM     38  H   UNL     1      -0.887   9.802  -4.216  0.00  0.00    +0.145 HD
ATOM     39  H   UNL     1      -0.056   9.987  -5.665  0.00  0.00    +0.145 HD
ENDBRANCH  31  35
ENDBRANCH  27  33
ENDBRANCH   7  27
TORSDOF 6
