REMARK  Name = ZINC09092531
REMARK  7 active torsions:
REMARK  status: ('A' for Active; 'I' for Inactive)
REMARK    1  A    between atoms: C_1  and  C_2
REMARK    2  A    between atoms: C_2  and  C_4
REMARK    3  A    between atoms: C_2  and  N_11
REMARK    4  A    between atoms: C_12  and  C_14
REMARK    5  A    between atoms: C_14  and  N_15
REMARK    6  A    between atoms: C_18  and  C_22
REMARK    7  A    between atoms: C_18  and  C_23
REMARK                            x       y       z     vdW  Elec       q    Type
REMARK                         _______ _______ _______ _____ _____    ______ ____
ROOT
ATOM      1  N   UNL     1       4.574   0.566  -1.500  0.00  0.00    -0.215 N 
ATOM      2  C   UNL     1       5.244  -0.494  -1.008  0.00  0.00    +0.251 C 
ATOM      3  O   UNL     1       5.262  -0.879   0.142  0.00  0.00    -0.272 OA
ATOM      4  C   UNL     1       5.968  -1.108  -2.190  0.00  0.00    +0.135 C 
ATOM      5  N   UNL     1       5.593  -0.235  -3.316  0.00  0.00    -0.281 N 
ATOM      6  C   UNL     1       4.778   0.711  -2.815  0.00  0.00    +0.310 C 
ATOM      7  O   UNL     1       4.284   1.599  -3.481  0.00  0.00    -0.252 OA
ATOM      8  C   UNL     1       7.481  -1.079  -1.967  0.00  0.00    +0.047 C 
ATOM      9  H   UNL     1       5.877  -0.326  -4.239  0.00  0.00    +0.152 HD
ENDROOT
BRANCH   4  10
ATOM     10  C   UNL     1       5.496  -2.518  -2.432  0.00  0.00    -0.012 A 
ATOM     11  C   UNL     1       5.142  -3.321  -1.363  0.00  0.00    +0.010 A 
ATOM     12  C   UNL     1       4.705  -4.614  -1.581  0.00  0.00    +0.050 A 
ATOM     13  C   UNL     1       4.629  -5.112  -2.871  0.00  0.00    +0.166 A 
ATOM     14  C   UNL     1       4.990  -4.306  -3.947  0.00  0.00    +0.167 A 
ATOM     15  C   UNL     1       5.423  -3.009  -3.722  0.00  0.00    +0.055 A 
ATOM     16  O   UNL     1       4.830  -5.019  -5.100  0.00  0.00    -0.453 OA
ATOM     17  C   UNL     1       3.982  -6.129  -4.751  0.00  0.00    +0.466 C 
ATOM     18  O   UNL     1       4.242  -6.331  -3.349  0.00  0.00    -0.453 OA
ENDBRANCH   4  10
BRANCH   1  19
ATOM     19  C   UNL     1       3.732   1.454  -0.695  0.00  0.00    +0.213 C 
BRANCH  19  21
ATOM     20  N   UNL     1       1.362   1.593  -0.002  0.00  0.00    -0.307 N 
ATOM     21  C   UNL     1       2.318   0.933  -0.685  0.00  0.00    +0.231 C 
ATOM     22  O   UNL     1       2.042  -0.081  -1.290  0.00  0.00    -0.274 OA
ATOM     23  H   UNL     1       1.583   2.404   0.482  0.00  0.00    +0.149 HD
BRANCH  20  25
ATOM     24  C   UNL     1      -0.753   1.593  -1.232  0.00  0.00    +0.033 C 
ATOM     25  C   UNL     1      -0.013   1.086   0.008  0.00  0.00    +0.100 C 
BRANCH  25  26
ATOM     26  C   UNL     1      -0.718   1.572   1.248  0.00  0.00    -0.027 A 
ATOM     27  C   UNL     1      -0.510   2.861   1.700  0.00  0.00    +0.006 A 
ATOM     28  C   UNL     1      -1.161   3.309   2.835  0.00  0.00    +0.015 A 
ATOM     29  C   UNL     1      -2.012   2.463   3.523  0.00  0.00    +0.018 A 
ATOM     30  C   UNL     1      -2.215   1.171   3.073  0.00  0.00    +0.015 A 
ATOM     31  C   UNL     1      -1.568   0.726   1.936  0.00  0.00    +0.006 A 
ATOM     32 BR   UNL     1      -2.897   3.073   5.079  0.00  0.00    -0.050 Br
ENDBRANCH  25  26
ENDBRANCH  20  25
ENDBRANCH  19  21
ENDBRANCH   1  19
TORSDOF 5
