REMARK  Name = ZINC35779159
REMARK  13 active torsions:
REMARK  status: ('A' for Active; 'I' for Inactive)
REMARK    1  A    between atoms: C_1  and  O_2
REMARK    2  A    between atoms: O_2  and  C_3
REMARK    3  A    between atoms: C_3  and  C_4
REMARK    4  A    between atoms: C_4  and  N_5
REMARK    5  A    between atoms: N_5  and  C_6
REMARK    6  A    between atoms: N_5  and  C_16
REMARK    7  A    between atoms: C_6  and  C_7
REMARK    8  A    between atoms: C_7  and  C_9
REMARK    9  A    between atoms: C_7  and  O_15
REMARK   10  A    between atoms: C_16  and  C_17
REMARK   11  A    between atoms: C_27  and  C_29
REMARK   12  A    between atoms: C_29  and  O_30
REMARK   13  A    between atoms: O_30  and  C_31
REMARK                            x       y       z     vdW  Elec       q    Type
REMARK                         _______ _______ _______ _____ _____    ______ ____
ROOT
ATOM      1  C   UNL     1      -0.359  -4.154   0.758  0.00  0.00    +0.200 C 
ATOM      2  O   UNL     1       0.083  -3.209   1.377  0.00  0.00    -0.278 OA
ATOM      3  N   UNL     1      -0.368  -5.380   1.317  0.00  0.00    -0.292 N 
ATOM      4  C   UNL     1      -0.895  -6.534   0.573  0.00  0.00    +0.113 C 
ATOM      5  C   UNL     1       0.260  -7.514   0.320  0.00  0.00    +0.061 C 
ATOM      6  C   UNL     1       1.070  -7.633   1.570  0.00  0.00    -0.004 A 
ATOM      7  C   UNL     1       1.069  -6.803   2.648  0.00  0.00    -0.014 A 
ATOM      8  C   UNL     1       1.932  -7.134   3.693  0.00  0.00    +0.013 A 
ATOM      9  C   UNL     1       2.711  -8.236   3.603  0.00  0.00    +0.046 A 
ATOM     10  S   UNL     1       2.256  -8.880   2.000  0.00  0.00    -0.101 S 
ATOM     11  C   UNL     1       0.156  -5.585   2.674  0.00  0.00    +0.144 C 
ENDROOT
BRANCH   1  12
ATOM     12  C   UNL     1      -0.898  -3.956  -0.635  0.00  0.00    +0.019 C 
BRANCH  12  13
ATOM     13  N   UNL     1      -0.777  -2.541  -1.010  0.00  0.00    +0.389 N 
ATOM     14  H   UNL     1      -1.235  -1.968  -0.317  0.00  0.00    -0.081 HD
BRANCH  13  15
ATOM     15  C   UNL     1       0.643  -2.175  -1.088  0.00  0.00    -0.050 C 
BRANCH  15  16
ATOM     16  C   UNL     1       0.770  -0.669  -1.326  0.00  0.00    +0.141 C 
BRANCH  16  18
ATOM     17  C   UNL     1       0.301   1.459  -0.327  0.00  0.00    +0.193 C 
ATOM     18  O   UNL     1       0.232   0.037  -0.206  0.00  0.00    -0.385 OA
ENDBRANCH  16  18
ENDBRANCH  15  16
ENDBRANCH  13  15
BRANCH  13  19
ATOM     19  C   UNL     1      -1.411  -2.325  -2.318  0.00  0.00    -0.042 C 
BRANCH  19  20
ATOM     20  C   UNL     1      -2.917  -2.567  -2.201  0.00  0.00    +0.128 C 
BRANCH  20  21
ATOM     21  C   UNL     1      -3.566  -2.352  -3.544  0.00  0.00    -0.021 A 
ATOM     22  C   UNL     1      -3.835  -1.069  -3.984  0.00  0.00    +0.006 A 
ATOM     23  C   UNL     1      -4.431  -0.872  -5.216  0.00  0.00    +0.000 A 
ATOM     24  C   UNL     1      -4.756  -1.958  -6.008  0.00  0.00    +0.000 A 
ATOM     25  C   UNL     1      -4.486  -3.240  -5.569  0.00  0.00    +0.000 A 
ATOM     26  C   UNL     1      -3.886  -3.437  -4.339  0.00  0.00    +0.006 A 
ENDBRANCH  20  21
BRANCH  20  27
ATOM     27  O   UNL     1      -3.473  -1.655  -1.252  0.00  0.00    -0.389 OA
ATOM     28  H   UNL     1      -3.413  -0.727  -1.516  0.00  0.00    +0.210 HD
ENDBRANCH  20  27
ENDBRANCH  19  20
ENDBRANCH  13  19
ENDBRANCH  12  13
ENDBRANCH   1  12
BRANCH  11  29
ATOM     29  C   UNL     1      -1.002  -5.831   3.644  0.00  0.00    +0.256 C 
BRANCH  29  30
ATOM     30  O   UNL     1      -1.654  -7.056   3.306  0.00  0.00    -0.490 OA
BRANCH  30  31
ATOM     31  C   UNL     1      -2.712  -7.425   4.075  0.00  0.00    +0.121 A 
ATOM     32  C   UNL     1      -3.117  -6.620   5.130  0.00  0.00    +0.048 A 
ATOM     33  C   UNL     1      -4.193  -6.996   5.912  0.00  0.00    +0.042 A 
ATOM     34  C   UNL     1      -4.866  -8.175   5.643  0.00  0.00    +0.124 A 
ATOM     35  C   UNL     1      -4.463  -8.980   4.590  0.00  0.00    +0.042 A 
ATOM     36  C   UNL     1      -3.392  -8.603   3.803  0.00  0.00    +0.048 A 
ATOM     37  F   UNL     1      -5.917  -8.542   6.408  0.00  0.00    -0.205 F 
ENDBRANCH  30  31
ENDBRANCH  29  30
ENDBRANCH  11  29
TORSDOF 12
