REMARK  Name = ZINC00717704
REMARK  15 active torsions:
REMARK  status: ('A' for Active; 'I' for Inactive)
REMARK    1  A    between atoms: C_1  and  C_2
REMARK    2  A    between atoms: C_3  and  C_32
REMARK    3  A    between atoms: C_4  and  C_20
REMARK    4  A    between atoms: C_10  and  C_15
REMARK    5  A    between atoms: C_22  and  O_30
REMARK    6  A    between atoms: C_23  and  O_28
REMARK    7  A    between atoms: C_24  and  O_26
REMARK    8  A    between atoms: O_26  and  C_27
REMARK    9  A    between atoms: O_28  and  C_29
REMARK   10  A    between atoms: O_30  and  C_31
REMARK   11  A    between atoms: C_32  and  O_34
REMARK   12  A    between atoms: O_34  and  C_35
REMARK   13  A    between atoms: C_35  and  C_36
REMARK   14  A    between atoms: C_36  and  C_37
REMARK   15  A    between atoms: C_36  and  C_38
REMARK                            x       y       z     vdW  Elec       q    Type
REMARK                         _______ _______ _______ _____ _____    ______ ____
ROOT
ATOM      1  C   UNL     1       4.847   7.353   3.765  0.00  0.00    +0.061 C 
ATOM      2  C   UNL     1       4.164   7.040   2.458  0.00  0.00    +0.016 C 
ATOM      3  C   UNL     1       4.506   7.718   1.349  0.00  0.00    +0.065 C 
ATOM      4  C   UNL     1       3.843   7.439   0.031  0.00  0.00    +0.092 C 
ATOM      5  C   UNL     1       3.145   6.102   0.050  0.00  0.00    +0.024 C 
ATOM      6  C   UNL     1       2.853   5.492   1.218  0.00  0.00    +0.016 C 
ATOM      7  N   UNL     1       3.203   6.070   2.409  0.00  0.00    -0.321 N 
ATOM      8  C   UNL     1       2.138   4.164   1.247  0.00  0.00    +0.060 C 
ATOM      9  C   UNL     1       2.498   3.360  -0.004  0.00  0.00    +0.039 C 
ATOM     10  C   UNL     1       2.113   4.178  -1.241  0.00  0.00    +0.088 C 
ATOM     11  C   UNL     1       2.805   5.513  -1.181  0.00  0.00    +0.162 C 
ATOM     12  O   UNL     1       3.075   6.092  -2.214  0.00  0.00    -0.292 OA
ATOM     13  H   UNL     1       2.701   5.746   3.333  0.00  0.00    +0.152 HD
ENDROOT
BRANCH   4  14
ATOM     14  C   UNL     1       2.833   8.520  -0.254  0.00  0.00    -0.028 A 
ATOM     15  C   UNL     1       1.761   8.704   0.598  0.00  0.00    +0.054 A 
ATOM     16  C   UNL     1       0.832   9.702   0.342  0.00  0.00    +0.165 A 
ATOM     17  C   UNL     1       0.975  10.510  -0.779  0.00  0.00    +0.204 A 
ATOM     18  C   UNL     1       2.052  10.319  -1.637  0.00  0.00    +0.165 A 
ATOM     19  C   UNL     1       2.980   9.322  -1.370  0.00  0.00    +0.054 A 
BRANCH  18  20
ATOM     20  O   UNL     1       2.196  11.107  -2.736  0.00  0.00    -0.491 OA
ATOM     21  C   UNL     1       3.327  10.853  -3.572  0.00  0.00    +0.277 C 
ENDBRANCH  18  20
BRANCH  17  22
ATOM     22  O   UNL     1       0.063  11.486  -1.038  0.00  0.00    -0.488 OA
ATOM     23  C   UNL     1      -1.062  11.127  -1.843  0.00  0.00    +0.277 C 
ENDBRANCH  17  22
BRANCH  16  24
ATOM     24  O   UNL     1      -0.220   9.885   1.184  0.00  0.00    -0.491 OA
ATOM     25  C   UNL     1      -0.303   9.018   2.317  0.00  0.00    +0.277 C 
ENDBRANCH  16  24
ENDBRANCH   4  14
BRANCH   9  26
ATOM     26  C   UNL     1       1.742   2.057  -0.004  0.00  0.00    -0.006 A 
ATOM     27  C   UNL     1       2.223   0.790  -0.015  0.00  0.00    +0.011 A 
ATOM     28  C   UNL     1       1.332  -0.266  -0.012  0.00  0.00    +0.008 A 
ATOM     29  C   UNL     1       0.002  -0.004   0.002  0.00  0.00    +0.045 A 
ATOM     30  S   UNL     1      -0.022   1.781   0.012  0.00  0.00    -0.101 S 
ENDBRANCH   9  26
BRANCH   3  31
ATOM     31  C   UNL     1       5.508   8.713   1.424  0.00  0.00    +0.338 C 
ATOM     32  O   UNL     1       6.053   8.948   2.486  0.00  0.00    -0.245 OA
BRANCH  31  33
ATOM     33  O   UNL     1       5.861   9.400   0.318  0.00  0.00    -0.461 OA
BRANCH  33  34
ATOM     34  C   UNL     1       6.881  10.390   0.467  0.00  0.00    +0.235 C 
BRANCH  34  35
ATOM     35  C   UNL     1       7.143  11.059  -0.884  0.00  0.00    +0.020 C 
ATOM     36  C   UNL     1       5.895  11.827  -1.324  0.00  0.00    +0.010 C 
ATOM     37  C   UNL     1       8.319  12.030  -0.752  0.00  0.00    +0.010 C 
ENDBRANCH  34  35
ENDBRANCH  33  34
ENDBRANCH  31  33
ENDBRANCH   3  31
TORSDOF 9
