REMARK  Name = ZINC13148573
REMARK  6 active torsions:
REMARK  status: ('A' for Active; 'I' for Inactive)
REMARK    1  A    between atoms: C_1  and  C_2
REMARK    2  A    between atoms: C_2  and  C_4
REMARK    3  A    between atoms: C_2  and  O_21
REMARK    4  A    between atoms: C_10  and  C_15
REMARK    5  A    between atoms: O_21  and  C_22
REMARK    6  A    between atoms: C_22  and  C_24
REMARK                            x       y       z     vdW  Elec       q    Type
REMARK                         _______ _______ _______ _____ _____    ______ ____
ROOT
ATOM      1  C   UNL     1       0.707  -0.490  -1.238  0.00  0.00    +0.152 A 
ATOM      2  N   UNL     1       1.109  -1.785  -1.313  0.00  0.00    -0.307 N 
ATOM      3  H   UNL     1       0.936  -2.380  -0.567  0.00  0.00    +0.170 HD
ATOM      4  C   UNL     1       1.741  -2.259  -2.402  0.00  0.00    +0.260 A 
ATOM      5  O   UNL     1       2.095  -3.424  -2.455  0.00  0.00    -0.267 OA
ATOM      6  C   UNL     1       1.992  -1.373  -3.499  0.00  0.00    +0.080 A 
ATOM      7  C   UNL     1       2.651  -1.644  -4.771  0.00  0.00    +0.004 A 
ATOM      8  C   UNL     1       2.775  -0.636  -5.668  0.00  0.00    +0.056 A 
ATOM      9  S   UNL     1       2.008   0.746  -4.844  0.00  0.00    -0.076 S 
ATOM     10  C   UNL     1       1.542  -0.054  -3.331  0.00  0.00    +0.116 A 
ATOM     11  N   UNL     1       0.918   0.340  -2.224  0.00  0.00    -0.223 NA
ENDROOT
BRANCH   7  12
ATOM     12  C   UNL     1       3.174  -2.997  -5.078  0.00  0.00    -0.017 A 
ATOM     13  C   UNL     1       3.986  -3.659  -4.157  0.00  0.00    +0.008 A 
ATOM     14  C   UNL     1       4.470  -4.918  -4.448  0.00  0.00    +0.001 A 
ATOM     15  C   UNL     1       4.151  -5.523  -5.650  0.00  0.00    +0.000 A 
ATOM     16  C   UNL     1       3.347  -4.872  -6.568  0.00  0.00    +0.001 A 
ATOM     17  C   UNL     1       2.852  -3.615  -6.286  0.00  0.00    +0.008 A 
ENDBRANCH   7  12
BRANCH   1  19
ATOM     18  C   UNL     1      -0.019   1.526   0.010  0.00  0.00    +0.060 C 
ATOM     19  C   UNL     1       0.002  -0.004   0.002  0.00  0.00    +0.239 C 
BRANCH  19  20
ATOM     20  O   UNL     1      -1.339  -0.499   0.012  0.00  0.00    -0.453 OA
BRANCH  20  21
ATOM     21  C   UNL     1      -1.899  -0.716   1.212  0.00  0.00    +0.314 C 
ATOM     22  O   UNL     1      -1.272  -0.494   2.221  0.00  0.00    -0.250 OA
BRANCH  21  23
ATOM     23  C   UNL     1      -3.310  -1.237   1.302  0.00  0.00    +0.070 C 
ATOM     24  C   UNL     1      -3.397  -2.595   0.602  0.00  0.00    +0.021 C 
ATOM     25  C   UNL     1      -4.830  -3.124   0.693  0.00  0.00    -0.008 C 
ATOM     26  C   UNL     1      -5.223  -3.282   2.163  0.00  0.00    +0.007 C 
ATOM     27  C   UNL     1      -5.136  -1.925   2.863  0.00  0.00    -0.008 C 
ATOM     28  C   UNL     1      -3.703  -1.395   2.772  0.00  0.00    +0.021 C 
ATOM     29  C   UNL     1      -6.088  -0.938   2.184  0.00  0.00    +0.026 C 
ATOM     30  C   UNL     1      -5.695  -0.780   0.714  0.00  0.00    +0.047 C 
ATOM     31  C   UNL     1      -5.782  -2.138   0.014  0.00  0.00    +0.026 C 
ATOM     32  C   UNL     1      -4.262  -0.251   0.623  0.00  0.00    +0.041 C 
ATOM     33 CL   UNL     1      -6.817   0.382  -0.087  0.00  0.00    -0.118 Cl
ENDBRANCH  21  23
ENDBRANCH  20  21
ENDBRANCH  19  20
ENDBRANCH   1  19
TORSDOF 5
