REMARK  Name = ZINC33256344
REMARK  12 active torsions:
REMARK  status: ('A' for Active; 'I' for Inactive)
REMARK    1  A    between atoms: C_1  and  C_2
REMARK    2  A    between atoms: C_2  and  S_3
REMARK    3  A    between atoms: S_3  and  N_6
REMARK    4  A    between atoms: N_6  and  C_7
REMARK    5  A    between atoms: C_13  and  C_31
REMARK    6  A    between atoms: C_15  and  N_17
REMARK    7  A    between atoms: N_20  and  C_23
REMARK    8  A    between atoms: C_23  and  C_24
REMARK    9  A    between atoms: N_26  and  C_27
REMARK   10  A    between atoms: C_27  and  C_28
REMARK   11  A    between atoms: C_27  and  C_29
REMARK   12  A    between atoms: C_27  and  C_30
REMARK                            x       y       z     vdW  Elec       q    Type
REMARK                         _______ _______ _______ _____ _____    ______ ____
ROOT
ATOM      1  C   UNL     1       1.618  -2.864   2.523  0.00  0.00    +0.075 A 
ATOM      2  C   UNL     1       2.301  -2.365   3.639  0.00  0.00    +0.029 A 
ATOM      3  C   UNL     1       2.845  -3.204   4.559  0.00  0.00    +0.028 A 
ATOM      4  C   UNL     1       2.726  -4.597   4.397  0.00  0.00    +0.049 A 
ATOM      5  C   UNL     1       2.035  -5.105   3.269  0.00  0.00    +0.014 A 
ATOM      6  C   UNL     1       1.478  -4.224   2.338  0.00  0.00    +0.037 A 
ATOM      7  C   UNL     1       1.918  -6.556   3.113  0.00  0.00    +0.075 A 
ATOM      8  C   UNL     1       2.499  -7.351   4.093  0.00  0.00    +0.057 A 
ATOM      9  C   UNL     1       3.160  -6.744   5.168  0.00  0.00    +0.100 A 
ATOM     10  N   UNL     1       3.253  -5.439   5.290  0.00  0.00    -0.343 N 
ATOM     11  H   UNL     1       3.723  -5.074   6.056  0.00  0.00    +0.167 HD
ENDROOT
BRANCH   9  12
ATOM     12  N   UNL     1       3.736  -7.550   6.141  0.00  0.00    -0.314 N 
ATOM     13  C   UNL     1       4.314  -6.965   7.361  0.00  0.00    +0.122 C 
ATOM     14  C   UNL     1       3.729  -7.696   8.575  0.00  0.00    +0.104 C 
ATOM     15  N   UNL     1       3.939  -9.141   8.420  0.00  0.00    -0.291 NA
ATOM     16  C   UNL     1       3.223  -9.661   7.247  0.00  0.00    +0.104 C 
ATOM     17  C   UNL     1       3.781  -9.011   5.982  0.00  0.00    +0.122 C 
BRANCH  15  18
ATOM     18  C   UNL     1       3.548  -9.864   9.638  0.00  0.00    +0.180 C 
BRANCH  18  19
ATOM     19  C   UNL     1       4.001 -11.297   9.538  0.00  0.00    +0.227 C 
ATOM     20  O   UNL     1       4.591 -11.680   8.550  0.00  0.00    -0.274 OA
ATOM     21  N   UNL     1       3.750 -12.155  10.548  0.00  0.00    -0.310 N 
ATOM     22  H   UNL     1       3.278 -11.849  11.338  0.00  0.00    +0.149 HD
BRANCH  21  23
ATOM     23  C   UNL     1       4.190 -13.549  10.451  0.00  0.00    +0.026 C 
ATOM     24  C   UNL     1       5.712 -13.594  10.297  0.00  0.00    +0.031 C 
ATOM     25  C   UNL     1       3.783 -14.301  11.720  0.00  0.00    +0.031 C 
ATOM     26  C   UNL     1       3.535 -14.207   9.235  0.00  0.00    +0.031 C 
ENDBRANCH  21  23
ENDBRANCH  18  19
ENDBRANCH  15  18
ENDBRANCH   9  12
BRANCH   7  27
ATOM     27  C   UNL     1       1.211  -7.150   1.962  0.00  0.00    +0.387 C 
ATOM     28  O   UNL     1       1.218  -8.362   1.800  0.00  0.00    -0.241 OA
ATOM     29  O   UNL     1       0.619  -6.430   1.170  0.00  0.00    -0.241 OA
ENDBRANCH   7  27
BRANCH   1  30
ATOM     30  N   UNL     1       1.069  -1.979   1.594  0.00  0.00    -0.103 NA
BRANCH  30  31
ATOM     31  S   UNL     1       1.233  -0.345   1.810  0.00  0.00    +0.062 S 
ATOM     32  O   UNL     1       2.631  -0.106   1.724  0.00  0.00    -0.154 OA
ATOM     33  O   UNL     1       0.523  -0.065   3.009  0.00  0.00    -0.154 OA
BRANCH  31  35
ATOM     34  C   UNL     1       0.472   1.925   0.488  0.00  0.00    +0.030 C 
ATOM     35  C   UNL     1       0.383   0.401   0.392  0.00  0.00    +0.187 C 
ENDBRANCH  31  35
ENDBRANCH  30  31
ENDBRANCH   1  30
TORSDOF 8
