REMARK  Name = ZINC09572919
REMARK  13 active torsions:
REMARK  status: ('A' for Active; 'I' for Inactive)
REMARK    1  A    between atoms: C_1  and  N_2
REMARK    2  A    between atoms: N_2  and  C_3
REMARK    3  A    between atoms: N_2  and  C_4
REMARK    4  A    between atoms: C_7  and  C_10
REMARK    5  A    between atoms: C_10  and  C_12
REMARK    6  A    between atoms: C_10  and  N_29
REMARK    7  A    between atoms: C_12  and  N_13
REMARK    8  A    between atoms: C_14  and  C_16
REMARK    9  A    between atoms: C_18  and  O_27
REMARK   10  A    between atoms: C_19  and  O_25
REMARK   11  A    between atoms: C_21  and  N_22
REMARK   12  A    between atoms: O_25  and  C_26
REMARK   13  A    between atoms: O_27  and  C_28
REMARK                            x       y       z     vdW  Elec       q    Type
REMARK                         _______ _______ _______ _____ _____    ______ ____
ROOT
ATOM      1  C   UNL     1      -2.163   1.846   1.255  0.00  0.00    +0.121 C 
ENDROOT
BRANCH   1   2
ATOM      2  N   UNL     1      -1.353   2.761   0.440  0.00  0.00    -0.321 N 
ATOM      3  C   UNL     1       0.045   2.287   0.340  0.00  0.00    +0.110 C 
ATOM      4  C   UNL     1       0.478   2.800  -1.052  0.00  0.00    +0.056 C 
ATOM      5  C   UNL     1      -0.839   2.908  -1.796  0.00  0.00    -0.025 A 
ATOM      6  C   UNL     1      -1.865   2.864  -0.859  0.00  0.00    +0.033 A 
ATOM      7  C   UNL     1      -3.186   2.931  -1.298  0.00  0.00    +0.023 A 
ATOM      8  C   UNL     1      -3.465   3.045  -2.644  0.00  0.00    +0.002 A 
ATOM      9  C   UNL     1      -2.437   3.094  -3.567  0.00  0.00    +0.000 A 
ATOM     10  C   UNL     1      -1.123   3.025  -3.140  0.00  0.00    +0.005 A 
ENDBRANCH   1   2
BRANCH   1  14
ATOM     11  C   UNL     1      -6.004   3.583   1.955  0.00  0.00    +0.029 A 
ATOM     12  C   UNL     1      -5.891   2.222   1.704  0.00  0.00    +0.023 A 
ATOM     13  C   UNL     1      -4.649   1.664   1.478  0.00  0.00    +0.007 A 
ATOM     14  C   UNL     1      -3.517   2.459   1.501  0.00  0.00    -0.025 A 
ATOM     15  C   UNL     1      -3.626   3.813   1.756  0.00  0.00    +0.007 A 
ATOM     16  C   UNL     1      -4.866   4.379   1.977  0.00  0.00    +0.023 A 
BRANCH  11  18
ATOM     17  C   UNL     1      -8.459   3.311   2.160  0.00  0.00    +0.129 C 
ATOM     18  N   UNL     1      -7.260   4.151   2.184  0.00  0.00    -0.336 N 
ATOM     19  C   UNL     1      -7.377   5.587   2.448  0.00  0.00    +0.129 C 
ENDBRANCH  11  18
ENDBRANCH   1  14
BRANCH   1  20
ATOM     20  C   UNL     1      -1.463   1.599   2.593  0.00  0.00    +0.131 C 
BRANCH  20  21
ATOM     21  N   UNL     1      -0.199   0.896   2.361  0.00  0.00    -0.309 N 
ATOM     22  C   UNL     1      -0.189  -0.445   2.224  0.00  0.00    +0.246 C 
ATOM     23  O   UNL     1      -1.236  -1.062   2.211  0.00  0.00    -0.270 OA
ATOM     24  H   UNL     1       0.631   1.396   2.305  0.00  0.00    +0.149 HD
BRANCH  22  25
ATOM     25  C   UNL     1       1.094  -1.163   2.091  0.00  0.00    +0.070 A 
ATOM     26  C   UNL     1       2.078  -1.028   3.075  0.00  0.00    +0.064 A 
ATOM     27  C   UNL     1       3.273  -1.707   2.949  0.00  0.00    +0.162 A 
ATOM     28  C   UNL     1       3.501  -2.517   1.837  0.00  0.00    +0.164 A 
ATOM     29  C   UNL     1       2.527  -2.646   0.858  0.00  0.00    +0.082 A 
ATOM     30  C   UNL     1       1.329  -1.976   0.980  0.00  0.00    +0.142 A 
BRANCH  30  31
ATOM     31  N   UNL     1       0.291  -2.117  -0.066  0.00  0.00    +0.057 N 
ATOM     32  O   UNL     1       0.444  -2.918  -0.971  0.00  0.00    -0.126 OA
ATOM     33  O   UNL     1      -0.715  -1.431  -0.023  0.00  0.00    -0.126 OA
ENDBRANCH  30  31
BRANCH  28  34
ATOM     34  O   UNL     1       4.680  -3.180   1.712  0.00  0.00    -0.491 OA
ATOM     35  C   UNL     1       4.847  -3.992   0.548  0.00  0.00    +0.277 C 
ENDBRANCH  28  34
BRANCH  27  36
ATOM     36  O   UNL     1       4.230  -1.583   3.908  0.00  0.00    -0.491 OA
ATOM     37  C   UNL     1       3.891  -0.822   5.069  0.00  0.00    +0.277 C 
ENDBRANCH  27  36
ENDBRANCH  22  25
ENDBRANCH  20  21
ENDBRANCH   1  20
TORSDOF 9
