REMARK  Name = ZINC15725823
REMARK  10 active torsions:
REMARK  status: ('A' for Active; 'I' for Inactive)
REMARK    1  A    between atoms: C_1  and  C_2
REMARK    2  A    between atoms: C_5  and  C_30
REMARK    3  A    between atoms: C_6  and  C_8
REMARK    4  A    between atoms: C_8  and  N_9
REMARK    5  A    between atoms: N_13  and  C_17
REMARK    6  A    between atoms: C_17  and  C_18
REMARK    7  A    between atoms: N_20  and  C_21
REMARK    8  A    between atoms: C_22  and  C_29
REMARK    9  A    between atoms: C_24  and  C_28
REMARK   10  A    between atoms: C_26  and  C_27
REMARK                            x       y       z     vdW  Elec       q    Type
REMARK                         _______ _______ _______ _____ _____    ______ ____
ROOT
ATOM      1  N   UNL     1       3.140   3.484  -3.488  0.00  0.00    -0.162 NA
ATOM      2  C   UNL     1       4.142   4.498  -3.860  0.00  0.00    +0.112 C 
ATOM      3  C   UNL     1       4.387   4.444  -5.363  0.00  0.00    +0.034 C 
ATOM      4  C   UNL     1       5.003   3.104  -5.764  0.00  0.00    +0.112 C 
ATOM      5  N   UNL     1       4.040   2.024  -5.489  0.00  0.00    -0.158 NA
ATOM      6  S   UNL     1       3.453   1.907  -3.933  0.00  0.00    +0.100 S 
ATOM      7  O   UNL     1       4.523   1.449  -3.117  0.00  0.00    -0.141 OA
ATOM      8  O   UNL     1       2.201   1.240  -4.009  0.00  0.00    -0.141 OA
ENDROOT
BRANCH   1   9
ATOM      9  C   UNL     1       1.919   3.846  -2.764  0.00  0.00    +0.145 C 
BRANCH   9  15
ATOM     10  C   UNL     1       1.707   1.654   1.730  0.00  0.00    +0.044 C 
ATOM     11  C   UNL     1       2.100   2.824   0.866  0.00  0.00    -0.050 A 
ATOM     12  C   UNL     1       2.715   3.926   1.432  0.00  0.00    +0.003 A 
ATOM     13  C   UNL     1       3.075   5.000   0.640  0.00  0.00    +0.004 A 
ATOM     14  C   UNL     1       2.821   4.972  -0.719  0.00  0.00    -0.046 A 
ATOM     15  C   UNL     1       2.202   3.873  -1.284  0.00  0.00    -0.028 A 
ATOM     16  C   UNL     1       1.846   2.797  -0.492  0.00  0.00    +0.008 A 
ATOM     17  C   UNL     1       3.213   6.143  -1.583  0.00  0.00    +0.044 C 
ENDBRANCH   9  15
ENDBRANCH   1   9
BRANCH   5  18
ATOM     18  C   UNL     1       3.617   1.092  -6.537  0.00  0.00    +0.206 C 
BRANCH  18  19
ATOM     19  C   UNL     1       2.477   1.696  -7.316  0.00  0.00    +0.233 C 
ATOM     20  O   UNL     1       2.059   2.797  -7.024  0.00  0.00    -0.274 OA
ATOM     21  N   UNL     1       1.922   1.014  -8.337  0.00  0.00    -0.284 N 
ATOM     22  H   UNL     1       2.290   0.157  -8.604  0.00  0.00    +0.155 HD
BRANCH  21  23
ATOM     23  C   UNL     1       0.815   1.541  -9.011  0.00  0.00    +0.039 A 
ATOM     24  C   UNL     1      -0.303   1.951  -8.298  0.00  0.00    -0.029 A 
ATOM     25  C   UNL     1      -1.393   2.475  -8.966  0.00  0.00    +0.008 A 
ATOM     26  C   UNL     1      -1.374   2.582 -10.345  0.00  0.00    -0.050 A 
ATOM     27  C   UNL     1      -0.264   2.170 -11.058  0.00  0.00    +0.008 A 
ATOM     28  C   UNL     1       0.831   1.650 -10.396  0.00  0.00    -0.029 A 
ATOM     29  C   UNL     1       2.040   1.200 -11.174  0.00  0.00    +0.045 C 
ATOM     30  C   UNL     1      -2.566   3.150 -11.071  0.00  0.00    +0.044 C 
ATOM     31  C   UNL     1      -0.327   1.830  -6.796  0.00  0.00    +0.045 C 
ENDBRANCH  21  23
ENDBRANCH  18  19
ENDBRANCH   5  18
TORSDOF 5
