REMARK  Name = ZINC04114264
REMARK  11 active torsions:
REMARK  status: ('A' for Active; 'I' for Inactive)
REMARK    1  A    between atoms: C_1  and  C_2
REMARK    2  A    between atoms: C_2  and  C_4
REMARK    3  A    between atoms: C_2  and  C_10
REMARK    4  A    between atoms: C_4  and  C_5
REMARK    5  A    between atoms: C_5  and  C_6
REMARK    6  A    between atoms: C_6  and  C_7
REMARK    7  A    between atoms: C_7  and  C_8
REMARK    8  A    between atoms: C_7  and  C_9
REMARK    9  A    between atoms: C_16  and  C_35
REMARK   10  A    between atoms: N_29  and  O_30
REMARK   11  A    between atoms: C_33  and  C_34
REMARK                            x       y       z     vdW  Elec       q    Type
REMARK                         _______ _______ _______ _____ _____    ______ ____
ROOT
ATOM      1  C   UNL     1       0.864  -0.553   1.173  0.00  0.00    -0.002 C 
ATOM      2  C   UNL     1       1.147  -2.073   1.063  0.00  0.00    +0.004 C 
ATOM      3  C   UNL     1       2.686  -2.244   1.224  0.00  0.00    +0.004 C 
ATOM      4  C   UNL     1       3.083  -0.925   1.909  0.00  0.00    -0.001 C 
ATOM      5  C   UNL     1       2.265   0.096   1.091  0.00  0.00    -0.026 C 
ATOM      6  C   UNL     1       2.359   1.461   1.719  0.00  0.00    +0.007 C 
ATOM      7  C   UNL     1       3.797   1.803   2.119  0.00  0.00    +0.005 C 
ATOM      8  C   UNL     1       4.826   0.840   1.556  0.00  0.00    +0.003 C 
ATOM      9  C   UNL     1       4.548  -0.607   1.960  0.00  0.00    +0.004 C 
ATOM     10  C   UNL     1       5.364  -1.524   1.041  0.00  0.00    +0.083 C 
ATOM     11  C   UNL     1       6.806  -1.103   1.089  0.00  0.00    +0.160 C 
ATOM     12  O   UNL     1       7.658  -1.906   0.764  0.00  0.00    -0.292 OA
ATOM     13  C   UNL     1       7.215   0.181   1.495  0.00  0.00    +0.003 C 
ATOM     14  C   UNL     1       8.543   0.482   1.462  0.00  0.00    +0.034 C 
ATOM     15  C   UNL     1       8.964   1.849   1.798  0.00  0.00    +0.080 C 
ATOM     16  N   UNL     1      10.161   2.076   2.264  0.00  0.00    -0.092 NA
ATOM     17  C   UNL     1       8.030   3.001   1.555  0.00  0.00    +0.059 C 
ATOM     18  C   UNL     1       6.582   2.588   1.393  0.00  0.00    +0.018 C 
ATOM     19  C   UNL     1       6.249   1.226   1.986  0.00  0.00    -0.000 C 
ATOM     20  C   UNL     1       6.340   1.312   3.508  0.00  0.00    +0.016 C 
ATOM     21  C   UNL     1       2.650   0.132  -0.387  0.00  0.00    +0.012 C 
ENDROOT
BRANCH   1  23
ATOM     22  C   UNL     1      -0.240   1.423   0.123  0.00  0.00    +0.008 C 
ATOM     23  C   UNL     1       0.007  -0.082   0.002  0.00  0.00    -0.010 C 
BRANCH  23  24
ATOM     24  C   UNL     1      -1.332  -0.823   0.019  0.00  0.00    +0.003 C 
BRANCH  24  25
ATOM     25  C   UNL     1      -2.140  -0.444  -1.223  0.00  0.00    +0.001 C 
BRANCH  25  26
ATOM     26  C   UNL     1      -3.479  -1.184  -1.206  0.00  0.00    +0.003 C 
BRANCH  26  27
ATOM     27  C   UNL     1      -4.288  -0.805  -2.448  0.00  0.00    -0.017 C 
ATOM     28  C   UNL     1      -5.571  -1.638  -2.495  0.00  0.00    +0.007 C 
ATOM     29  C   UNL     1      -4.646   0.681  -2.390  0.00  0.00    +0.007 C 
ENDBRANCH  26  27
ENDBRANCH  25  26
ENDBRANCH  24  25
ENDBRANCH  23  24
ENDBRANCH   1  23
BRANCH  16  30
ATOM     30  O   UNL     1      11.065   1.002   2.449  0.00  0.00    -0.409 OA
ATOM     31  H   UNL     1      11.926   1.268   2.797  0.00  0.00    +0.328 HD
ENDBRANCH  16  30
TORSDOF 6
