REMARK  Name = ZINC03374190
REMARK  10 active torsions:
REMARK  status: ('A' for Active; 'I' for Inactive)
REMARK    1  A    between atoms: C_1  and  C_2
REMARK    2  A    between atoms: C_2  and  N_3
REMARK    3  A    between atoms: C_7  and  C_29
REMARK    4  A    between atoms: C_8  and  C_28
REMARK    5  A    between atoms: C_12  and  S_13
REMARK    6  A    between atoms: S_13  and  C_14
REMARK    7  A    between atoms: C_14  and  C_16
REMARK    8  A    between atoms: C_14  and  C_17
REMARK    9  A    between atoms: N_19  and  C_20
REMARK   10  A    between atoms: C_25  and  C_26
REMARK                            x       y       z     vdW  Elec       q    Type
REMARK                         _______ _______ _______ _____ _____    ______ ____
ROOT
ATOM      1  S   UNL     1      -2.104  -0.751   1.037  0.00  0.00    -0.075 S 
ENDROOT
BRANCH   1  11
ATOM      2  N   UNL     1      -0.679   1.544   1.249  0.00  0.00    -0.288 N 
ATOM      3  C   UNL     1      -0.316   2.716   1.802  0.00  0.00    +0.263 A 
ATOM      4  O   UNL     1       0.575   3.383   1.305  0.00  0.00    -0.267 OA
ATOM      5  C   UNL     1      -0.993   3.170   2.977  0.00  0.00    +0.075 A 
ATOM      6  C   UNL     1      -0.788   4.387   3.744  0.00  0.00    -0.026 A 
ATOM      7  C   UNL     1      -1.542   4.612   4.829  0.00  0.00    -0.008 A 
ATOM      8  S   UNL     1      -2.602   3.181   4.902  0.00  0.00    -0.073 S 
ATOM      9  C   UNL     1      -2.001   2.321   3.471  0.00  0.00    +0.117 A 
ATOM     10  N   UNL     1      -2.306   1.172   2.879  0.00  0.00    -0.216 NA
ATOM     11  C   UNL     1      -1.670   0.780   1.794  0.00  0.00    +0.173 A 
ATOM     12  C   UNL     1      -1.504   5.794   5.764  0.00  0.00    +0.052 C 
ATOM     13  C   UNL     1       0.260   5.385   3.324  0.00  0.00    +0.045 C 
BRANCH   2  15
ATOM     14  C   UNL     1      -0.729   1.593  -1.196  0.00  0.00    +0.027 C 
ATOM     15  C   UNL     1       0.007   1.076   0.042  0.00  0.00    +0.124 C 
ENDBRANCH   2  15
ENDBRANCH   1  11
BRANCH   1  16
ATOM     16  C   UNL     1      -3.420  -1.292   2.155  0.00  0.00    +0.137 C 
ATOM     17  C   UNL     1      -2.833  -1.556   3.544  0.00  0.00    +0.029 C 
BRANCH  16  18
ATOM     18  C   UNL     1      -4.042  -2.558   1.624  0.00  0.00    +0.230 C 
ATOM     19  O   UNL     1      -3.403  -3.288   0.897  0.00  0.00    -0.274 OA
ATOM     20  N   UNL     1      -5.308  -2.878   1.957  0.00  0.00    -0.284 N 
ATOM     21  H   UNL     1      -5.797  -2.329   2.589  0.00  0.00    +0.155 HD
BRANCH  20  22
ATOM     22  C   UNL     1      -5.915  -3.998   1.391  0.00  0.00    +0.051 A 
ATOM     23  C   UNL     1      -5.165  -5.131   1.111  0.00  0.00    +0.024 A 
ATOM     24  C   UNL     1      -5.769  -6.242   0.556  0.00  0.00    +0.002 A 
ATOM     25  C   UNL     1      -7.123  -6.231   0.266  0.00  0.00    +0.001 A 
ATOM     26  C   UNL     1      -7.884  -5.113   0.532  0.00  0.00    +0.021 A 
ATOM     27  C   UNL     1      -7.287  -3.984   1.098  0.00  0.00    +0.073 A 
BRANCH  27  28
ATOM     28  C   UNL     1      -8.071  -2.818   1.377  0.00  0.00    +0.101 C 
ATOM     29  N   UNL     1      -8.693  -1.894   1.598  0.00  0.00    -0.191 NA
ENDBRANCH  27  28
ENDBRANCH  20  22
ENDBRANCH  16  18
ENDBRANCH   1  16
TORSDOF 6
