REMARK  Name = ZINC15692122
REMARK  10 active torsions:
REMARK  status: ('A' for Active; 'I' for Inactive)
REMARK    1  A    between atoms: C_1  and  C_2
REMARK    2  A    between atoms: C_7  and  C_9
REMARK    3  A    between atoms: C_7  and  C_26
REMARK    4  A    between atoms: C_7  and  N_55
REMARK    5  A    between atoms: C_9  and  N_10
REMARK    6  A    between atoms: C_11  and  C_13
REMARK    7  A    between atoms: C_15  and  C_22
REMARK    8  A    between atoms: C_17  and  N_19
REMARK    9  A    between atoms: C_22  and  O_24
REMARK   10  A    between atoms: O_24  and  C_25
REMARK                            x       y       z     vdW  Elec       q    Type
REMARK                         _______ _______ _______ _____ _____    ______ ____
ROOT
ATOM      1  N   UNL     1       0.857   3.787   1.233  0.00  0.00    -0.313 N 
ATOM      2  C   UNL     1       1.285   5.051   1.423  0.00  0.00    +0.244 C 
ATOM      3  O   UNL     1       0.482   5.940   1.629  0.00  0.00    -0.270 OA
ATOM      4  H   UNL     1       1.497   3.078   1.069  0.00  0.00    +0.149 HD
ENDROOT
BRANCH   2   5
ATOM      5  C   UNL     1       2.731   5.356   1.380  0.00  0.00    +0.040 A 
ATOM      6  C   UNL     1       3.175   6.662   1.577  0.00  0.00    +0.028 A 
ATOM      7  C   UNL     1       4.540   6.940   1.535  0.00  0.00    +0.062 A 
ATOM      8  C   UNL     1       5.453   5.909   1.297  0.00  0.00    +0.047 A 
ATOM      9  C   UNL     1       5.006   4.618   1.104  0.00  0.00    +0.128 A 
ATOM     10  C   UNL     1       3.655   4.334   1.149  0.00  0.00    +0.045 A 
BRANCH   9  11
ATOM     11  N   UNL     1       5.979   3.531   0.853  0.00  0.00    +0.056 N 
ATOM     12  O   UNL     1       7.171   3.777   0.817  0.00  0.00    -0.126 OA
ATOM     13  O   UNL     1       5.587   2.390   0.682  0.00  0.00    -0.126 OA
ENDBRANCH   9  11
BRANCH   7  14
ATOM     14  C   UNL     1       5.021   8.322   1.742  0.00  0.00    +0.339 C 
ATOM     15  O   UNL     1       4.226   9.216   1.949  0.00  0.00    -0.245 OA
BRANCH  14  16
ATOM     16  O   UNL     1       6.340   8.589   1.701  0.00  0.00    -0.464 OA
ATOM     17  C   UNL     1       6.740   9.969   1.914  0.00  0.00    +0.280 C 
ENDBRANCH  14  16
ENDBRANCH   7  14
ENDBRANCH   2   5
BRANCH   1  18
ATOM     18  C   UNL     1      -0.576   3.485   1.275  0.00  0.00    +0.094 C 
BRANCH  18  19
ATOM     19  C   UNL     1      -0.800   2.018   0.903  0.00  0.00    -0.013 C 
BRANCH  19  26
ATOM     20  C   UNL     1       0.611   0.892  -4.521  0.00  0.00    +0.007 C 
ATOM     21  C   UNL     1      -0.183   1.146  -3.237  0.00  0.00    -0.018 C 
ATOM     22  C   UNL     1       0.138   2.545  -2.706  0.00  0.00    -0.015 C 
ATOM     23  C   UNL     1      -0.611   2.771  -1.391  0.00  0.00    -0.078 C 
ATOM     24  C   UNL     1      -0.547   0.402  -0.882  0.00  0.00    -0.078 C 
ATOM     25  C   UNL     1       0.204   0.106  -2.182  0.00  0.00    -0.015 C 
ATOM     26  N   UNL     1      -0.176   1.753  -0.410  0.00  0.00    +0.386 N 
ATOM     27  H   UNL     1       0.845   1.802  -0.310  0.00  0.00    -0.081 HD
ENDBRANCH  19  26
BRANCH  19  28
ATOM     28  C   UNL     1      -2.278   1.732   0.854  0.00  0.00    -0.022 A 
ATOM     29  C   UNL     1      -3.063   1.133   1.783  0.00  0.00    +0.009 A 
ATOM     30  C   UNL     1      -4.411   0.978   1.522  0.00  0.00    +0.008 A 
ATOM     31  C   UNL     1      -4.907   1.418   0.340  0.00  0.00    +0.045 A 
ATOM     32  S   UNL     1      -3.450   2.086  -0.446  0.00  0.00    -0.103 S 
ENDBRANCH  19  28
ENDBRANCH  18  19
ENDBRANCH   1  18
TORSDOF 8
