REMARK  Name = ZINC13491482
REMARK  5 active torsions:
REMARK  status: ('A' for Active; 'I' for Inactive)
REMARK    1  A    between atoms: C_6  and  C_7
REMARK    2  A    between atoms: C_7  and  N_8
REMARK    3  A    between atoms: C_14  and  N_19
REMARK    4  A    between atoms: C_15  and  C_16
REMARK    5  A    between atoms: C_20  and  C_22
REMARK                            x       y       z     vdW  Elec       q    Type
REMARK                         _______ _______ _______ _____ _____    ______ ____
ROOT
ATOM      1  N   UNL     1       1.354   2.051   0.000  0.00  0.00    -0.293 NA
ATOM      2  C   UNL     1      -0.019   1.527   0.010  0.00  0.00    +0.090 C 
ATOM      3  C   UNL     1       0.002  -0.004   0.002  0.00  0.00    +0.052 C 
ATOM      4  C   UNL     1       0.921  -0.473   1.124  0.00  0.00    -0.019 A 
ATOM      5  C   UNL     1       1.808   0.386   1.678  0.00  0.00    +0.010 A 
ATOM      6  S   UNL     1       2.644  -0.564   2.914  0.00  0.00    -0.076 S 
ATOM      7  C   UNL     1       1.831  -2.079   2.701  0.00  0.00    +0.087 A 
ATOM      8  C   UNL     1       0.929  -1.814   1.676  0.00  0.00    +0.095 A 
ATOM      9  C   UNL     1       2.012   1.819   1.300  0.00  0.00    +0.127 C 
ENDROOT
BRANCH   7  10
ATOM     10  N   UNL     1       2.030  -3.266   3.384  0.00  0.00    -0.270 N 
ATOM     11  C   UNL     1       2.960  -3.335   4.357  0.00  0.00    +0.330 C 
ATOM     12  O   UNL     1       3.623  -2.356   4.633  0.00  0.00    -0.263 OA
ATOM     13  H   UNL     1       1.430  -4.153   3.133  0.00  0.00    +0.156 HD
BRANCH  11  14
ATOM     14  C   UNL     1       3.176  -4.615   5.094  0.00  0.00    +0.441 C 
ATOM     15  O   UNL     1       2.514  -5.593   4.817  0.00  0.00    -0.235 OA
ATOM     16  O   UNL     1       4.104  -4.684   6.065  0.00  0.00    -0.235 OA
ENDBRANCH  11  14
ENDBRANCH   7  10
BRANCH   8  17
ATOM     17  C   UNL     1       0.022  -2.849   1.173  0.00  0.00    +0.389 C 
ATOM     18  O   UNL     1       0.368  -3.566   0.254  0.00  0.00    -0.240 OA
ATOM     19  O   UNL     1      -1.196  -3.006   1.729  0.00  0.00    -0.240 OA
ENDBRANCH   8  17
BRANCH   1  20
ATOM     20  C   UNL     1       1.371   3.477  -0.351  0.00  0.00    +0.120 C 
BRANCH  20  26
ATOM     21  C   UNL     1       3.093   4.585   1.112  0.00  0.00    +0.024 A 
ATOM     22  C   UNL     1       4.369   5.084   1.293  0.00  0.00    +0.111 A 
ATOM     23  N   UNL     1       5.251   5.053   0.313  0.00  0.00    -0.263 NA
ATOM     24  C   UNL     1       4.958   4.544  -0.867  0.00  0.00    +0.111 A 
ATOM     25  C   UNL     1       3.704   4.021  -1.121  0.00  0.00    +0.024 A 
ATOM     26  C   UNL     1       2.750   4.037  -0.115  0.00  0.00    -0.030 A 
ENDBRANCH  20  26
ENDBRANCH   1  20
TORSDOF 5
