REMARK  Name = ZINC09598292
REMARK  10 active torsions:
REMARK  status: ('A' for Active; 'I' for Inactive)
REMARK    1  A    between atoms: C_1  and  C_2
REMARK    2  A    between atoms: C_5  and  N_8
REMARK    3  A    between atoms: C_9  and  C_11
REMARK    4  A    between atoms: C_12  and  C_39
REMARK    5  A    between atoms: C_16  and  C_18
REMARK    6  A    between atoms: C_26  and  C_29
REMARK    7  A    between atoms: C_32  and  O_37
REMARK    8  A    between atoms: C_33  and  O_35
REMARK    9  A    between atoms: O_35  and  C_36
REMARK   10  A    between atoms: O_37  and  C_38
REMARK                            x       y       z     vdW  Elec       q    Type
REMARK                         _______ _______ _______ _____ _____    ______ ____
ROOT
ATOM      1  C   UNL     1      -1.123  -2.107   0.214  0.00  0.00    +0.044 C 
ATOM      2  C   UNL     1      -2.280  -2.789   0.216  0.00  0.00    +0.014 C 
ATOM      3  N   UNL     1      -2.280  -4.154   0.315  0.00  0.00    -0.321 N 
ATOM      4  C   UNL     1      -1.187  -4.817   0.804  0.00  0.00    +0.016 C 
ATOM      5  C   UNL     1       0.024  -4.219   0.825  0.00  0.00    +0.024 C 
ATOM      6  C   UNL     1       0.198  -2.813   0.303  0.00  0.00    +0.097 C 
ATOM      7  C   UNL     1       1.155  -4.890   1.321  0.00  0.00    +0.162 C 
ATOM      8  O   UNL     1       2.227  -4.318   1.340  0.00  0.00    -0.292 OA
ATOM      9  C   UNL     1       1.063  -6.303   1.828  0.00  0.00    +0.088 C 
ATOM     10  C   UNL     1      -0.081  -7.020   1.103  0.00  0.00    +0.032 C 
ATOM     11  C   UNL     1      -1.369  -6.223   1.320  0.00  0.00    +0.059 C 
ATOM     12  C   UNL     1      -3.587  -2.047   0.109  0.00  0.00    +0.061 C 
ATOM     13  H   UNL     1      -3.163  -4.728  -0.001  0.00  0.00    +0.152 HD
ENDROOT
BRANCH  10  14
ATOM     14  C   UNL     1      -0.241  -8.411   1.660  0.00  0.00    -0.040 A 
ATOM     15  C   UNL     1      -0.535  -8.587   3.000  0.00  0.00    +0.008 A 
ATOM     16  C   UNL     1      -0.684  -9.861   3.516  0.00  0.00    +0.049 A 
ATOM     17  C   UNL     1      -0.538 -10.964   2.691  0.00  0.00    +0.161 A 
ATOM     18  C   UNL     1      -0.243 -10.787   1.342  0.00  0.00    +0.162 A 
ATOM     19  C   UNL     1      -0.100  -9.507   0.830  0.00  0.00    +0.053 A 
BRANCH  18  20
ATOM     20  O   UNL     1      -0.099 -11.867   0.528  0.00  0.00    -0.491 OA
ATOM     21  C   UNL     1       0.204 -11.609  -0.844  0.00  0.00    +0.277 C 
ENDBRANCH  18  20
BRANCH  17  22
ATOM     22  O   UNL     1      -0.684 -12.218   3.197  0.00  0.00    -0.491 OA
ATOM     23  C   UNL     1      -0.988 -12.324   4.589  0.00  0.00    +0.277 C 
ENDBRANCH  17  22
ENDBRANCH  10  14
BRANCH   6  24
ATOM     24  C   UNL     1       0.827  -2.861  -1.065  0.00  0.00    +0.002 A 
ATOM     25  C   UNL     1       2.012  -2.348  -1.478  0.00  0.00    +0.012 A 
ATOM     26  C   UNL     1       2.391  -2.515  -2.797  0.00  0.00    +0.008 A 
ATOM     27  C   UNL     1       1.567  -3.187  -3.638  0.00  0.00    +0.045 A 
ATOM     28  S   UNL     1       0.209  -3.614  -2.561  0.00  0.00    -0.101 S 
ENDBRANCH   6  24
BRANCH   1  30
ATOM     29  N   UNL     1       0.001  -0.003   0.007  0.00  0.00    -0.282 N 
ATOM     30  C   UNL     1      -1.151  -0.694   0.119  0.00  0.00    +0.247 C 
ATOM     31  O   UNL     1      -2.215  -0.103   0.138  0.00  0.00    -0.270 OA
ATOM     32  H   UNL     1       0.957  -0.540  -0.084  0.00  0.00    +0.155 HD
BRANCH  29  37
ATOM     33  C   UNL     1      -0.080   5.668   0.012  0.00  0.00    +0.044 C 
ATOM     34  C   UNL     1      -0.058   4.162   0.010  0.00  0.00    -0.050 A 
ATOM     35  C   UNL     1       0.994   3.486   0.602  0.00  0.00    +0.005 A 
ATOM     36  C   UNL     1       1.017   2.105   0.602  0.00  0.00    +0.023 A 
ATOM     37  C   UNL     1      -0.018   1.395   0.008  0.00  0.00    +0.034 A 
ATOM     38  C   UNL     1      -1.070   2.076  -0.590  0.00  0.00    +0.023 A 
ATOM     39  C   UNL     1      -1.090   3.457  -0.582  0.00  0.00    +0.005 A 
ENDBRANCH  29  37
ENDBRANCH   1  30
TORSDOF 6
