REMARK  Name = ZINC39443452
REMARK  7 active torsions:
REMARK  status: ('A' for Active; 'I' for Inactive)
REMARK    1  A    between atoms: C_1  and  C_2
REMARK    2  A    between atoms: C_2  and  C_4
REMARK    3  A    between atoms: C_2  and  O_17
REMARK    4  A    between atoms: N_6  and  C_7
REMARK    5  A    between atoms: C_7  and  C_8
REMARK    6  A    between atoms: O_17  and  C_18
REMARK    7  A    between atoms: C_18  and  C_20
REMARK                            x       y       z     vdW  Elec       q    Type
REMARK                         _______ _______ _______ _____ _____    ______ ____
ROOT
ATOM      1  O   UNL     1       0.671  -0.465  -1.174  0.00  0.00    -0.449 OA
ENDROOT
BRANCH   1   3
ATOM      2  C   UNL     1      -0.019   1.526   0.010  0.00  0.00    +0.062 C 
ATOM      3  C   UNL     1       0.002  -0.004   0.002  0.00  0.00    +0.259 C 
BRANCH   3   4
ATOM      4  C   UNL     1       0.731  -0.503   1.223  0.00  0.00    +0.254 C 
ATOM      5  O   UNL     1       1.774  -1.109   1.101  0.00  0.00    -0.272 OA
ATOM      6  N   UNL     1       0.223  -0.277   2.451  0.00  0.00    -0.308 N 
ATOM      7  H   UNL     1      -0.611   0.208   2.548  0.00  0.00    +0.149 HD
BRANCH   6   8
ATOM      8  C   UNL     1       0.932  -0.762   3.638  0.00  0.00    +0.139 C 
BRANCH   8   9
ATOM      9  C   UNL     1       0.160  -0.380   4.874  0.00  0.00    -0.027 A 
ATOM     10  C   UNL     1       0.409   0.829   5.497  0.00  0.00    +0.009 A 
ATOM     11  C   UNL     1      -0.297   1.183   6.632  0.00  0.00    +0.050 A 
ATOM     12  C   UNL     1      -1.256   0.327   7.148  0.00  0.00    +0.166 A 
ATOM     13  C   UNL     1      -1.507  -0.891   6.520  0.00  0.00    +0.167 A 
ATOM     14  C   UNL     1      -0.799  -1.237   5.380  0.00  0.00    +0.054 A 
ATOM     15  O   UNL     1      -2.483  -1.546   7.213  0.00  0.00    -0.453 OA
ATOM     16  C   UNL     1      -2.540  -0.902   8.500  0.00  0.00    +0.466 C 
ATOM     17  O   UNL     1      -2.076   0.435   8.234  0.00  0.00    -0.453 OA
ENDBRANCH   8   9
ENDBRANCH   6   8
ENDBRANCH   3   4
ENDBRANCH   1   3
BRANCH   1  18
ATOM     18  C   UNL     1      -0.088  -0.673  -2.268  0.00  0.00    +0.340 C 
ATOM     19  O   UNL     1      -1.286  -0.469  -2.224  0.00  0.00    -0.245 OA
BRANCH  18  20
ATOM     20  C   UNL     1       0.533  -1.148  -3.516  0.00  0.00    +0.060 A 
ATOM     21  C   UNL     1       1.971  -1.395  -3.551  0.00  0.00    +0.017 A 
ATOM     22  C   UNL     1       2.578  -1.825  -4.676  0.00  0.00    +0.027 A 
ATOM     23  C   UNL     1       1.787  -2.054  -5.889  0.00  0.00    +0.043 A 
ATOM     24  N   UNL     1       2.140  -2.484  -7.080  0.00  0.00    -0.378 N 
ATOM     25  C   UNL     1       0.969  -2.452  -7.951  0.00  0.00    +0.106 C 
ATOM     26  C   UNL     1       0.669  -3.819  -8.571  0.00  0.00    +0.029 C 
ATOM     27  C   UNL     1      -0.716  -3.763  -9.225  0.00  0.00    +0.003 C 
ATOM     28  C   UNL     1      -1.811  -3.558  -8.180  0.00  0.00    +0.004 C 
ATOM     29  C   UNL     1      -1.636  -2.192  -7.496  0.00  0.00    +0.033 C 
ATOM     30  C   UNL     1      -0.197  -2.094  -7.046  0.00  0.00    -0.038 C 
ATOM     31  C   UNL     1       0.325  -1.809  -5.840  0.00  0.00    -0.000 A 
ATOM     32  C   UNL     1      -0.254  -1.357  -4.625  0.00  0.00    +0.025 A 
ATOM     33  H   UNL     1       3.029  -2.773  -7.337  0.00  0.00    +0.160 HD
ENDBRANCH  18  20
ENDBRANCH   1  18
TORSDOF 6
