REMARK  Name = ZINC12509966
REMARK  13 active torsions:
REMARK  status: ('A' for Active; 'I' for Inactive)
REMARK    1  A    between atoms: C_1  and  C_2
REMARK    2  A    between atoms: C_2  and  O_3
REMARK    3  A    between atoms: O_3  and  C_4
REMARK    4  A    between atoms: N_9  and  C_12
REMARK    5  A    between atoms: C_13  and  C_25
REMARK    6  A    between atoms: C_17  and  O_23
REMARK    7  A    between atoms: C_18  and  O_21
REMARK    8  A    between atoms: O_21  and  C_22
REMARK    9  A    between atoms: O_23  and  C_24
REMARK   10  A    between atoms: C_25  and  N_73
REMARK   11  A    between atoms: C_26  and  N_73
REMARK   12  A    between atoms: C_31  and  C_33
REMARK   13  A    between atoms: C_31  and  C_34
REMARK                            x       y       z     vdW  Elec       q    Type
REMARK                         _______ _______ _______ _____ _____    ______ ____
ROOT
ATOM      1  C   UNL     1       4.895  -2.127   4.038  0.00  0.00    +0.101 A 
ATOM      2  C   UNL     1       5.049  -0.806   3.596  0.00  0.00    -0.026 A 
ATOM      3  C   UNL     1       5.660   0.112   4.397  0.00  0.00    +0.015 A 
ATOM      4  C   UNL     1       6.111  -0.303   5.665  0.00  0.00    +0.002 A 
ATOM      5  C   UNL     1       6.744   0.594   6.541  0.00  0.00    +0.059 A 
ATOM      6  C   UNL     1       7.176   0.158   7.760  0.00  0.00    +0.162 A 
ATOM      7  C   UNL     1       6.993  -1.177   8.148  0.00  0.00    +0.163 A 
ATOM      8  C   UNL     1       6.381  -2.071   7.317  0.00  0.00    +0.075 A 
ATOM      9  C   UNL     1       5.926  -1.653   6.055  0.00  0.00    +0.051 A 
ATOM     10  N   UNL     1       5.314  -2.584   5.244  0.00  0.00    -0.343 N 
ATOM     11  H   UNL     1       5.184  -3.560   5.535  0.00  0.00    +0.167 HD
ENDROOT
BRANCH   1  17
ATOM     12  C   UNL     1       2.890  -6.777   2.312  0.00  0.00    +0.403 C 
ATOM     13  O   UNL     1       3.669  -7.610   1.894  0.00  0.00    -0.226 OA
ATOM     14  N   UNL     1       3.232  -5.473   2.307  0.00  0.00    -0.264 N 
ATOM     15  C   UNL     1       4.542  -5.038   1.800  0.00  0.00    +0.130 C 
ATOM     16  C   UNL     1       5.198  -4.140   2.854  0.00  0.00    +0.125 C 
ATOM     17  N   UNL     1       4.277  -3.052   3.209  0.00  0.00    -0.313 N 
ATOM     18  C   UNL     1       3.049  -3.573   3.824  0.00  0.00    +0.125 C 
ATOM     19  C   UNL     1       2.304  -4.447   2.810  0.00  0.00    +0.130 C 
BRANCH  12  20
ATOM     20  O   UNL     1       1.686  -7.155   2.781  0.00  0.00    -0.451 OA
BRANCH  20  22
ATOM     21  C   UNL     1      -0.016  -8.811   3.323  0.00  0.00    +0.048 C 
ATOM     22  C   UNL     1       1.386  -8.575   2.756  0.00  0.00    +0.230 C 
ENDBRANCH  20  22
ENDBRANCH  12  20
ENDBRANCH   1  17
BRANCH   7  23
ATOM     23  O   UNL     1       7.431  -1.587   9.367  0.00  0.00    -0.491 OA
ATOM     24  C   UNL     1       7.217  -2.959   9.706  0.00  0.00    +0.277 C 
ENDBRANCH   7  23
BRANCH   6  25
ATOM     25  O   UNL     1       7.788   1.027   8.607  0.00  0.00    -0.491 OA
ATOM     26  C   UNL     1       7.945   2.373   8.154  0.00  0.00    +0.277 C 
ENDBRANCH   6  25
BRANCH   2  27
ATOM     27  C   UNL     1       4.545  -0.403   2.234  0.00  0.00    -0.043 C 
BRANCH  27  28
ATOM     28  N   UNL     1       3.079  -0.248   2.287  0.00  0.00    +0.384 N 
ATOM     29  H   UNL     1       2.840   0.475   2.975  0.00  0.00    -0.085 HD
ATOM     30  H   UNL     1       2.654  -1.140   2.566  0.00  0.00    -0.085 HD
BRANCH  28  31
ATOM     31  C   UNL     1       2.558   0.147   0.964  0.00  0.00    -0.067 C 
ATOM     32  C   UNL     1       2.640   1.669   0.815  0.00  0.00    +0.012 C 
ATOM     33  C   UNL     1       2.017   2.077  -0.523  0.00  0.00    +0.159 C 
ATOM     34  O   UNL     1       0.665   1.615  -0.578  0.00  0.00    -0.374 OA
ATOM     35  C   UNL     1       0.531   0.195  -0.490  0.00  0.00    +0.063 C 
ATOM     36  C   UNL     1       1.094  -0.288   0.849  0.00  0.00    +0.019 C 
ATOM     37  C   UNL     1      -0.948  -0.184  -0.588  0.00  0.00    +0.041 C 
ATOM     38  C   UNL     1       1.303  -0.463  -1.636  0.00  0.00    +0.041 C 
ENDBRANCH  28  31
ENDBRANCH  27  28
ENDBRANCH   2  27
TORSDOF 8
