REMARK  Name = ZINC38959597
REMARK  14 active torsions:
REMARK  status: ('A' for Active; 'I' for Inactive)
REMARK    1  A    between atoms: C_1  and  C_2
REMARK    2  A    between atoms: C_5  and  N_9
REMARK    3  A    between atoms: C_6  and  C_8
REMARK    4  A    between atoms: N_9  and  C_10
REMARK    5  A    between atoms: C_10  and  C_11
REMARK    6  A    between atoms: C_16  and  O_23
REMARK    7  A    between atoms: O_23  and  C_24
REMARK    8  A    between atoms: C_25  and  C_27
REMARK    9  A    between atoms: C_29  and  O_37
REMARK   10  A    between atoms: C_30  and  O_35
REMARK   11  A    between atoms: C_31  and  O_33
REMARK   12  A    between atoms: O_33  and  C_34
REMARK   13  A    between atoms: O_35  and  C_36
REMARK   14  A    between atoms: O_37  and  C_38
REMARK                            x       y       z     vdW  Elec       q    Type
REMARK                         _______ _______ _______ _____ _____    ______ ____
ROOT
ATOM      1  N   UNL     1      -0.127  -4.674   0.091  0.00  0.00    -0.266 N 
ATOM      2  C   UNL     1      -1.102  -5.593  -0.061  0.00  0.00    +0.251 C 
ATOM      3  O   UNL     1      -0.818  -6.736  -0.364  0.00  0.00    -0.270 OA
ENDROOT
BRANCH   1   8
ATOM      4  C   UNL     1      -1.465   0.738   1.138  0.00  0.00    +0.044 C 
ATOM      5  C   UNL     1      -1.109  -0.700   0.860  0.00  0.00    -0.050 A 
ATOM      6  C   UNL     1      -1.442  -1.683   1.774  0.00  0.00    +0.005 A 
ATOM      7  C   UNL     1      -1.118  -3.001   1.522  0.00  0.00    +0.024 A 
ATOM      8  C   UNL     1      -0.457  -3.340   0.349  0.00  0.00    +0.040 A 
ATOM      9  C   UNL     1      -0.125  -2.351  -0.568  0.00  0.00    -0.029 A 
ATOM     10  C   UNL     1      -0.456  -1.035  -0.312  0.00  0.00    +0.008 A 
ATOM     11  C   UNL     1       0.593  -2.715  -1.842  0.00  0.00    +0.045 C 
ENDBRANCH   1   8
BRANCH   2  12
ATOM     12  C   UNL     1      -2.513  -5.211   0.140  0.00  0.00    +0.044 A 
ATOM     13  C   UNL     1      -2.997  -4.014  -0.393  0.00  0.00    +0.062 A 
ATOM     14  C   UNL     1      -4.319  -3.658  -0.203  0.00  0.00    +0.166 A 
ATOM     15  C   UNL     1      -5.168  -4.492   0.519  0.00  0.00    +0.204 A 
ATOM     16  C   UNL     1      -4.689  -5.686   1.051  0.00  0.00    +0.166 A 
ATOM     17  C   UNL     1      -3.369  -6.049   0.859  0.00  0.00    +0.062 A 
BRANCH  16  18
ATOM     18  O   UNL     1      -5.521  -6.498   1.757  0.00  0.00    -0.491 OA
ATOM     19  C   UNL     1      -4.962  -7.707   2.274  0.00  0.00    +0.277 C 
ENDBRANCH  16  18
BRANCH  15  20
ATOM     20  O   UNL     1      -6.468  -4.141   0.705  0.00  0.00    -0.488 OA
ATOM     21  C   UNL     1      -7.406  -4.579  -0.281  0.00  0.00    +0.277 C 
ENDBRANCH  15  20
BRANCH  14  22
ATOM     22  O   UNL     1      -4.791  -2.493  -0.722  0.00  0.00    -0.491 OA
ATOM     23  C   UNL     1      -3.901  -1.746  -1.554  0.00  0.00    +0.277 C 
ENDBRANCH  14  22
ENDBRANCH   2  12
BRANCH   1  24
ATOM     24  C   UNL     1       1.279  -5.074  -0.014  0.00  0.00    +0.131 C 
BRANCH  24  25
ATOM     25  C   UNL     1       1.741  -5.669   1.317  0.00  0.00    +0.116 C 
ATOM     26  C   UNL     1       2.993  -6.482   1.054  0.00  0.00    -0.003 C 
ATOM     27  C   UNL     1       4.119  -6.136   1.740  0.00  0.00    -0.004 A 
ATOM     28  C   UNL     1       5.370  -6.868   1.546  0.00  0.00    +0.055 A 
ATOM     29  C   UNL     1       6.470  -6.488   2.254  0.00  0.00    +0.121 A 
ATOM     30  C   UNL     1       6.420  -5.418   3.155  0.00  0.00    +0.047 A 
ATOM     31  C   UNL     1       5.288  -4.701   3.377  0.00  0.00    +0.027 A 
ATOM     32  C   UNL     1       4.097  -5.014   2.695  0.00  0.00    +0.041 A 
ATOM     33  N   UNL     1       2.994  -4.301   2.923  0.00  0.00    -0.284 N 
ATOM     34  C   UNL     1       1.843  -4.541   2.319  0.00  0.00    +0.226 C 
ATOM     35  O   UNL     1       0.869  -3.856   2.568  0.00  0.00    -0.275 OA
ATOM     36  H   UNL     1       3.038  -3.573   3.562  0.00  0.00    +0.155 HD
BRANCH  29  37
ATOM     37  O   UNL     1       7.639  -7.160   2.082  0.00  0.00    -0.495 OA
ATOM     38  C   UNL     1       8.760  -6.719   2.850  0.00  0.00    +0.277 C 
ENDBRANCH  29  37
ENDBRANCH  24  25
ENDBRANCH   1  24
TORSDOF 8
