REMARK  Name = ZINC40292010
REMARK  8 active torsions:
REMARK  status: ('A' for Active; 'I' for Inactive)
REMARK    1  A    between atoms: C_1  and  C_2
REMARK    2  A    between atoms: C_5  and  C_21
REMARK    3  A    between atoms: C_6  and  S_8
REMARK    4  A    between atoms: S_8  and  C_9
REMARK    5  A    between atoms: C_10  and  C_17
REMARK    6  A    between atoms: C_11  and  C_16
REMARK    7  A    between atoms: C_12  and  C_15
REMARK    8  A    between atoms: N_18  and  O_19
REMARK                            x       y       z     vdW  Elec       q    Type
REMARK                         _______ _______ _______ _____ _____    ______ ____
ROOT
ATOM      1  C   UNL     1       0.194  -1.727   3.934  0.00  0.00    +0.135 A 
ATOM      2  C   UNL     1       0.351  -2.075   5.289  0.00  0.00    +0.056 A 
ATOM      3  C   UNL     1       0.456  -1.035   6.218  0.00  0.00    -0.015 A 
ATOM      4  C   UNL     1       0.397   0.265   5.745  0.00  0.00    +0.064 A 
ATOM      5  N   UNL     1       0.247   0.495   4.455  0.00  0.00    -0.153 NA
ATOM      6  N   UNL     1       0.156  -0.448   3.591  0.00  0.00    -0.142 NA
ATOM      7  C   UNL     1       0.505   1.421   6.707  0.00  0.00    +0.068 C 
ATOM      8  C   UNL     1       0.625  -1.321   7.688  0.00  0.00    +0.046 C 
ENDROOT
BRANCH   2   9
ATOM      9  C   UNL     1       0.404  -3.491   5.714  0.00  0.00    +0.165 C 
ATOM     10  N   UNL     1       1.547  -4.111   5.772  0.00  0.00    -0.071 NA
ATOM     11  N   UNL     1      -0.763  -4.157   6.051  0.00  0.00    -0.340 N 
ATOM     12  H   UNL     1      -1.614  -3.695   6.008  0.00  0.00    +0.144 HD
ATOM     13  H   UNL     1      -0.728  -5.085   6.330  0.00  0.00    +0.144 HD
BRANCH  10  14
ATOM     14  O   UNL     1       1.597  -5.466   6.180  0.00  0.00    -0.408 OA
ATOM     15  H   UNL     1       2.489  -5.840   6.191  0.00  0.00    +0.328 HD
ENDBRANCH  10  14
ENDBRANCH   2   9
BRANCH   1  16
ATOM     16  S   UNL     1       0.057  -2.982   2.705  0.00  0.00    -0.067 S 
BRANCH  16  22
ATOM     17  C   UNL     1      -2.469  -1.036  -1.444  0.00  0.00    +0.044 C 
ATOM     18  C   UNL     1      -1.174  -1.220  -0.695  0.00  0.00    -0.049 A 
ATOM     19  C   UNL     1      -0.002  -0.688  -1.200  0.00  0.00    +0.004 A 
ATOM     20  C   UNL     1       1.188  -0.854  -0.515  0.00  0.00    +0.005 A 
ATOM     21  C   UNL     1       1.210  -1.553   0.676  0.00  0.00    -0.037 A 
ATOM     22  C   UNL     1       0.034  -2.089   1.186  0.00  0.00    +0.017 A 
ATOM     23  C   UNL     1      -1.161  -1.916   0.498  0.00  0.00    +0.018 A 
ATOM     24  C   UNL     1       2.507  -1.734   1.421  0.00  0.00    +0.045 C 
ENDBRANCH  16  22
ENDBRANCH   1  16
TORSDOF 4
