REMARK  Name = ZINC38901648
REMARK  9 active torsions:
REMARK  status: ('A' for Active; 'I' for Inactive)
REMARK    1  A    between atoms: C_1  and  C_2
REMARK    2  A    between atoms: C_2  and  C_4
REMARK    3  A    between atoms: C_2  and  C_15
REMARK    4  A    between atoms: C_4  and  C_5
REMARK    5  A    between atoms: C_15  and  N_16
REMARK    6  A    between atoms: C_17  and  C_19
REMARK    7  A    between atoms: N_24  and  C_26
REMARK    8  A    between atoms: C_26  and  C_27
REMARK    9  A    between atoms: C_29  and  C_32
REMARK                            x       y       z     vdW  Elec       q    Type
REMARK                         _______ _______ _______ _____ _____    ______ ____
ROOT
ATOM      1  C   UNL     1      -4.078  -0.112  -2.723  0.00  0.00    +0.058 C 
ATOM      2  C   UNL     1      -4.101   1.415  -2.840  0.00  0.00    +0.009 C 
ATOM      3  C   UNL     1      -4.873   1.809  -4.102  0.00  0.00    -0.018 C 
ATOM      4  C   UNL     1      -6.280   1.211  -4.039  0.00  0.00    -0.078 C 
ATOM      5  N   UNL     1      -6.191  -0.251  -3.955  0.00  0.00    +0.386 N 
ATOM      6  C   UNL     1      -5.514  -0.639  -2.712  0.00  0.00    -0.065 C 
ATOM      7  H   UNL     1      -5.669  -0.602  -4.744  0.00  0.00    -0.081 HD
ENDROOT
BRANCH   1   9
ATOM      8  N   UNL     1      -2.105  -0.148  -1.230  0.00  0.00    -0.315 N 
ATOM      9  C   UNL     1      -3.387  -0.508  -1.443  0.00  0.00    +0.214 C 
ATOM     10  O   UNL     1      -3.983  -1.151  -0.606  0.00  0.00    -0.276 OA
ATOM     11  H   UNL     1      -1.628   0.366  -1.901  0.00  0.00    +0.149 HD
BRANCH   8  12
ATOM     12  C   UNL     1      -1.433  -0.534   0.013  0.00  0.00    +0.107 C 
BRANCH  12  14
ATOM     13  C   UNL     1      -0.019   1.526   0.010  0.00  0.00    +0.009 C 
ATOM     14  C   UNL     1       0.002  -0.004   0.002  0.00  0.00    +0.007 C 
BRANCH  14  15
ATOM     15  C   UNL     1       0.742  -0.511   1.242  0.00  0.00    +0.040 C 
BRANCH  15  16
ATOM     16  C   UNL     1       2.188  -0.092   1.170  0.00  0.00    -0.039 A 
ATOM     17  C   UNL     1       3.122  -0.941   0.659  0.00  0.00    +0.004 A 
ATOM     18  C   UNL     1       4.463  -0.572   0.585  0.00  0.00    +0.001 A 
ATOM     19  C   UNL     1       4.879   0.649   1.021  0.00  0.00    +0.008 A 
ATOM     20  C   UNL     1       3.944   1.552   1.554  0.00  0.00    -0.018 A 
ATOM     21  C   UNL     1       2.579   1.179   1.624  0.00  0.00    -0.015 A 
ATOM     22  C   UNL     1       1.643   2.085   2.151  0.00  0.00    +0.009 A 
ATOM     23  C   UNL     1       2.058   3.308   2.581  0.00  0.00    +0.001 A 
ATOM     24  C   UNL     1       3.399   3.677   2.506  0.00  0.00    +0.001 A 
ATOM     25  C   UNL     1       4.336   2.821   2.014  0.00  0.00    +0.008 A 
ENDBRANCH  15  16
ENDBRANCH  14  15
ENDBRANCH  12  14
ENDBRANCH   8  12
ENDBRANCH   1   9
BRANCH   5  26
ATOM     26  C   UNL     1      -7.544  -0.825  -3.974  0.00  0.00    +0.022 C 
BRANCH  26  27
ATOM     27  C   UNL     1      -8.192  -0.540  -5.304  0.00  0.00    +0.211 A 
ATOM     28  N   UNL     1      -8.134  -1.304  -6.357  0.00  0.00    -0.193 NA
ATOM     29  C   UNL     1      -8.823  -0.747  -7.369  0.00  0.00    +0.202 A 
ATOM     30  N   UNL     1      -9.328   0.390  -6.955  0.00  0.00    -0.056 NA
ATOM     31  O   UNL     1      -8.928   0.538  -5.601  0.00  0.00    -0.340 OA
BRANCH  29  32
ATOM     32  C   UNL     1      -8.985  -1.322  -8.727  0.00  0.00    +0.023 A 
ATOM     33  C   UNL     1      -8.400  -2.547  -9.041  0.00  0.00    +0.014 A 
ATOM     34  C   UNL     1      -8.553  -3.079 -10.305  0.00  0.00    +0.039 A 
ATOM     35  C   UNL     1      -9.288  -2.397 -11.261  0.00  0.00    +0.123 A 
ATOM     36  C   UNL     1      -9.871  -1.178 -10.954  0.00  0.00    +0.039 A 
ATOM     37  C   UNL     1      -9.728  -0.642  -9.691  0.00  0.00    +0.014 A 
ATOM     38  F   UNL     1      -9.436  -2.921 -12.498  0.00  0.00    -0.205 F 
ENDBRANCH  29  32
ENDBRANCH  26  27
ENDBRANCH   5  26
TORSDOF 8
