REMARK  Name = ZINC08790887
REMARK  6 active torsions:
REMARK  status: ('A' for Active; 'I' for Inactive)
REMARK    1  A    between atoms: C_1  and  C_2
REMARK    2  A    between atoms: C_13  and  C_15
REMARK    3  A    between atoms: C_15  and  C_16
REMARK    4  A    between atoms: C_19  and  O_22
REMARK    5  A    between atoms: N_25  and  C_28
REMARK    6  A    between atoms: C_28  and  C_29
REMARK                            x       y       z     vdW  Elec       q    Type
REMARK                         _______ _______ _______ _____ _____    ______ ____
ROOT
ATOM      1  C   UNL     1       0.508   9.286  -0.223  0.00  0.00    +0.044 C 
ATOM      2  C   UNL     1       1.286   8.098  -0.728  0.00  0.00    -0.050 A 
ATOM      3  C   UNL     1       2.581   8.261  -1.184  0.00  0.00    +0.005 A 
ATOM      4  C   UNL     1       3.298   7.178  -1.646  0.00  0.00    +0.024 A 
ATOM      5  C   UNL     1       2.723   5.909  -1.657  0.00  0.00    +0.036 A 
ATOM      6  C   UNL     1       1.418   5.757  -1.197  0.00  0.00    -0.027 A 
ATOM      7  C   UNL     1       0.706   6.842  -0.736  0.00  0.00    +0.008 A 
ATOM      8  C   UNL     1       1.100   4.296  -1.339  0.00  0.00    +0.050 C 
ATOM      9  C   UNL     1       0.729   3.666   0.010  0.00  0.00    +0.088 C 
ATOM     10  C   UNL     1      -0.824   3.644   0.035  0.00  0.00    +0.073 C 
ATOM     11  C   UNL     1      -1.236   4.276  -1.330  0.00  0.00    -0.053 C 
ATOM     12  C   UNL     1      -1.153   2.169   0.019  0.00  0.00    +0.224 C 
ATOM     13  O   UNL     1      -2.271   1.700   0.018  0.00  0.00    -0.275 OA
ATOM     14  N   UNL     1      -0.018   1.461   0.010  0.00  0.00    -0.237 N 
ATOM     15  C   UNL     1       1.098   2.200   0.003  0.00  0.00    +0.225 C 
ATOM     16  O   UNL     1       2.228   1.761  -0.006  0.00  0.00    -0.275 OA
ATOM     17  C   UNL     1       2.346   3.678  -1.911  0.00  0.00    +0.211 C 
ATOM     18  O   UNL     1       2.517   2.508  -2.180  0.00  0.00    -0.277 OA
ATOM     19  N   UNL     1       3.236   4.677  -2.067  0.00  0.00    -0.286 N 
ATOM     20  H   UNL     1       4.130   4.555  -2.424  0.00  0.00    +0.155 HD
ATOM     21  N   UNL     1      -0.062   4.086  -2.184  0.00  0.00    +0.394 N 
ATOM     22  H   UNL     1      -0.054   3.135  -2.570  0.00  0.00    -0.083 HD
ATOM     23  H   UNL     1      -0.069   4.767  -2.953  0.00  0.00    -0.083 HD
ENDROOT
BRANCH  11  24
ATOM     24  C   UNL     1      -2.464   3.563  -1.901  0.00  0.00    +0.020 C 
BRANCH  24  25
ATOM     25  C   UNL     1      -2.876   4.228  -3.189  0.00  0.00    -0.049 A 
ATOM     26  C   UNL     1      -3.784   5.270  -3.169  0.00  0.00    +0.007 A 
ATOM     27  C   UNL     1      -4.160   5.885  -4.348  0.00  0.00    +0.045 A 
ATOM     28  C   UNL     1      -3.633   5.447  -5.554  0.00  0.00    +0.117 A 
ATOM     29  C   UNL     1      -2.726   4.398  -5.573  0.00  0.00    +0.045 A 
ATOM     30  C   UNL     1      -2.349   3.791  -4.391  0.00  0.00    +0.007 A 
BRANCH  28  31
ATOM     31  O   UNL     1      -4.005   6.046  -6.716  0.00  0.00    -0.507 OA
ATOM     32  H   UNL     1      -4.779   5.645  -7.135  0.00  0.00    +0.292 HD
ENDBRANCH  28  31
ENDBRANCH  24  25
ENDBRANCH  11  24
BRANCH  14  33
ATOM     33  C   UNL     1       0.002  -0.004   0.002  0.00  0.00    +0.151 C 
BRANCH  33  34
ATOM     34  C   UNL     1       0.022  -0.514   1.420  0.00  0.00    -0.026 A 
ATOM     35  C   UNL     1       1.230  -0.737   2.056  0.00  0.00    +0.009 A 
ATOM     36  C   UNL     1       1.254  -1.200   3.358  0.00  0.00    +0.050 A 
ATOM     37  C   UNL     1       0.066  -1.452   4.026  0.00  0.00    +0.166 A 
ATOM     38  C   UNL     1      -1.150  -1.233   3.384  0.00  0.00    +0.167 A 
ATOM     39  C   UNL     1      -1.166  -0.764   2.080  0.00  0.00    +0.054 A 
ATOM     40  O   UNL     1      -2.161  -1.553   4.243  0.00  0.00    -0.453 OA
ATOM     41  C   UNL     1      -1.560  -1.580   5.551  0.00  0.00    +0.466 C 
ATOM     42  O   UNL     1      -0.183  -1.909   5.288  0.00  0.00    -0.453 OA
ENDBRANCH  33  34
ENDBRANCH  14  33
TORSDOF 5
