REMARK  Name = ZINC09619951
REMARK  8 active torsions:
REMARK  status: ('A' for Active; 'I' for Inactive)
REMARK    1  A    between atoms: C_4  and  C_7
REMARK    2  A    between atoms: C_7  and  S_8
REMARK    3  A    between atoms: S_8  and  N_11
REMARK    4  A    between atoms: C_16  and  C_17
REMARK    5  A    between atoms: C_16  and  N_59
REMARK    6  A    between atoms: N_19  and  C_20
REMARK    7  A    between atoms: C_20  and  C_22
REMARK    8  A    between atoms: C_20  and  C_28
REMARK                            x       y       z     vdW  Elec       q    Type
REMARK                         _______ _______ _______ _____ _____    ______ ____
ROOT
ATOM      1  C   UNL     1      -1.994   3.675   2.466  0.00  0.00    +0.019 C 
ENDROOT
BRANCH   1   7
ATOM      2  N   UNL     1      -3.093   7.724   2.581  0.00  0.00    -0.184 NA
ATOM      3  C   UNL     1      -4.126   6.742   2.942  0.00  0.00    +0.090 C 
ATOM      4  C   UNL     1      -3.436   5.425   3.316  0.00  0.00    -0.061 C 
ATOM      5  C   UNL     1      -1.469   5.996   2.017  0.00  0.00    -0.061 C 
ATOM      6  C   UNL     1      -2.078   7.335   1.590  0.00  0.00    +0.090 C 
ATOM      7  N   UNL     1      -2.560   5.014   2.197  0.00  0.00    +0.387 N 
ATOM      8  H   UNL     1      -3.117   4.974   1.336  0.00  0.00    -0.081 HD
BRANCH   2   9
ATOM      9  S   UNL     1      -3.073   9.229   3.272  0.00  0.00    +0.036 S 
ATOM     10  O   UNL     1      -2.420  10.057   2.319  0.00  0.00    -0.158 OA
ATOM     11  O   UNL     1      -4.423   9.476   3.642  0.00  0.00    -0.158 OA
BRANCH   9  12
ATOM     12  C   UNL     1      -2.042   9.049   4.754  0.00  0.00    +0.220 C 
BRANCH  12  16
ATOM     13  C   UNL     1      -1.792  12.801   6.780  0.00  0.00    +0.000 A 
ATOM     14  C   UNL     1      -2.803  11.912   7.094  0.00  0.00    +0.000 A 
ATOM     15  C   UNL     1      -2.885  10.698   6.438  0.00  0.00    +0.005 A 
ATOM     16  C   UNL     1      -1.954  10.372   5.468  0.00  0.00    -0.025 A 
ATOM     17  C   UNL     1      -0.939  11.258   5.159  0.00  0.00    +0.005 A 
ATOM     18  C   UNL     1      -0.861  12.475   5.812  0.00  0.00    +0.000 A 
ENDBRANCH  12  16
ENDBRANCH   9  12
ENDBRANCH   2   9
ENDBRANCH   1   7
BRANCH   1  19
ATOM     19  C   UNL     1      -1.289   3.189   1.226  0.00  0.00    +0.197 C 
ATOM     20  O   UNL     1      -1.248   3.891   0.237  0.00  0.00    -0.278 OA
ATOM     21  N   UNL     1      -0.704   1.975   1.216  0.00  0.00    -0.306 N 
ATOM     22  H   UNL     1      -0.737   1.414   2.006  0.00  0.00    +0.150 HD
BRANCH  21  23
ATOM     23  C   UNL     1      -0.018   1.503   0.010  0.00  0.00    +0.140 C 
BRANCH  23  24
ATOM     24  C   UNL     1       0.002  -0.004   0.002  0.00  0.00    -0.022 A 
ATOM     25  C   UNL     1       0.236  -0.699   1.174  0.00  0.00    +0.006 A 
ATOM     26  C   UNL     1       0.251  -2.081   1.167  0.00  0.00    +0.000 A 
ATOM     27  C   UNL     1       0.040  -2.768  -0.013  0.00  0.00    +0.000 A 
ATOM     28  C   UNL     1      -0.189  -2.074  -1.186  0.00  0.00    +0.000 A 
ATOM     29  C   UNL     1      -0.208  -0.692  -1.179  0.00  0.00    +0.006 A 
ENDBRANCH  23  24
BRANCH  23  30
ATOM     30  C   UNL     1       1.395   2.024  -0.000  0.00  0.00    +0.014 A 
ATOM     31  C   UNL     1       2.125   2.492  -1.043  0.00  0.00    +0.013 A 
ATOM     32  C   UNL     1       3.417   2.927  -0.815  0.00  0.00    +0.008 A 
ATOM     33  C   UNL     1       3.920   2.864   0.442  0.00  0.00    +0.045 A 
ATOM     34  S   UNL     1       2.547   2.180   1.355  0.00  0.00    -0.099 S 
ENDBRANCH  23  30
ENDBRANCH  21  23
ENDBRANCH   1  19
TORSDOF 8
