REMARK  Name = ZINC39409729
REMARK  5 active torsions:
REMARK  status: ('A' for Active; 'I' for Inactive)
REMARK    1  A    between atoms: C_1  and  C_2
REMARK    2  A    between atoms: C_12  and  S_14
REMARK    3  A    between atoms: S_14  and  C_15
REMARK    4  A    between atoms: C_18  and  C_28
REMARK    5  A    between atoms: N_20  and  C_21
REMARK                            x       y       z     vdW  Elec       q    Type
REMARK                         _______ _______ _______ _____ _____    ______ ____
ROOT
ATOM      1  C   UNL     1       1.357  -1.183   3.747  0.00  0.00    +0.181 C 
ATOM      2  N   UNL     1       0.379  -1.975   4.035  0.00  0.00    -0.162 NA
ATOM      3  N   UNL     1       0.499  -2.486   5.333  0.00  0.00    -0.241 N 
ATOM      4  C   UNL     1       1.734  -1.908   5.890  0.00  0.00    +0.219 C 
ATOM      5  N   UNL     1       2.254  -1.066   4.799  0.00  0.00    -0.254 N 
ATOM      6  H   UNL     1      -0.109  -3.098   5.776  0.00  0.00    +0.171 HD
ENDROOT
BRANCH   5   7
ATOM      7  C   UNL     1       3.422  -0.297   4.820  0.00  0.00    +0.038 A 
ATOM      8  C   UNL     1       4.458  -0.581   3.939  0.00  0.00    +0.026 A 
ATOM      9  C   UNL     1       5.610   0.180   3.961  0.00  0.00    +0.040 A 
ATOM     10  C   UNL     1       5.734   1.225   4.861  0.00  0.00    +0.124 A 
ATOM     11  C   UNL     1       4.703   1.510   5.741  0.00  0.00    +0.040 A 
ATOM     12  C   UNL     1       3.546   0.755   5.718  0.00  0.00    +0.026 A 
ATOM     13  F   UNL     1       6.862   1.967   4.882  0.00  0.00    -0.205 F 
ENDBRANCH   5   7
BRANCH   4  14
ATOM     14  C   UNL     1       2.720  -2.995   6.232  0.00  0.00    +0.030 A 
ATOM     15  C   UNL     1       2.482  -4.265   6.641  0.00  0.00    +0.015 A 
ATOM     16  C   UNL     1       3.554  -5.098   6.900  0.00  0.00    +0.008 A 
ATOM     17  C   UNL     1       4.812  -4.619   6.739  0.00  0.00    +0.045 A 
ATOM     18  S   UNL     1       4.504  -2.946   6.199  0.00  0.00    -0.098 S 
ENDBRANCH   4  14
BRANCH   1  19
ATOM     19  S   UNL     1       1.535  -0.357   2.201  0.00  0.00    -0.071 S 
BRANCH  19  31
ATOM     20  C   UNL     1       0.065   1.379  -0.093  0.00  0.00    +0.041 C 
ATOM     21  C   UNL     1       0.085  -0.128  -0.061  0.00  0.00    -0.042 C 
ATOM     22  C   UNL     1       0.108  -0.859  -1.209  0.00  0.00    +0.000 A 
ATOM     23  C   UNL     1       0.115  -0.199  -2.516  0.00  0.00    +0.059 A 
ATOM     24  C   UNL     1       0.137  -0.958  -3.643  0.00  0.00    +0.167 A 
ATOM     25  C   UNL     1       0.155  -2.368  -3.574  0.00  0.00    +0.168 A 
ATOM     26  C   UNL     1       0.151  -3.036  -2.368  0.00  0.00    +0.073 A 
ATOM     27  C   UNL     1       0.128  -2.332  -1.157  0.00  0.00    +0.044 A 
ATOM     28  N   UNL     1       0.123  -2.999  -0.000  0.00  0.00    -0.284 N 
ATOM     29  C   UNL     1       0.101  -2.399   1.177  0.00  0.00    +0.235 C 
ATOM     30  O   UNL     1       0.097  -3.060   2.199  0.00  0.00    -0.274 OA
ATOM     31  C   UNL     1       0.085  -0.889   1.249  0.00  0.00    +0.166 C 
ATOM     32  O   UNL     1       0.176  -2.855  -4.848  0.00  0.00    -0.453 OA
ATOM     33  C   UNL     1      -0.250  -1.767  -5.687  0.00  0.00    +0.466 C 
ATOM     34  O   UNL     1       0.146  -0.590  -4.960  0.00  0.00    -0.453 OA
ATOM     35  H   UNL     1       0.136  -3.968  -0.025  0.00  0.00    +0.155 HD
ENDBRANCH  19  31
ENDBRANCH   1  19
TORSDOF 4
