REMARK  Name = ZINC13164467
REMARK  8 active torsions:
REMARK  status: ('A' for Active; 'I' for Inactive)
REMARK    1  A    between atoms: C_1  and  C_2
REMARK    2  A    between atoms: N_5  and  S_11
REMARK    3  A    between atoms: C_7  and  C_10
REMARK    4  A    between atoms: S_11  and  C_14
REMARK    5  A    between atoms: C_17  and  C_20
REMARK    6  A    between atoms: N_22  and  C_23
REMARK    7  A    between atoms: C_23  and  C_24
REMARK    8  A    between atoms: C_24  and  N_72
REMARK                            x       y       z     vdW  Elec       q    Type
REMARK                         _______ _______ _______ _____ _____    ______ ____
ROOT
ATOM      1  C   UNL     1      -4.785   4.927  -2.079  0.00  0.00    +0.244 C 
ATOM      2  O   UNL     1      -4.532   5.675  -3.003  0.00  0.00    -0.270 OA
ATOM      3  N   UNL     1      -3.872   4.723  -1.109  0.00  0.00    -0.313 N 
ATOM      4  H   UNL     1      -4.074   4.125  -0.372  0.00  0.00    +0.149 HD
ENDROOT
BRANCH   1   8
ATOM      5  C   UNL     1      -8.543   2.955  -1.910  0.00  0.00    +0.106 A 
ATOM      6  C   UNL     1      -8.259   3.807  -2.962  0.00  0.00    +0.029 A 
ATOM      7  C   UNL     1      -7.041   4.451  -3.023  0.00  0.00    +0.015 A 
ATOM      8  C   UNL     1      -6.093   4.241  -2.020  0.00  0.00    +0.037 A 
ATOM      9  C   UNL     1      -6.384   3.377  -0.964  0.00  0.00    +0.015 A 
ATOM     10  C   UNL     1      -7.609   2.743  -0.912  0.00  0.00    +0.029 A 
BRANCH   5  11
ATOM     11  S   UNL     1     -10.102   2.137  -1.839  0.00  0.00    +0.061 S 
ATOM     12  O   UNL     1     -10.333   1.819  -0.474  0.00  0.00    -0.153 OA
ATOM     13  O   UNL     1     -11.008   2.923  -2.602  0.00  0.00    -0.153 OA
BRANCH  11  17
ATOM     14  C   UNL     1      -7.127  -0.249  -2.611  0.00  0.00    +0.039 C 
ATOM     15  C   UNL     1      -8.356  -1.157  -2.700  0.00  0.00    +0.131 C 
ATOM     16  C   UNL     1      -9.518  -0.521  -1.928  0.00  0.00    +0.140 C 
ATOM     17  N   UNL     1      -9.936   0.697  -2.640  0.00  0.00    -0.172 NA
ATOM     18  C   UNL     1     -10.208   0.596  -4.083  0.00  0.00    +0.140 C 
ATOM     19  C   UNL     1      -9.007  -0.092  -4.750  0.00  0.00    +0.131 C 
ATOM     20  O   UNL     1      -8.732  -1.319  -4.069  0.00  0.00    -0.371 OA
ATOM     21  C   UNL     1      -9.336  -0.384  -6.215  0.00  0.00    +0.039 C 
ENDBRANCH  11  17
ENDBRANCH   5  11
ENDBRANCH   1   8
BRANCH   3  22
ATOM     22  C   UNL     1      -2.576   5.402  -1.168  0.00  0.00    +0.092 C 
BRANCH  22  23
ATOM     23  C   UNL     1      -1.734   5.000   0.044  0.00  0.00    -0.050 C 
ATOM     24  C   UNL     1      -0.380   5.710  -0.017  0.00  0.00    -0.010 C 
ATOM     25  C   UNL     1      -0.597   7.224  -0.007  0.00  0.00    -0.001 C 
ATOM     26  C   UNL     1      -1.326   7.626   1.277  0.00  0.00    -0.000 C 
ATOM     27  C   UNL     1      -2.680   6.916   1.338  0.00  0.00    -0.001 C 
ATOM     28  C   UNL     1      -2.463   5.402   1.328  0.00  0.00    -0.010 C 
BRANCH  23  34
ATOM     29  C   UNL     1      -0.826   3.122  -1.185  0.00  0.00    -0.078 C 
ATOM     30  C   UNL     1      -0.756   1.594  -1.230  0.00  0.00    -0.019 C 
ATOM     31  C   UNL     1      -0.013   1.086   0.008  0.00  0.00    -0.004 C 
ATOM     32  C   UNL     1      -0.732   1.581   1.266  0.00  0.00    -0.019 C 
ATOM     33  C   UNL     1      -0.804   3.109   1.238  0.00  0.00    -0.078 C 
ATOM     34  N   UNL     1      -1.552   3.533   0.035  0.00  0.00    +0.384 N 
ATOM     35  H   UNL     1      -2.475   3.083   0.041  0.00  0.00    -0.081 HD
ENDBRANCH  23  34
ENDBRANCH  22  23
ENDBRANCH   3  22
TORSDOF 6
