REMARK  Name = ZINC01254592
REMARK  7 active torsions:
REMARK  status: ('A' for Active; 'I' for Inactive)
REMARK    1  A    between atoms: C_1  and  C_2
REMARK    2  A    between atoms: C_9  and  N_14
REMARK    3  A    between atoms: C_10  and  C_11
REMARK    4  A    between atoms: C_15  and  C_17
REMARK    5  A    between atoms: C_17  and  C_32
REMARK    6  A    between atoms: C_18  and  C_19
REMARK    7  A    between atoms: C_22  and  C_24
REMARK                            x       y       z     vdW  Elec       q    Type
REMARK                         _______ _______ _______ _____ _____    ______ ____
ROOT
ATOM      1  N   UNL     1      -1.118   2.574   0.022  0.00  0.00    -0.275 N 
ATOM      2  C   UNL     1      -2.365   2.062   0.025  0.00  0.00    +0.259 C 
ATOM      3  O   UNL     1      -2.526   0.855   0.020  0.00  0.00    -0.269 OA
ATOM      4  H   UNL     1      -0.989   3.536   0.026  0.00  0.00    +0.156 HD
ENDROOT
BRANCH   1  12
ATOM      5  C   UNL     1       4.801  -2.537   0.038  0.00  0.00    +0.008 C 
ATOM      6  C   UNL     1       3.958  -1.296   0.339  0.00  0.00    -0.009 C 
ATOM      7  C   UNL     1       4.465  -0.117  -0.497  0.00  0.00    +0.008 C 
ATOM      8  C   UNL     1       3.798   1.177  -0.029  0.00  0.00    +0.037 C 
ATOM      9  C   UNL     1       2.288   0.974  -0.015  0.00  0.00    -0.023 A 
ATOM     10  C   UNL     1       1.753  -0.266  -0.016  0.00  0.00    -0.004 A 
ATOM     11  S   UNL     1       0.002  -0.004   0.002  0.00  0.00    -0.077 S 
ATOM     12  C   UNL     1      -0.021   1.728   0.011  0.00  0.00    +0.085 A 
ATOM     13  C   UNL     1       1.326   2.063   0.001  0.00  0.00    +0.068 A 
ATOM     14  C   UNL     1       2.492  -1.569  -0.028  0.00  0.00    +0.046 C 
BRANCH  13  15
ATOM     15  C   UNL     1       1.762   3.462   0.004  0.00  0.00    +0.244 C 
ATOM     16  O   UNL     1       1.953   4.038   1.059  0.00  0.00    -0.270 OA
ATOM     17  N   UNL     1       1.950   4.112  -1.162  0.00  0.00    -0.325 N 
ATOM     18  H   UNL     1       1.798   3.654  -2.003  0.00  0.00    +0.145 HD
ATOM     19  H   UNL     1       2.239   5.038  -1.160  0.00  0.00    +0.145 HD
ENDBRANCH  13  15
ENDBRANCH   1  12
BRANCH   2  20
ATOM     20  C   UNL     1      -3.526   2.957   0.036  0.00  0.00    +0.117 C 
ATOM     21  C   UNL     1      -4.810   2.429   0.040  0.00  0.00    +0.070 C 
BRANCH  21  22
ATOM     22  C   UNL     1      -5.922   3.287   0.050  0.00  0.00    +0.130 A 
ATOM     23  C   UNL     1      -7.253   2.894   0.055  0.00  0.00    +0.050 A 
ATOM     24  C   UNL     1      -8.017   4.059   0.065  0.00  0.00    +0.050 A 
ATOM     25  C   UNL     1      -7.135   5.120   0.066  0.00  0.00    +0.137 A 
ATOM     26  O   UNL     1      -5.881   4.636   0.063  0.00  0.00    -0.455 OA
BRANCH  25  27
ATOM     27  C   UNL     1      -7.507   6.548   0.075  0.00  0.00    +0.037 A 
ATOM     28  C   UNL     1      -6.927   7.418   1.002  0.00  0.00    +0.033 A 
ATOM     29  C   UNL     1      -7.279   8.752   1.005  0.00  0.00    +0.042 A 
ATOM     30  C   UNL     1      -8.206   9.230   0.092  0.00  0.00    +0.021 A 
ATOM     31  C   UNL     1      -8.783   8.374  -0.829  0.00  0.00    +0.022 A 
ATOM     32  C   UNL     1      -8.436   7.038  -0.847  0.00  0.00    +0.052 A 
ATOM     33 CL   UNL     1      -9.158   5.968  -2.008  0.00  0.00    -0.083 Cl
ATOM     34 CL   UNL     1      -6.561   9.835   2.155  0.00  0.00    -0.084 Cl
ENDBRANCH  25  27
ENDBRANCH  21  22
BRANCH  20  35
ATOM     35  C   UNL     1      -3.336   4.377   0.042  0.00  0.00    +0.104 C 
ATOM     36  N   UNL     1      -3.185   5.503   0.047  0.00  0.00    -0.191 NA
ENDBRANCH  20  35
ENDBRANCH   2  20
TORSDOF 6
