REMARK  Name = ZINC08690191
REMARK  4 active torsions:
REMARK  status: ('A' for Active; 'I' for Inactive)
REMARK    1  A    between atoms: C_1  and  N_2
REMARK    2  A    between atoms: C_5  and  N_17
REMARK    3  A    between atoms: C_6  and  N_10
REMARK    4  A    between atoms: N_10  and  C_11
REMARK                            x       y       z     vdW  Elec       q    Type
REMARK                         _______ _______ _______ _____ _____    ______ ____
ROOT
ATOM      1  C   UNL     1      -0.005   1.461   0.001  0.00  0.00    +0.157 C 
ATOM      2  N   UNL     1       0.008  -0.004  -0.002  0.00  0.00    -0.261 N 
ATOM      3  C   UNL     1      -1.161  -0.679   0.000  0.00  0.00    +0.287 A 
ATOM      4  O   UNL     1      -2.227  -0.093   0.005  0.00  0.00    -0.265 OA
ATOM      5  C   UNL     1      -1.101  -2.157  -0.004  0.00  0.00    +0.211 A 
ATOM      6  C   UNL     1       0.239  -2.770  -0.009  0.00  0.00    +0.159 A 
ATOM      7  N   UNL     1       1.302  -1.971  -0.011  0.00  0.00    -0.176 NA
ATOM      8  C   UNL     1       1.194  -0.660  -0.013  0.00  0.00    +0.353 A 
ATOM      9  O   UNL     1       2.324   0.070  -0.021  0.00  0.00    -0.244 OA
ENDROOT
BRANCH   6  10
ATOM     10  N   UNL     1       0.386  -4.128  -0.013  0.00  0.00    -0.324 N 
ATOM     11  H   UNL     1      -0.395  -4.700  -0.085  0.00  0.00    +0.148 HD
BRANCH  10  12
ATOM     12  C   UNL     1       1.721  -4.721   0.093  0.00  0.00    +0.072 C 
ATOM     13  C   UNL     1       2.357  -4.796  -1.297  0.00  0.00    +0.022 C 
ATOM     14  C   UNL     1       3.752  -5.415  -1.187  0.00  0.00    +0.002 C 
ATOM     15  C   UNL     1       3.640  -6.823  -0.601  0.00  0.00    +0.000 C 
ATOM     16  C   UNL     1       3.004  -6.748   0.789  0.00  0.00    +0.002 C 
ATOM     17  C   UNL     1       1.609  -6.130   0.679  0.00  0.00    +0.022 C 
ENDBRANCH  10  12
ENDBRANCH   6  10
BRANCH   5  18
ATOM     18  N   UNL     1      -2.196  -2.892  -0.001  0.00  0.00    -0.022 NA
ATOM     19  O   UNL     1      -3.287  -2.360   0.100  0.00  0.00    -0.143 OA
ENDBRANCH   5  18
TORSDOF 3
