REMARK  Name = ZINC40083022
REMARK  14 active torsions:
REMARK  status: ('A' for Active; 'I' for Inactive)
REMARK    1  A    between atoms: C_1  and  C_2
REMARK    2  A    between atoms: C_4  and  O_33
REMARK    3  A    between atoms: C_7  and  C_8
REMARK    4  A    between atoms: C_8  and  C_10
REMARK    5  A    between atoms: N_14  and  C_26
REMARK    6  A    between atoms: C_15  and  C_17
REMARK    7  A    between atoms: C_22  and  N_23
REMARK    8  A    between atoms: C_26  and  C_27
REMARK    9  A    between atoms: C_27  and  O_28
REMARK   10  A    between atoms: O_28  and  C_29
REMARK   11  A    between atoms: C_29  and  C_30
REMARK   12  A    between atoms: C_30  and  O_31
REMARK   13  A    between atoms: O_33  and  C_34
REMARK   14  A    between atoms: C_34  and  C_35
REMARK                            x       y       z     vdW  Elec       q    Type
REMARK                         _______ _______ _______ _____ _____    ______ ____
ROOT
ATOM      1  C   UNL     1       0.029  -0.929   3.435  0.00  0.00    +0.076 C 
ATOM      2  C   UNL     1      -0.070  -0.521   4.721  0.00  0.00    +0.249 C 
ATOM      3  C   UNL     1      -0.092  -1.705   5.606  0.00  0.00    +0.288 C 
ATOM      4  O   UNL     1      -0.175  -1.669   6.817  0.00  0.00    -0.266 OA
ATOM      5  N   UNL     1      -0.008  -2.829   4.871  0.00  0.00    -0.281 N 
ATOM      6  C   UNL     1       0.068  -2.439   3.458  0.00  0.00    +0.147 C 
ATOM      7  O   UNL     1      -0.137   0.766   5.133  0.00  0.00    -0.282 OA
ENDROOT
BRANCH   6   8
ATOM      8  C   UNL     1       1.358  -2.933   2.856  0.00  0.00    +0.008 A 
ATOM      9  C   UNL     1       2.440  -3.209   3.671  0.00  0.00    +0.008 A 
ATOM     10  C   UNL     1       3.624  -3.663   3.119  0.00  0.00    +0.000 A 
ATOM     11  C   UNL     1       3.725  -3.841   1.751  0.00  0.00    +0.002 A 
ATOM     12  C   UNL     1       2.643  -3.566   0.937  0.00  0.00    +0.033 A 
ATOM     13  C   UNL     1       1.458  -3.117   1.489  0.00  0.00    +0.131 A 
BRANCH  13  14
ATOM     14  N   UNL     1       0.297  -2.827   0.617  0.00  0.00    +0.057 N 
ATOM     15  O   UNL     1       0.375  -3.014  -0.575  0.00  0.00    -0.126 OA
ATOM     16  O   UNL     1      -0.729  -2.405   1.097  0.00  0.00    -0.126 OA
ENDBRANCH  13  14
ENDBRANCH   6   8
BRANCH   1  17
ATOM     17  C   UNL     1       0.082  -0.071   2.247  0.00  0.00    +0.195 C 
ATOM     18  O   UNL     1       1.153   0.187   1.730  0.00  0.00    -0.287 OA
BRANCH  17  25
ATOM     19  C   UNL     1       0.224   1.816   0.059  0.00  0.00    +0.044 C 
ATOM     20  C   UNL     1      -1.109   1.392   0.620  0.00  0.00    -0.036 A 
ATOM     21  C   UNL     1      -2.273   1.898   0.089  0.00  0.00    +0.049 A 
ATOM     22  C   UNL     1      -3.503   1.508   0.606  0.00  0.00    +0.121 A 
ATOM     23  C   UNL     1      -3.563   0.605   1.662  0.00  0.00    +0.046 A 
ATOM     24  C   UNL     1      -2.403   0.094   2.200  0.00  0.00    +0.015 A 
ATOM     25  C   UNL     1      -1.164   0.480   1.678  0.00  0.00    +0.025 A 
BRANCH  22  26
ATOM     26  O   UNL     1      -4.649   2.010   0.080  0.00  0.00    -0.488 OA
BRANCH  26  27
ATOM     27  C   UNL     1      -5.878   1.567   0.660  0.00  0.00    +0.256 C 
BRANCH  27  28
ATOM     28  C   UNL     1      -7.033   2.226  -0.049  0.00  0.00    +0.006 C 
ATOM     29  C   UNL     1      -8.077   1.516  -0.400  0.00  0.00    +0.007 C 
ENDBRANCH  27  28
ENDBRANCH  26  27
ENDBRANCH  22  26
ENDBRANCH  17  25
ENDBRANCH   1  17
BRANCH   5  30
ATOM     30  C   UNL     1       0.001  -4.199   5.389  0.00  0.00    +0.137 C 
BRANCH  30  31
ATOM     31  C   UNL     1      -1.435  -4.722   5.473  0.00  0.00    +0.179 C 
BRANCH  31  32
ATOM     32  O   UNL     1      -1.984  -4.818   4.157  0.00  0.00    -0.376 OA
BRANCH  32  33
ATOM     33  C   UNL     1      -3.329  -5.299   4.123  0.00  0.00    +0.187 C 
BRANCH  33  34
ATOM     34  C   UNL     1      -3.812  -5.362   2.672  0.00  0.00    +0.184 C 
BRANCH  34  35
ATOM     35  O   UNL     1      -3.045  -6.332   1.956  0.00  0.00    -0.393 OA
ATOM     36  H   UNL     1      -3.297  -6.425   1.028  0.00  0.00    +0.209 HD
ENDBRANCH  34  35
ENDBRANCH  33  34
ENDBRANCH  32  33
ENDBRANCH  31  32
ENDBRANCH  30  31
ENDBRANCH   5  30
TORSDOF 13
