REMARK  Name = ZINC36342418
REMARK  8 active torsions:
REMARK  status: ('A' for Active; 'I' for Inactive)
REMARK    1  A    between atoms: C_1  and  C_2
REMARK    2  A    between atoms: C_2  and  O_3
REMARK    3  A    between atoms: O_3  and  C_4
REMARK    4  A    between atoms: C_4  and  C_6
REMARK    5  A    between atoms: N_12  and  C_13
REMARK    6  A    between atoms: C_13  and  C_14
REMARK    7  A    between atoms: C_17  and  C_29
REMARK    8  A    between atoms: C_20  and  C_22
REMARK                            x       y       z     vdW  Elec       q    Type
REMARK                         _______ _______ _______ _____ _____    ______ ____
ROOT
ATOM      1  C   UNL     1      -0.158  -5.714   2.452  0.00  0.00    +0.219 C 
ATOM      2  O   UNL     1       0.837  -6.408   2.464  0.00  0.00    -0.276 OA
ATOM      3  N   UNL     1      -1.378  -6.286   2.429  0.00  0.00    -0.187 N 
ATOM      4  C   UNL     1      -1.645  -7.733   2.421  0.00  0.00    +0.137 C 
ATOM      5  C   UNL     1      -3.184  -7.816   2.393  0.00  0.00    +0.087 C 
ATOM      6  C   UNL     1      -3.627  -6.370   2.388  0.00  0.00    +0.072 C 
ATOM      7  N   UNL     1      -2.592  -5.603   2.413  0.00  0.00    -0.181 NA
ENDROOT
BRANCH   4   8
ATOM      8  C   UNL     1      -1.054  -8.375   1.193  0.00  0.00    -0.021 A 
ATOM      9  C   UNL     1      -1.095  -7.713  -0.019  0.00  0.00    +0.009 A 
ATOM     10  C   UNL     1      -0.553  -8.298  -1.149  0.00  0.00    +0.050 A 
ATOM     11  C   UNL     1       0.033  -9.551  -1.067  0.00  0.00    +0.166 A 
ATOM     12  C   UNL     1       0.074 -10.218   0.154  0.00  0.00    +0.167 A 
ATOM     13  C   UNL     1      -0.465  -9.623   1.283  0.00  0.00    +0.055 A 
ATOM     14  O   UNL     1       0.696 -11.420  -0.026  0.00  0.00    -0.453 OA
ATOM     15  C   UNL     1       0.669 -11.658  -1.446  0.00  0.00    +0.466 C 
ATOM     16  O   UNL     1       0.628 -10.335  -2.013  0.00  0.00    -0.453 OA
ENDBRANCH   4   8
BRANCH   6  17
ATOM     17  C   UNL     1      -5.027  -5.910   2.363  0.00  0.00    +0.033 A 
ATOM     18  C   UNL     1      -6.072  -6.838   2.349  0.00  0.00    +0.012 A 
ATOM     19  C   UNL     1      -7.379  -6.400   2.326  0.00  0.00    +0.001 A 
ATOM     20  C   UNL     1      -7.660  -5.044   2.317  0.00  0.00    +0.003 A 
ATOM     21  C   UNL     1      -6.633  -4.118   2.331  0.00  0.00    +0.039 A 
ATOM     22  C   UNL     1      -5.317  -4.541   2.360  0.00  0.00    +0.132 A 
ATOM     23  F   UNL     1      -4.315  -3.636   2.380  0.00  0.00    -0.205 F 
ENDBRANCH   6  17
BRANCH   1  24
ATOM     24  C   UNL     1      -0.029  -4.213   2.463  0.00  0.00    +0.022 C 
BRANCH  24  30
ATOM     25  C   UNL     1       1.522  -2.390   2.331  0.00  0.00    +0.043 C 
ATOM     26  C   UNL     1       3.003  -2.009   2.275  0.00  0.00    -0.004 C 
ATOM     27  C   UNL     1       3.685  -2.445   3.575  0.00  0.00    -0.003 C 
ATOM     28  C   UNL     1       3.480  -3.950   3.767  0.00  0.00    -0.019 C 
ATOM     29  C   UNL     1       1.981  -4.259   3.768  0.00  0.00    -0.077 C 
ATOM     30  N   UNL     1       1.393  -3.843   2.489  0.00  0.00    +0.394 N 
ATOM     31  H   UNL     1       1.872  -4.307   1.732  0.00  0.00    -0.080 HD
BRANCH  25  32
ATOM     32  C   UNL     1       0.845  -1.962   1.054  0.00  0.00    +0.293 C 
ATOM     33  O   UNL     1       0.774  -2.728   0.122  0.00  0.00    -0.253 OA
BRANCH  32  34
ATOM     34  O   UNL     1       0.322  -0.730   0.952  0.00  0.00    -0.466 OA
BRANCH  34  36
ATOM     35  C   UNL     1      -0.836   1.041  -0.216  0.00  0.00    +0.048 C 
ATOM     36  C   UNL     1      -0.304  -0.392  -0.288  0.00  0.00    +0.228 C 
ENDBRANCH  34  36
ENDBRANCH  32  34
ENDBRANCH  25  32
ENDBRANCH  24  30
ENDBRANCH   1  24
TORSDOF 7
