REMARK  Name = ZINC39412510
REMARK  7 active torsions:
REMARK  status: ('A' for Active; 'I' for Inactive)
REMARK    1  A    between atoms: C_1  and  C_2
REMARK    2  A    between atoms: C_5  and  S_14
REMARK    3  A    between atoms: N_7  and  C_8
REMARK    4  A    between atoms: S_14  and  C_15
REMARK    5  A    between atoms: C_15  and  C_16
REMARK    6  A    between atoms: N_18  and  N_19
REMARK    7  A    between atoms: C_20  and  C_21
REMARK                            x       y       z     vdW  Elec       q    Type
REMARK                         _______ _______ _______ _____ _____    ______ ____
ROOT
ATOM      1  C   UNL     1      -4.057  -2.614   1.404  0.00  0.00    +0.242 C 
ATOM      2  O   UNL     1      -4.023  -3.630   2.064  0.00  0.00    -0.273 OA
ATOM      3  N   UNL     1      -5.238  -2.021   1.139  0.00  0.00    -0.206 N 
ATOM      4  H   UNL     1      -5.265  -1.208   0.611  0.00  0.00    +0.177 HD
ENDROOT
BRANCH   3   5
ATOM      5  N   UNL     1      -6.427  -2.579   1.627  0.00  0.00    -0.188 NA
ATOM      6  C   UNL     1      -7.574  -2.004   1.370  0.00  0.00    +0.136 C 
BRANCH   6   7
ATOM      7  C   UNL     1      -8.764  -2.562   1.859  0.00  0.00    +0.000 C 
ATOM      8  C   UNL     1     -10.058  -2.082   1.672  0.00  0.00    +0.004 A 
ATOM      9  C   UNL     1     -10.570  -0.960   0.984  0.00  0.00    +0.010 A 
ATOM     10  C   UNL     1     -11.908  -0.733   0.970  0.00  0.00    +0.001 A 
ATOM     11  C   UNL     1     -12.803  -1.585   1.622  0.00  0.00    +0.002 A 
ATOM     12  C   UNL     1     -12.384  -2.679   2.301  0.00  0.00    +0.026 A 
ATOM     13  C   UNL     1     -10.998  -2.984   2.362  0.00  0.00    +0.043 A 
ATOM     14  N   UNL     1     -10.347  -3.968   2.946  0.00  0.00    -0.380 N 
ATOM     15  C   UNL     1      -8.911  -3.816   2.692  0.00  0.00    +0.150 C 
ATOM     16  H   UNL     1     -10.754  -4.683   3.459  0.00  0.00    +0.160 HD
ENDBRANCH   6   7
ENDBRANCH   3   5
BRANCH   1  17
ATOM     17  C   UNL     1      -2.778  -2.013   0.879  0.00  0.00    +0.170 C 
BRANCH  17  18
ATOM     18  S   UNL     1      -1.372  -3.034   1.400  0.00  0.00    -0.108 S 
BRANCH  18  23
ATOM     19  C   UNL     1       0.039   1.503   0.005  0.00  0.00    +0.085 C 
ATOM     20  C   UNL     1       0.027  -0.004  -0.000  0.00  0.00    +0.119 C 
ATOM     21  N   UNL     1      -0.068  -0.717  -1.062  0.00  0.00    -0.174 NA
ATOM     22  N   UNL     1      -0.053  -2.086  -0.768  0.00  0.00    -0.237 N 
ATOM     23  C   UNL     1       0.070  -2.187   0.697  0.00  0.00    +0.241 C 
ATOM     24  N   UNL     1       0.124  -0.784   1.142  0.00  0.00    -0.258 N 
ATOM     25  H   UNL     1      -0.112  -2.819  -1.401  0.00  0.00    +0.171 HD
BRANCH  24  26
ATOM     26  C   UNL     1       0.245  -0.329   2.457  0.00  0.00    +0.037 A 
ATOM     27  C   UNL     1       1.415  -0.562   3.170  0.00  0.00    +0.023 A 
ATOM     28  C   UNL     1       1.531  -0.110   4.469  0.00  0.00    +0.002 A 
ATOM     29  C   UNL     1       0.485   0.573   5.062  0.00  0.00    +0.000 A 
ATOM     30  C   UNL     1      -0.681   0.807   4.356  0.00  0.00    +0.002 A 
ATOM     31  C   UNL     1      -0.802   0.363   3.054  0.00  0.00    +0.023 A 
ENDBRANCH  24  26
ENDBRANCH  18  23
ENDBRANCH  17  18
ENDBRANCH   1  17
TORSDOF 6
