REMARK  Name = ZINC09836177
REMARK  5 active torsions:
REMARK  status: ('A' for Active; 'I' for Inactive)
REMARK    1  A    between atoms: C_4  and  N_7
REMARK    2  A    between atoms: C_17  and  C_18
REMARK    3  A    between atoms: C_17  and  O_31
REMARK    4  A    between atoms: N_20  and  C_21
REMARK    5  A    between atoms: C_21  and  C_22
REMARK                            x       y       z     vdW  Elec       q    Type
REMARK                         _______ _______ _______ _____ _____    ______ ____
ROOT
ATOM      1  N   UNL     1       1.216  -2.624   0.235  0.00  0.00    -0.214 N 
ATOM      2  C   UNL     1       0.658  -3.700   0.821  0.00  0.00    +0.314 C 
ATOM      3  O   UNL     1       1.305  -4.307   1.652  0.00  0.00    -0.252 OA
ATOM      4  N   UNL     1      -0.575  -4.132   0.530  0.00  0.00    -0.269 N 
ATOM      5  C   UNL     1      -1.398  -3.507  -0.407  0.00  0.00    +0.043 A 
ATOM      6  C   UNL     1      -2.670  -3.996  -0.673  0.00  0.00    +0.025 A 
ATOM      7  C   UNL     1      -3.470  -3.364  -1.605  0.00  0.00    +0.017 A 
ATOM      8  C   UNL     1      -3.009  -2.245  -2.276  0.00  0.00    +0.018 A 
ATOM      9  C   UNL     1      -1.741  -1.753  -2.015  0.00  0.00    +0.025 A 
ATOM     10  C   UNL     1      -0.943  -2.382  -1.086  0.00  0.00    +0.034 A 
ATOM     11  C   UNL     1       0.447  -1.877  -0.774  0.00  0.00    +0.247 C 
ATOM     12 BR   UNL     1      -4.112  -1.387  -3.551  0.00  0.00    -0.050 Br
ATOM     13  H   UNL     1      -0.912  -4.916   0.993  0.00  0.00    +0.156 HD
ENDROOT
BRANCH   1  17
ATOM     14  C   UNL     1       5.071  -1.424   1.263  0.00  0.00    +0.000 A 
ATOM     15  C   UNL     1       3.994  -1.020   2.031  0.00  0.00    +0.002 A 
ATOM     16  C   UNL     1       2.715  -1.416   1.693  0.00  0.00    +0.024 A 
ATOM     17  C   UNL     1       2.511  -2.221   0.581  0.00  0.00    +0.041 A 
ATOM     18  C   UNL     1       3.594  -2.630  -0.185  0.00  0.00    +0.024 A 
ATOM     19  C   UNL     1       4.870  -2.226   0.154  0.00  0.00    +0.002 A 
ENDBRANCH   1  17
BRANCH  11  20
ATOM     20  C   UNL     1       0.328  -0.450  -0.305  0.00  0.00    +0.269 C 
ATOM     21  O   UNL     1       0.695   0.457  -1.022  0.00  0.00    -0.270 OA
ATOM     22  N   UNL     1      -0.186  -0.181   0.912  0.00  0.00    -0.307 N 
ATOM     23  H   UNL     1      -0.479  -0.906   1.485  0.00  0.00    +0.149 HD
BRANCH  22  24
ATOM     24  C   UNL     1      -0.301   1.207   1.368  0.00  0.00    +0.139 C 
BRANCH  24  25
ATOM     25  C   UNL     1      -0.901   1.233   2.750  0.00  0.00    -0.027 A 
ATOM     26  C   UNL     1      -0.079   1.179   3.860  0.00  0.00    +0.009 A 
ATOM     27  C   UNL     1      -0.625   1.204   5.130  0.00  0.00    +0.050 A 
ATOM     28  C   UNL     1      -1.998   1.283   5.293  0.00  0.00    +0.166 A 
ATOM     29  C   UNL     1      -2.826   1.337   4.174  0.00  0.00    +0.167 A 
ATOM     30  C   UNL     1      -2.272   1.317   2.905  0.00  0.00    +0.054 A 
ATOM     31  O   UNL     1      -4.123   1.410   4.595  0.00  0.00    -0.453 OA
ATOM     32  C   UNL     1      -4.105   0.988   5.971  0.00  0.00    +0.466 C 
ATOM     33  O   UNL     1      -2.776   1.322   6.414  0.00  0.00    -0.453 OA
ENDBRANCH  24  25
ENDBRANCH  22  24
ENDBRANCH  11  20
BRANCH  11  34
ATOM     34  O   UNL     1       1.198  -1.876  -1.990  0.00  0.00    -0.360 OA
ATOM     35  H   UNL     1       0.796  -1.359  -2.700  0.00  0.00    +0.213 HD
ENDBRANCH  11  34
TORSDOF 5
