REMARK  Name = ZINC58421596
REMARK  3 active torsions:
REMARK  status: ('A' for Active; 'I' for Inactive)
REMARK    1  A    between atoms: C_2  and  S_14
REMARK    2  A    between atoms: N_6  and  C_7
REMARK    3  A    between atoms: S_14  and  N_17
REMARK                            x       y       z     vdW  Elec       q    Type
REMARK                         _______ _______ _______ _____ _____    ______ ____
ROOT
ATOM      1  C   UNL     1      -0.016   1.317   0.009  0.00  0.00    +0.149 A 
ATOM      2  C   UNL     1       1.182   1.950   0.001  0.00  0.00    +0.163 A 
ATOM      3  S   UNL     1       2.296   0.554  -0.017  0.00  0.00    -0.033 S 
ATOM      4  C   UNL     1       1.138  -0.668  -0.012  0.00  0.00    +0.160 A 
ATOM      5  N   UNL     1       0.002  -0.004   0.002  0.00  0.00    -0.231 NA
ATOM      6  N   UNL     1       1.335  -2.040  -0.022  0.00  0.00    -0.321 N 
ATOM      7  H   UNL     1       2.235  -2.401  -0.032  0.00  0.00    +0.148 HD
ENDROOT
BRANCH   6   8
ATOM      8  C   UNL     1       0.182  -2.945  -0.015  0.00  0.00    +0.072 C 
ATOM      9  C   UNL     1      -0.290  -3.171  -1.426  0.00  0.00    +0.022 C 
ATOM     10  C   UNL     1      -1.818  -3.349  -1.514  0.00  0.00    +0.002 C 
ATOM     11  C   UNL     1      -2.383  -4.229  -0.383  0.00  0.00    +0.000 C 
ATOM     12  C   UNL     1      -1.520  -5.429  -0.101  0.00  0.00    +0.000 C 
ATOM     13  C   UNL     1      -0.551  -5.076   1.046  0.00  0.00    +0.002 C 
ATOM     14  C   UNL     1       0.594  -4.303   0.587  0.00  0.00    +0.022 C 
ENDBRANCH   6   8
BRANCH   2  15
ATOM     15  S   UNL     1       1.542   3.674   0.007  0.00  0.00    +0.064 S 
ATOM     16  O   UNL     1       2.839   3.820  -0.556  0.00  0.00    -0.153 OA
ATOM     17  O   UNL     1       0.401   4.329  -0.530  0.00  0.00    -0.153 OA
BRANCH  15  18
ATOM     18  N   UNL     1       1.657   4.146   1.590  0.00  0.00    -0.203 NA
ATOM     19  H   UNL     1       1.529   3.497   2.300  0.00  0.00    +0.144 HD
ATOM     20  H   UNL     1       1.852   5.071   1.808  0.00  0.00    +0.144 HD
ENDBRANCH  15  18
ENDBRANCH   2  15
TORSDOF 3
