REMARK  Name = ZINC09645883
REMARK  10 active torsions:
REMARK  status: ('A' for Active; 'I' for Inactive)
REMARK    1  A    between atoms: C_1  and  C_2
REMARK    2  A    between atoms: C_2  and  O_3
REMARK    3  A    between atoms: O_3  and  C_4
REMARK    4  A    between atoms: C_4  and  C_6
REMARK    5  A    between atoms: C_7  and  S_17
REMARK    6  A    between atoms: C_8  and  C_11
REMARK    7  A    between atoms: S_17  and  N_20
REMARK    8  A    between atoms: N_20  and  C_21
REMARK    9  A    between atoms: C_24  and  C_28
REMARK   10  A    between atoms: C_26  and  C_27
REMARK                            x       y       z     vdW  Elec       q    Type
REMARK                         _______ _______ _______ _____ _____    ______ ____
ROOT
ATOM      1  C   UNL     1      -0.919   4.191  -1.522  0.00  0.00    +0.123 A 
ATOM      2  C   UNL     1      -1.625   3.005  -1.618  0.00  0.00    +0.137 A 
ATOM      3  C   UNL     1      -2.136   2.672  -2.858  0.00  0.00    +0.017 A 
ATOM      4  C   UNL     1      -1.909   3.531  -3.914  0.00  0.00    +0.056 A 
ATOM      5  S   UNL     1      -0.984   4.808  -3.193  0.00  0.00    -0.088 S 
ENDROOT
BRANCH   3   6
ATOM      6  C   UNL     1      -2.911   1.421  -3.050  0.00  0.00    -0.015 A 
ATOM      7  C   UNL     1      -2.294   0.183  -2.878  0.00  0.00    +0.008 A 
ATOM      8  C   UNL     1      -3.021  -0.977  -3.052  0.00  0.00    +0.001 A 
ATOM      9  C   UNL     1      -4.357  -0.912  -3.407  0.00  0.00    +0.000 A 
ATOM     10  C   UNL     1      -4.972   0.314  -3.584  0.00  0.00    +0.001 A 
ATOM     11  C   UNL     1      -4.256   1.480  -3.407  0.00  0.00    +0.008 A 
ENDBRANCH   3   6
BRANCH   2  12
ATOM     12  S   UNL     1      -1.868   1.965  -0.216  0.00  0.00    +0.074 S 
ATOM     13  O   UNL     1      -0.609   1.859   0.434  0.00  0.00    -0.150 OA
ATOM     14  O   UNL     1      -2.587   0.828  -0.674  0.00  0.00    -0.150 OA
BRANCH  12  15
ATOM     15  N   UNL     1      -2.872   2.772   0.824  0.00  0.00    -0.216 N 
ATOM     16  H   UNL     1      -2.566   2.996   1.717  0.00  0.00    +0.174 HD
BRANCH  15  17
ATOM     17  C   UNL     1      -4.156   3.136   0.414  0.00  0.00    +0.051 A 
ATOM     18  C   UNL     1      -4.878   2.305  -0.433  0.00  0.00    +0.025 A 
ATOM     19  C   UNL     1      -6.148   2.667  -0.836  0.00  0.00    +0.005 A 
ATOM     20  C   UNL     1      -6.701   3.857  -0.398  0.00  0.00    -0.050 A 
ATOM     21  C   UNL     1      -5.985   4.687   0.444  0.00  0.00    +0.008 A 
ATOM     22  C   UNL     1      -4.716   4.328   0.856  0.00  0.00    -0.028 A 
ATOM     23  C   UNL     1      -3.939   5.230   1.779  0.00  0.00    +0.046 C 
ATOM     24  C   UNL     1      -8.088   4.249  -0.840  0.00  0.00    +0.044 C 
ENDBRANCH  15  17
ENDBRANCH  12  15
ENDBRANCH   2  12
BRANCH   1  25
ATOM     25  C   UNL     1      -0.280   4.786  -0.346  0.00  0.00    +0.348 C 
ATOM     26  O   UNL     1      -0.273   4.186   0.712  0.00  0.00    -0.244 OA
BRANCH  25  27
ATOM     27  O   UNL     1       0.300   6.001  -0.437  0.00  0.00    -0.461 OA
BRANCH  27  29
ATOM     28  C   UNL     1       1.516   7.905   0.472  0.00  0.00    +0.048 C 
ATOM     29  C   UNL     1       0.914   6.530   0.768  0.00  0.00    +0.229 C 
ENDBRANCH  27  29
ENDBRANCH  25  27
ENDBRANCH   1  25
TORSDOF 7
