REMARK  Name = ZINC67081865
REMARK  10 active torsions:
REMARK  status: ('A' for Active; 'I' for Inactive)
REMARK    1  A    between atoms: C_1  and  C_2
REMARK    2  A    between atoms: C_2  and  C_4
REMARK    3  A    between atoms: C_2  and  C_24
REMARK    4  A    between atoms: C_4  and  N_5
REMARK    5  A    between atoms: N_5  and  C_6
REMARK    6  A    between atoms: N_9  and  C_10
REMARK    7  A    between atoms: C_10  and  C_12
REMARK    8  A    between atoms: C_10  and  C_21
REMARK    9  A    between atoms: C_21  and  C_22
REMARK   10  A    between atoms: C_21  and  C_23
REMARK                            x       y       z     vdW  Elec       q    Type
REMARK                         _______ _______ _______ _____ _____    ______ ____
ROOT
ATOM      1  N   UNL     1       2.148  -0.104   1.172  0.00  0.00    -0.288 N 
ATOM      2  C   UNL     1       2.569   1.177   1.745  0.00  0.00    +0.133 C 
ATOM      3  C   UNL     1       3.053  -0.907   0.580  0.00  0.00    +0.303 C 
ATOM      4  O   UNL     1       2.704  -1.970   0.104  0.00  0.00    -0.253 OA
ATOM      5  N   UNL     1       4.346  -0.533   0.515  0.00  0.00    -0.289 N 
ATOM      6  H   UNL     1       4.625   0.315   0.895  0.00  0.00    +0.151 HD
ENDROOT
BRANCH   1   7
ATOM      7  C   UNL     1       0.742  -0.511   1.242  0.00  0.00    +0.117 C 
BRANCH   7   9
ATOM      8  C   UNL     1      -0.019   1.526   0.010  0.00  0.00    +0.014 C 
ATOM      9  C   UNL     1       0.002  -0.004   0.002  0.00  0.00    +0.033 C 
BRANCH   9  10
ATOM     10  C   UNL     1      -1.412  -0.526   0.013  0.00  0.00    -0.043 A 
ATOM     11  C   UNL     1      -2.259  -0.204   1.056  0.00  0.00    +0.004 A 
ATOM     12  C   UNL     1      -3.556  -0.683   1.066  0.00  0.00    +0.000 A 
ATOM     13  C   UNL     1      -4.006  -1.482   0.032  0.00  0.00    +0.000 A 
ATOM     14  C   UNL     1      -3.159  -1.803  -1.012  0.00  0.00    +0.000 A 
ATOM     15  C   UNL     1      -1.863  -1.321  -1.024  0.00  0.00    +0.004 A 
ENDBRANCH   9  10
ENDBRANCH   7   9
ENDBRANCH   1   7
BRANCH   5  16
ATOM     16  C   UNL     1       5.331  -1.407  -0.128  0.00  0.00    +0.145 C 
BRANCH  16  17
ATOM     17  C   UNL     1       6.491  -0.580  -0.619  0.00  0.00    +0.158 A 
ATOM     18  N   UNL     1       7.106   0.363   0.047  0.00  0.00    -0.132 NA
ATOM     19  N   UNL     1       8.052   0.868  -0.664  0.00  0.00    -0.129 NA
ATOM     20  C   UNL     1       8.091   0.263  -1.840  0.00  0.00    +0.161 A 
ATOM     21  N   UNL     1       7.094  -0.681  -1.835  0.00  0.00    -0.285 N 
ATOM     22  C   UNL     1       6.890  -1.477  -2.924  0.00  0.00    +0.094 A 
ATOM     23  C   UNL     1       7.665  -1.349  -4.021  0.00  0.00    +0.018 A 
ATOM     24  C   UNL     1       8.695  -0.394  -4.055  0.00  0.00    +0.005 A 
ATOM     25  C   UNL     1       8.905   0.411  -2.979  0.00  0.00    +0.048 A 
ENDBRANCH  16  17
BRANCH  16  26
ATOM     26  C   UNL     1       5.833  -2.440   0.882  0.00  0.00    +0.011 C 
ATOM     27  C   UNL     1       6.861  -3.353   0.210  0.00  0.00    +0.009 C 
ATOM     28  C   UNL     1       6.484  -1.722   2.065  0.00  0.00    +0.009 C 
ENDBRANCH  16  26
ENDBRANCH   5  16
TORSDOF 6
