REMARK  Name = ZINC06282664
REMARK  10 active torsions:
REMARK  status: ('A' for Active; 'I' for Inactive)
REMARK    1  A    between atoms: C_1  and  O_2
REMARK    2  A    between atoms: O_2  and  C_3
REMARK    3  A    between atoms: C_10  and  C_15
REMARK    4  A    between atoms: C_15  and  C_17
REMARK    5  A    between atoms: C_15  and  N_68
REMARK    6  A    between atoms: N_21  and  C_22
REMARK    7  A    between atoms: C_27  and  C_28
REMARK    8  A    between atoms: C_27  and  N_68
REMARK    9  A    between atoms: C_34  and  C_35
REMARK   10  A    between atoms: C_34  and  N_68
REMARK                            x       y       z     vdW  Elec       q    Type
REMARK                         _______ _______ _______ _____ _____    ______ ____
ROOT
ATOM      1  C   UNL     1       4.702  -2.065  -1.327  0.00  0.00    +0.040 C 
ENDROOT
BRANCH   1   9
ATOM      2  C   UNL     1       9.477  -2.986  -5.172  0.00  0.00    +0.121 A 
ATOM      3  C   UNL     1       8.709  -3.267  -6.300  0.00  0.00    +0.047 A 
ATOM      4  C   UNL     1       7.334  -3.257  -6.232  0.00  0.00    +0.030 A 
ATOM      5  C   UNL     1       6.699  -2.965  -5.030  0.00  0.00    +0.049 A 
ATOM      6  C   UNL     1       7.471  -2.680  -3.888  0.00  0.00    +0.002 A 
ATOM      7  C   UNL     1       8.867  -2.694  -3.969  0.00  0.00    +0.055 A 
ATOM      8  C   UNL     1       6.790  -2.374  -2.628  0.00  0.00    +0.017 A 
ATOM      9  C   UNL     1       5.434  -2.376  -2.608  0.00  0.00    +0.011 A 
ATOM     10  C   UNL     1       4.706  -2.673  -3.779  0.00  0.00    +0.251 A 
ATOM     11  O   UNL     1       3.487  -2.675  -3.737  0.00  0.00    -0.268 OA
ATOM     12  N   UNL     1       5.322  -2.950  -4.942  0.00  0.00    -0.322 N 
ATOM     13  H   UNL     1       4.790  -3.146  -5.729  0.00  0.00    +0.169 HD
BRANCH   2  15
ATOM     14  C   UNL     1      11.401  -3.311  -6.531  0.00  0.00    +0.277 C 
ATOM     15  O   UNL     1      10.834  -3.001  -5.256  0.00  0.00    -0.495 OA
ENDBRANCH   2  15
ENDBRANCH   1   9
BRANCH   1  16
ATOM     16  C   UNL     1       4.100  -3.330  -0.773  0.00  0.00    +0.143 A 
ATOM     17  N   UNL     1       3.035  -3.951  -1.220  0.00  0.00    -0.115 NA
ATOM     18  N   UNL     1       2.844  -4.991  -0.484  0.00  0.00    -0.023 NA
ATOM     19  N   UNL     1       3.754  -5.046   0.425  0.00  0.00    -0.044 NA
ATOM     20  N   UNL     1       4.547  -4.039   0.280  0.00  0.00    -0.227 N 
BRANCH  20  21
ATOM     21  C   UNL     1       5.716  -3.726   1.106  0.00  0.00    +0.111 C 
ATOM     22  C   UNL     1       6.710  -4.906   1.083  0.00  0.00    +0.027 C 
ATOM     23  C   UNL     1       7.277  -4.952   2.525  0.00  0.00    +0.002 C 
ATOM     24  C   UNL     1       6.039  -4.610   3.391  0.00  0.00    +0.002 C 
ATOM     25  C   UNL     1       5.290  -3.538   2.573  0.00  0.00    +0.027 C 
ENDBRANCH  20  21
ENDBRANCH   1  16
BRANCH   1  26
ATOM     26  N   UNL     1       3.622  -1.100  -1.621  0.00  0.00    +0.397 N 
ATOM     27  H   UNL     1       3.119  -1.408  -2.461  0.00  0.00    -0.079 HD
BRANCH  26  28
ATOM     28  C   UNL     1       2.673  -1.045  -0.488  0.00  0.00    -0.041 C 
BRANCH  28  29
ATOM     29  C   UNL     1       1.474  -0.230  -0.898  0.00  0.00    -0.064 A 
ATOM     30  C   UNL     1       0.394  -0.845  -1.504  0.00  0.00    +0.002 A 
ATOM     31  C   UNL     1      -0.706  -0.097  -1.879  0.00  0.00    +0.000 A 
ATOM     32  C   UNL     1      -0.727   1.266  -1.650  0.00  0.00    +0.000 A 
ATOM     33  C   UNL     1       0.353   1.881  -1.044  0.00  0.00    +0.000 A 
ATOM     34  C   UNL     1       1.453   1.133  -0.668  0.00  0.00    +0.002 A 
ENDBRANCH  28  29
ENDBRANCH  26  28
BRANCH  26  35
ATOM     35  C   UNL     1       4.194   0.240  -1.866  0.00  0.00    -0.001 C 
BRANCH  35  36
ATOM     36  C   UNL     1       4.802   0.260  -3.245  0.00  0.00    +0.089 A 
ATOM     37  C   UNL     1       4.134   0.448  -4.397  0.00  0.00    +0.042 A 
ATOM     38  C   UNL     1       5.089   0.391  -5.438  0.00  0.00    +0.041 A 
ATOM     39  C   UNL     1       6.284   0.172  -4.860  0.00  0.00    +0.195 A 
ATOM     40  O   UNL     1       6.105   0.099  -3.531  0.00  0.00    -0.470 OA
ENDBRANCH  35  36
ENDBRANCH  26  35
ENDBRANCH   1  26
TORSDOF 9
