REMARK  Name = ZINC03573217
REMARK  9 active torsions:
REMARK  status: ('A' for Active; 'I' for Inactive)
REMARK    1  A    between atoms: C_1  and  C_2
REMARK    2  A    between atoms: C_5  and  N_9
REMARK    3  A    between atoms: C_10  and  C_12
REMARK    4  A    between atoms: C_12  and  S_13
REMARK    5  A    between atoms: S_13  and  C_14
REMARK    6  A    between atoms: C_17  and  C_20
REMARK    7  A    between atoms: N_18  and  N_19
REMARK    8  A    between atoms: C_23  and  O_26
REMARK    9  A    between atoms: O_26  and  C_27
REMARK                            x       y       z     vdW  Elec       q    Type
REMARK                         _______ _______ _______ _____ _____    ______ ____
ROOT
ATOM      1  C   UNL     1      -0.358  -8.691  -2.733  0.00  0.00    +0.209 A 
ATOM      2  N   UNL     1      -0.351  -9.369  -1.607  0.00  0.00    -0.121 NA
ATOM      3  N   UNL     1      -0.441 -10.628  -1.849  0.00  0.00    -0.127 NA
ATOM      4  C   UNL     1      -0.510 -10.832  -3.144  0.00  0.00    +0.182 A 
ATOM      5  N   UNL     1      -0.465  -9.597  -3.750  0.00  0.00    -0.224 N 
ENDROOT
BRANCH   4   6
ATOM      6  C   UNL     1      -0.621 -12.140  -3.823  0.00  0.00    +0.021 A 
ATOM      7  C   UNL     1      -0.367 -12.242  -5.192  0.00  0.00    +0.015 A 
ATOM      8  C   UNL     1      -0.471 -13.464  -5.821  0.00  0.00    +0.046 A 
ATOM      9  C   UNL     1      -0.827 -14.593  -5.095  0.00  0.00    +0.127 A 
ATOM     10  C   UNL     1      -1.080 -14.496  -3.733  0.00  0.00    +0.046 A 
ATOM     11  C   UNL     1      -0.973 -13.278  -3.096  0.00  0.00    +0.015 A 
BRANCH   9  12
ATOM     12  O   UNL     1      -0.929 -15.795  -5.719  0.00  0.00    -0.434 OA
BRANCH  12  13
ATOM     13  C   UNL     1      -1.300 -16.915  -4.913  0.00  0.00    +0.541 C 
ATOM     14  F   UNL     1      -0.351 -17.096  -3.901  0.00  0.00    -0.166 F 
ATOM     15  F   UNL     1      -2.554 -16.682  -4.339  0.00  0.00    -0.166 F 
ENDBRANCH  12  13
ENDBRANCH   9  12
ENDBRANCH   4   6
BRANCH   5  16
ATOM     16  N   UNL     1      -0.514  -9.333  -5.089  0.00  0.00    -0.295 N 
ATOM     17  H   UNL     1       0.412  -9.322  -5.490  0.00  0.00    +0.163 HD
ATOM     18  H   UNL     1      -1.107  -9.995  -5.567  0.00  0.00    +0.163 HD
ENDBRANCH   5  16
BRANCH   1  19
ATOM     19  S   UNL     1      -0.257  -6.940  -2.899  0.00  0.00    -0.075 S 
BRANCH  19  20
ATOM     20  C   UNL     1      -0.136  -6.343  -1.191  0.00  0.00    +0.173 C 
BRANCH  20  22
ATOM     21  N   UNL     1       0.057  -4.171  -0.023  0.00  0.00    -0.284 N 
ATOM     22  C   UNL     1      -0.042  -4.839  -1.190  0.00  0.00    +0.228 C 
ATOM     23  O   UNL     1      -0.055  -4.230  -2.238  0.00  0.00    -0.275 OA
ATOM     24  H   UNL     1       0.149  -4.660   0.809  0.00  0.00    +0.155 HD
BRANCH  21  29
ATOM     25  C   UNL     1      -0.064   1.502   0.016  0.00  0.00    +0.044 C 
ATOM     26  C   UNL     1      -0.031  -0.005   0.006  0.00  0.00    -0.049 A 
ATOM     27  C   UNL     1      -0.622  -0.701  -1.033  0.00  0.00    +0.005 A 
ATOM     28  C   UNL     1      -0.594  -2.082  -1.045  0.00  0.00    +0.025 A 
ATOM     29  C   UNL     1       0.028  -2.772  -0.014  0.00  0.00    +0.052 A 
ATOM     30  C   UNL     1       0.621  -2.070   1.029  0.00  0.00    +0.062 A 
ATOM     31  C   UNL     1       0.595  -0.688   1.032  0.00  0.00    +0.025 A 
ATOM     32 CL   UNL     1       1.401  -2.928   2.321  0.00  0.00    -0.082 Cl
ENDBRANCH  21  29
ENDBRANCH  20  22
ENDBRANCH  19  20
ENDBRANCH   1  19
TORSDOF 8
