REMARK  Name = ZINC38547897
REMARK  10 active torsions:
REMARK  status: ('A' for Active; 'I' for Inactive)
REMARK    1  A    between atoms: C_1  and  C_2
REMARK    2  A    between atoms: C_2  and  C_3
REMARK    3  A    between atoms: C_5  and  C_16
REMARK    4  A    between atoms: C_6  and  N_8
REMARK    5  A    between atoms: C_9  and  C_11
REMARK    6  A    between atoms: C_16  and  C_18
REMARK    7  A    between atoms: C_16  and  N_28
REMARK    8  A    between atoms: C_21  and  O_24
REMARK    9  A    between atoms: O_24  and  C_25
REMARK   10  A    between atoms: C_31  and  C_35
REMARK                            x       y       z     vdW  Elec       q    Type
REMARK                         _______ _______ _______ _____ _____    ______ ____
ROOT
ATOM      1  C   UNL     1      -4.422  -1.629  -1.927  0.00  0.00    +0.135 C 
ENDROOT
BRANCH   1   2
ATOM      2  N   UNL     1      -4.029  -1.031  -3.206  0.00  0.00    -0.320 N 
ATOM      3  C   UNL     1      -4.358   0.290  -3.485  0.00  0.00    +0.097 A 
ATOM      4  C   UNL     1      -5.144   1.009  -2.590  0.00  0.00    +0.045 A 
ATOM      5  C   UNL     1      -5.464   2.323  -2.881  0.00  0.00    -0.046 A 
ATOM      6  C   UNL     1      -4.984   2.876  -4.061  0.00  0.00    +0.021 A 
ATOM      7  C   UNL     1      -4.208   2.105  -4.903  0.00  0.00    +0.084 A 
ATOM      8  N   UNL     1      -3.915   0.855  -4.598  0.00  0.00    -0.350 N 
ATOM      9  C   UNL     1      -6.314   3.135  -1.939  0.00  0.00    +0.044 C 
ATOM     10  H   UNL     1      -3.539  -1.557  -3.857  0.00  0.00    +0.148 HD
ATOM     11  H   UNL     1      -3.365   0.336  -5.205  0.00  0.00    +0.166 HD
ENDBRANCH   1   2
BRANCH   1  12
ATOM     12  C   UNL     1      -4.435  -3.131  -2.058  0.00  0.00    -0.023 A 
ATOM     13  C   UNL     1      -3.375  -3.780  -2.664  0.00  0.00    +0.009 A 
ATOM     14  C   UNL     1      -3.384  -5.156  -2.785  0.00  0.00    +0.046 A 
ATOM     15  C   UNL     1      -4.458  -5.886  -2.298  0.00  0.00    +0.127 A 
ATOM     16  C   UNL     1      -5.520  -5.233  -1.690  0.00  0.00    +0.046 A 
ATOM     17  C   UNL     1      -5.503  -3.857  -1.566  0.00  0.00    +0.009 A 
BRANCH  15  18
ATOM     18  O   UNL     1      -4.470  -7.240  -2.416  0.00  0.00    -0.434 OA
BRANCH  18  19
ATOM     19  C   UNL     1      -5.608  -7.927  -1.892  0.00  0.00    +0.541 C 
ATOM     20  F   UNL     1      -5.718  -7.669  -0.522  0.00  0.00    -0.166 F 
ATOM     21  F   UNL     1      -6.763  -7.483  -2.545  0.00  0.00    -0.166 F 
ENDBRANCH  18  19
ENDBRANCH  15  18
ENDBRANCH   1  12
BRANCH   1  24
ATOM     22  C   UNL     1      -1.274  -0.543  -0.207  0.00  0.00    -0.008 A 
ATOM     23  C   UNL     1      -2.134  -0.902  -1.191  0.00  0.00    +0.019 A 
ATOM     24  C   UNL     1      -3.437  -1.226  -0.860  0.00  0.00    +0.006 A 
ATOM     25  C   UNL     1      -3.814  -1.175   0.448  0.00  0.00    +0.078 A 
ATOM     26  S   UNL     1      -2.302  -0.664   1.248  0.00  0.00    -0.078 S 
BRANCH  25  27
ATOM     27  N   UNL     1      -5.058  -1.454   1.017  0.00  0.00    -0.273 N 
ATOM     28  C   UNL     1      -5.231  -1.343   2.349  0.00  0.00    +0.284 C 
ATOM     29  O   UNL     1      -4.303  -0.998   3.056  0.00  0.00    -0.266 OA
ATOM     30  H   UNL     1      -5.798  -1.729   0.453  0.00  0.00    +0.156 HD
BRANCH  28  31
ATOM     31  C   UNL     1      -6.538  -1.636   2.945  0.00  0.00    +0.189 A 
ATOM     32  C   UNL     1      -6.849  -1.558   4.273  0.00  0.00    +0.054 A 
ATOM     33  C   UNL     1      -8.200  -1.923   4.392  0.00  0.00    +0.042 A 
ATOM     34  C   UNL     1      -8.647  -2.204   3.149  0.00  0.00    +0.196 A 
ATOM     35  O   UNL     1      -7.644  -2.025   2.279  0.00  0.00    -0.458 OA
ENDBRANCH  28  31
ENDBRANCH  25  27
BRANCH  22  37
ATOM     36  C   UNL     1       0.282   1.364  -0.507  0.00  0.00    +0.009 C 
ATOM     37  C   UNL     1       0.176  -0.150  -0.313  0.00  0.00    +0.039 C 
ENDBRANCH  22  37
ENDBRANCH   1  24
TORSDOF 8
