REMARK  Name = ZINC58434953
REMARK  8 active torsions:
REMARK  status: ('A' for Active; 'I' for Inactive)
REMARK    1  A    between atoms: C_1  and  C_2
REMARK    2  A    between atoms: C_2  and  O_3
REMARK    3  A    between atoms: O_3  and  C_4
REMARK    4  A    between atoms: C_9  and  C_10
REMARK    5  A    between atoms: N_12  and  C_13
REMARK    6  A    between atoms: C_18  and  C_19
REMARK    7  A    between atoms: C_19  and  N_20
REMARK    8  A    between atoms: C_24  and  C_27
REMARK                            x       y       z     vdW  Elec       q    Type
REMARK                         _______ _______ _______ _____ _____    ______ ____
ROOT
ATOM      1  C   UNL     1       3.076  -1.123  -5.604  0.00  0.00    +0.035 A 
ATOM      2  C   UNL     1       3.011   0.259  -5.490  0.00  0.00    +0.023 A 
ATOM      3  C   UNL     1       3.478   1.058  -6.515  0.00  0.00    +0.002 A 
ATOM      4  C   UNL     1       4.012   0.483  -7.654  0.00  0.00    +0.000 A 
ATOM      5  C   UNL     1       4.078  -0.893  -7.771  0.00  0.00    +0.003 A 
ATOM      6  C   UNL     1       3.618  -1.698  -6.747  0.00  0.00    -0.043 A 
ENDROOT
BRANCH   1   9
ATOM      7  C   UNL     1       1.532  -1.551  -3.846  0.00  0.00    +0.252 C 
ATOM      8  O   UNL     1       1.027  -0.462  -4.040  0.00  0.00    -0.270 OA
ATOM      9  N   UNL     1       2.603  -1.935  -4.568  0.00  0.00    -0.281 N 
ATOM     10  H   UNL     1       3.047  -2.775  -4.369  0.00  0.00    +0.155 HD
BRANCH   7  16
ATOM     11  C   UNL     1      -0.141  -2.055  -2.067  0.00  0.00    +0.133 A 
ATOM     12  C   UNL     1      -0.662  -2.912  -1.109  0.00  0.00    +0.046 A 
ATOM     13  C   UNL     1      -0.082  -4.147  -0.896  0.00  0.00    +0.004 A 
ATOM     14  C   UNL     1       1.022  -4.540  -1.635  0.00  0.00    +0.001 A 
ATOM     15  C   UNL     1       1.554  -3.701  -2.590  0.00  0.00    +0.017 A 
ATOM     16  C   UNL     1       0.973  -2.451  -2.820  0.00  0.00    +0.079 A 
BRANCH  11  17
ATOM     17  O   UNL     1      -0.710  -0.842  -2.278  0.00  0.00    -0.491 OA
BRANCH  17  19
ATOM     18  C   UNL     1      -2.343   0.887  -1.851  0.00  0.00    +0.048 C 
ATOM     19  C   UNL     1      -1.842  -0.508  -1.473  0.00  0.00    +0.226 C 
ENDBRANCH  17  19
ENDBRANCH  11  17
ENDBRANCH   7  16
ENDBRANCH   1   9
BRANCH   6  20
ATOM     20  C   UNL     1       3.696  -3.198  -6.872  0.00  0.00    -0.041 C 
BRANCH  20  21
ATOM     21  N   UNL     1       2.385  -3.725  -7.273  0.00  0.00    +0.383 N 
ATOM     22  C   UNL     1       2.050  -3.232  -8.614  0.00  0.00    -0.078 C 
ATOM     23  C   UNL     1       0.651  -3.713  -9.003  0.00  0.00    -0.018 C 
ATOM     24  C   UNL     1       0.623  -5.244  -8.999  0.00  0.00    +0.009 C 
ATOM     25  C   UNL     1       1.046  -5.748  -7.616  0.00  0.00    +0.058 C 
ATOM     26  C   UNL     1       2.431  -5.192  -7.278  0.00  0.00    -0.066 C 
ATOM     27  H   UNL     1       1.684  -3.414  -6.617  0.00  0.00    -0.081 HD
BRANCH  25  28
ATOM     28  C   UNL     1       1.095  -7.254  -7.623  0.00  0.00    +0.212 C 
ATOM     29  O   UNL     1       2.135  -7.828  -7.378  0.00  0.00    -0.276 OA
ATOM     30  N   UNL     1      -0.017  -7.963  -7.902  0.00  0.00    -0.329 N 
ATOM     31  H   UNL     1      -0.849  -7.504  -8.098  0.00  0.00    +0.145 HD
ATOM     32  H   UNL     1       0.015  -8.933  -7.907  0.00  0.00    +0.145 HD
ENDBRANCH  25  28
ENDBRANCH  20  21
ENDBRANCH   6  20
TORSDOF 7
