REMARK  Name = ZINC36900702
REMARK  5 active torsions:
REMARK  status: ('A' for Active; 'I' for Inactive)
REMARK    1  A    between atoms: C_4  and  C_18
REMARK    2  A    between atoms: C_5  and  S_6
REMARK    3  A    between atoms: S_6  and  N_9
REMARK    4  A    between atoms: N_9  and  C_10
REMARK    5  A    between atoms: C_13  and  C_15
REMARK                            x       y       z     vdW  Elec       q    Type
REMARK                         _______ _______ _______ _____ _____    ______ ____
ROOT
ATOM      1  S   UNL     1      -1.477  -0.962   0.012  0.00  0.00    +0.097 S 
ATOM      2  O   UNL     1      -1.321  -1.940   1.031  0.00  0.00    -0.148 OA
ATOM      3  O   UNL     1      -2.558  -0.040  -0.000  0.00  0.00    -0.148 OA
ENDROOT
BRANCH   1   8
ATOM      4  C   UNL     1      -0.017   1.368   0.010  0.00  0.00    +0.037 A 
ATOM      5  C   UNL     1       1.160   2.045   0.002  0.00  0.00    +0.048 A 
ATOM      6  S   UNL     1       2.329   0.838  -0.016  0.00  0.00    -0.088 S 
ATOM      7  C   UNL     1       1.262  -0.590  -0.013  0.00  0.00    +0.127 A 
ATOM      8  C   UNL     1       0.002  -0.004   0.002  0.00  0.00    +0.132 A 
BRANCH   7   9
ATOM      9  C   UNL     1       1.609  -1.964  -0.024  0.00  0.00    +0.395 C 
ATOM     10  O   UNL     1       2.787  -2.299  -0.036  0.00  0.00    -0.240 OA
ATOM     11  O   UNL     1       0.730  -2.818  -0.021  0.00  0.00    -0.240 OA
ENDBRANCH   7   9
ENDBRANCH   1   8
BRANCH   1  12
ATOM     12  N   UNL     1      -1.538  -1.782  -1.426  0.00  0.00    -0.039 NA
BRANCH  12  13
ATOM     13  C   UNL     1      -2.602  -2.622  -1.697  0.00  0.00    +0.350 A 
ATOM     14  N   UNL     1      -3.627  -2.857  -0.914  0.00  0.00    -0.090 NA
ATOM     15  N   UNL     1      -4.421  -3.689  -1.490  0.00  0.00    -0.111 NA
ATOM     16  C   UNL     1      -3.940  -4.016  -2.654  0.00  0.00    +0.222 A 
ATOM     17  O   UNL     1      -2.782  -3.346  -2.817  0.00  0.00    -0.407 OA
BRANCH  16  18
ATOM     18  C   UNL     1      -4.566  -4.966  -3.641  0.00  0.00    +0.077 C 
ATOM     19  C   UNL     1      -5.984  -5.458  -3.347  0.00  0.00    +0.013 C 
ATOM     20  C   UNL     1      -4.796  -6.408  -3.185  0.00  0.00    +0.013 C 
ENDBRANCH  16  18
ENDBRANCH  12  13
ENDBRANCH   1  12
TORSDOF 5
