REMARK  Name = ZINC39353733
REMARK  4 active torsions:
REMARK  status: ('A' for Active; 'I' for Inactive)
REMARK    1  A    between atoms: N_7  and  C_17
REMARK    2  A    between atoms: C_8  and  C_11
REMARK    3  A    between atoms: C_11  and  C_12
REMARK    4  A    between atoms: C_23  and  C_25
REMARK                            x       y       z     vdW  Elec       q    Type
REMARK                         _______ _______ _______ _____ _____    ______ ____
ROOT
ATOM      1  C   UNL     1      -0.017   1.375   0.010  0.00  0.00    +0.019 A 
ATOM      2  C   UNL     1       1.186   2.070   0.002  0.00  0.00    +0.028 A 
ATOM      3  C   UNL     1       2.371   1.344  -0.013  0.00  0.00    +0.067 A 
ATOM      4  C   UNL     1       2.315  -0.050  -0.020  0.00  0.00    +0.122 A 
ATOM      5  N   UNL     1       1.141  -0.669  -0.013  0.00  0.00    -0.348 N 
ATOM      6  C   UNL     1       0.002  -0.004   0.002  0.00  0.00    +0.084 A 
ATOM      7  N   UNL     1       3.609  -0.571  -0.035  0.00  0.00    -0.294 N 
ATOM      8  C   UNL     1       4.542   0.562  -0.037  0.00  0.00    +0.160 C 
ATOM      9  N   UNL     1       3.705   1.768  -0.023  0.00  0.00    -0.323 N 
ATOM     10  H   UNL     1       4.018   2.686  -0.021  0.00  0.00    +0.148 HD
ATOM     11  H   UNL     1       1.121  -1.639  -0.018  0.00  0.00    +0.167 HD
ENDROOT
BRANCH   7  12
ATOM     12  C   UNL     1       3.971  -1.991  -0.046  0.00  0.00    +0.080 C 
ATOM     13  C   UNL     1       3.388  -2.656  -1.295  0.00  0.00    +0.041 C 
ATOM     14  C   UNL     1       3.797  -4.132  -1.321  0.00  0.00    +0.109 C 
ATOM     15  N   UNL     1       3.387  -4.758  -0.057  0.00  0.00    -0.299 N 
ATOM     16  C   UNL     1       3.818  -4.146   1.208  0.00  0.00    +0.109 C 
ATOM     17  C   UNL     1       3.408  -2.670   1.205  0.00  0.00    +0.041 C 
ATOM     18  C   UNL     1       2.630  -5.873  -0.057  0.00  0.00    +0.246 C 
ATOM     19  O   UNL     1       2.280  -6.369  -1.107  0.00  0.00    -0.273 OA
BRANCH  18  20
ATOM     20  C   UNL     1       2.217  -6.504   1.248  0.00  0.00    +0.241 C 
ATOM     21  C   UNL     1       3.316  -7.383   1.788  0.00  0.00    -0.012 C 
ATOM     22  C   UNL     1       2.786  -8.610   1.828  0.00  0.00    +0.065 C 
ATOM     23  C   UNL     1       3.551  -9.822   2.313  0.00  0.00    +0.057 C 
ATOM     24  C   UNL     1       5.047  -9.489   2.305  0.00  0.00    +0.006 C 
ATOM     25  C   UNL     1       5.285  -8.166   3.040  0.00  0.00    +0.005 C 
ATOM     26  C   UNL     1       4.709  -7.014   2.204  0.00  0.00    +0.035 C 
ATOM     27  N   UNL     1       1.511  -8.578   1.383  0.00  0.00    -0.158 NA
ATOM     28  N   UNL     1       1.109  -7.456   1.042  0.00  0.00    -0.170 NA
ENDBRANCH  18  20
ENDBRANCH   7  12
BRANCH   8  29
ATOM     29  C   UNL     1       5.429   0.518   1.208  0.00  0.00    +0.045 C 
BRANCH  29  30
ATOM     30  C   UNL     1       6.394   1.705   1.189  0.00  0.00    -0.008 C 
ATOM     31  C   UNL     1       7.412   1.540   0.042  0.00  0.00    +0.003 C 
ATOM     32  C   UNL     1       8.736   2.091   0.626  0.00  0.00    +0.000 C 
ATOM     33  C   UNL     1       8.690   1.603   2.096  0.00  0.00    +0.000 C 
ATOM     34  C   UNL     1       7.207   1.745   2.495  0.00  0.00    +0.003 C 
ENDBRANCH  29  30
ENDBRANCH   8  29
TORSDOF 4
