REMARK  Name = ZINC40010955
REMARK  11 active torsions:
REMARK  status: ('A' for Active; 'I' for Inactive)
REMARK    1  A    between atoms: C_1  and  C_2
REMARK    2  A    between atoms: C_2  and  N_3
REMARK    3  A    between atoms: N_3  and  C_4
REMARK    4  A    between atoms: C_4  and  N_6
REMARK    5  A    between atoms: C_11  and  O_33
REMARK    6  A    between atoms: C_12  and  O_31
REMARK    7  A    between atoms: C_15  and  C_17
REMARK    8  A    between atoms: C_23  and  O_29
REMARK    9  A    between atoms: O_29  and  C_30
REMARK   10  A    between atoms: O_31  and  C_32
REMARK   11  A    between atoms: O_33  and  C_34
REMARK                            x       y       z     vdW  Elec       q    Type
REMARK                         _______ _______ _______ _____ _____    ______ ____
ROOT
ATOM      1  N   UNL     1      -2.831  -2.309   0.206  0.00  0.00    -0.304 N 
ATOM      2  C   UNL     1      -3.972  -1.379   0.230  0.00  0.00    +0.112 C 
ATOM      3  C   UNL     1      -4.773  -1.586  -1.055  0.00  0.00    +0.054 C 
ATOM      4  C   UNL     1      -5.019  -3.051  -1.302  0.00  0.00    -0.037 A 
ATOM      5  C   UNL     1      -6.063  -3.392  -2.155  0.00  0.00    +0.053 A 
ATOM      6  C   UNL     1      -6.339  -4.717  -2.435  0.00  0.00    +0.162 A 
ATOM      7  C   UNL     1      -5.564  -5.719  -1.859  0.00  0.00    +0.162 A 
ATOM      8  C   UNL     1      -4.529  -5.377  -1.008  0.00  0.00    +0.055 A 
ATOM      9  C   UNL     1      -4.259  -4.044  -0.726  0.00  0.00    -0.019 A 
ATOM     10  C   UNL     1      -3.133  -3.744   0.226  0.00  0.00    +0.121 C 
ENDROOT
BRANCH  10  11
ATOM     11  C   UNL     1      -1.890  -4.531  -0.195  0.00  0.00    +0.123 C 
ATOM     12  C   UNL     1      -1.383  -3.941  -1.495  0.00  0.00    -0.003 C 
ATOM     13  C   UNL     1      -1.287  -4.775  -2.566  0.00  0.00    -0.007 A 
ATOM     14  C   UNL     1      -0.806  -4.281  -3.858  0.00  0.00    +0.013 A 
ATOM     15  C   UNL     1      -0.723  -5.141  -4.901  0.00  0.00    +0.046 A 
ATOM     16  C   UNL     1      -1.088  -6.489  -4.766  0.00  0.00    +0.122 A 
ATOM     17  C   UNL     1      -1.547  -7.011  -3.576  0.00  0.00    +0.069 A 
ATOM     18  C   UNL     1      -1.666  -6.195  -2.443  0.00  0.00    +0.044 A 
ATOM     19  N   UNL     1      -2.113  -6.711  -1.296  0.00  0.00    -0.284 N 
ATOM     20  C   UNL     1      -2.248  -6.000  -0.191  0.00  0.00    +0.226 C 
ATOM     21  O   UNL     1      -2.660  -6.526   0.826  0.00  0.00    -0.275 OA
ATOM     22  H   UNL     1      -2.348  -7.652  -1.272  0.00  0.00    +0.155 HD
BRANCH  16  23
ATOM     23  O   UNL     1      -0.986  -7.306  -5.841  0.00  0.00    -0.495 OA
ATOM     24  C   UNL     1      -0.505  -6.723  -7.055  0.00  0.00    +0.277 C 
ENDBRANCH  16  23
ENDBRANCH  10  11
BRANCH   1  25
ATOM     25  C   UNL     1      -1.561  -1.860   0.163  0.00  0.00    +0.133 C 
ATOM     26  S   UNL     1      -0.259  -2.967   0.252  0.00  0.00    -0.019 S 
BRANCH  25  27
ATOM     27  N   UNL     1      -1.317  -0.540   0.050  0.00  0.00    -0.327 N 
ATOM     28  H   UNL     1      -2.052   0.081  -0.075  0.00  0.00    +0.148 HD
BRANCH  27  30
ATOM     29  C   UNL     1       0.058   1.481  -0.038  0.00  0.00    +0.024 C 
ATOM     30  C   UNL     1       0.059  -0.041   0.116  0.00  0.00    +0.100 C 
ENDBRANCH  27  30
ENDBRANCH  25  27
ENDBRANCH   1  25
BRANCH   7  31
ATOM     31  O   UNL     1      -5.823  -7.026  -2.130  0.00  0.00    -0.491 OA
ATOM     32  C   UNL     1      -4.985  -7.998  -1.501  0.00  0.00    +0.277 C 
ENDBRANCH   7  31
BRANCH   6  33
ATOM     33  O   UNL     1      -7.363  -5.040  -3.270  0.00  0.00    -0.491 OA
ATOM     34  C   UNL     1      -8.114  -3.958  -3.824  0.00  0.00    +0.277 C 
ENDBRANCH   6  33
TORSDOF 7
