REMARK  Name = ZINC45604821
REMARK  9 active torsions:
REMARK  status: ('A' for Active; 'I' for Inactive)
REMARK    1  A    between atoms: C_1  and  C_2
REMARK    2  A    between atoms: C_2  and  C_33
REMARK    3  A    between atoms: C_13  and  C_15
REMARK    4  A    between atoms: C_15  and  O_16
REMARK    5  A    between atoms: O_16  and  C_17
REMARK    6  A    between atoms: C_17  and  C_19
REMARK    7  A    between atoms: C_24  and  O_25
REMARK    8  A    between atoms: O_25  and  C_26
REMARK    9  A    between atoms: C_26  and  C_27
REMARK                            x       y       z     vdW  Elec       q    Type
REMARK                         _______ _______ _______ _____ _____    ______ ____
ROOT
ATOM      1  C   UNL     1       2.592  -0.234   2.828  0.00  0.00    +0.328 C 
ENDROOT
BRANCH   1  14
ATOM      2  C   UNL     1       0.022   1.537  -0.021  0.00  0.00    +0.042 C 
ATOM      3  C   UNL     1      -0.079   0.014   0.081  0.00  0.00    +0.113 C 
ATOM      4  C   UNL     1      -1.516  -0.382   0.306  0.00  0.00    +0.241 C 
ATOM      5  O   UNL     1      -2.405   0.299  -0.159  0.00  0.00    -0.273 OA
ATOM      6  N   UNL     1      -1.824  -1.484   1.016  0.00  0.00    -0.282 N 
ATOM      7  C   UNL     1      -0.819  -2.260   1.604  0.00  0.00    +0.055 A 
ATOM      8  C   UNL     1      -1.093  -3.532   2.079  0.00  0.00    +0.025 A 
ATOM      9  C   UNL     1      -0.087  -4.281   2.662  0.00  0.00    +0.002 A 
ATOM     10  C   UNL     1       1.192  -3.767   2.773  0.00  0.00    +0.002 A 
ATOM     11  C   UNL     1       1.475  -2.498   2.299  0.00  0.00    +0.025 A 
ATOM     12  C   UNL     1       0.474  -1.745   1.713  0.00  0.00    +0.059 A 
ATOM     13  N   UNL     1       0.731  -0.459   1.213  0.00  0.00    -0.253 N 
ATOM     14  C   UNL     1       1.691   0.318   1.753  0.00  0.00    +0.258 C 
ATOM     15  O   UNL     1       1.830   1.462   1.375  0.00  0.00    -0.271 OA
ATOM     16  C   UNL     1       0.432  -0.621  -1.214  0.00  0.00    +0.042 C 
ATOM     17  H   UNL     1      -2.753  -1.743   1.121  0.00  0.00    +0.155 HD
ENDBRANCH   1  14
BRANCH   1  18
ATOM     18  O   UNL     1       3.341   0.831   3.417  0.00  0.00    -0.452 OA
BRANCH  18  19
ATOM     19  C   UNL     1       4.200   0.504   4.402  0.00  0.00    +0.343 C 
ATOM     20  O   UNL     1       4.310  -0.655   4.751  0.00  0.00    -0.245 OA
BRANCH  19  21
ATOM     21  C   UNL     1       5.005   1.551   5.055  0.00  0.00    +0.101 A 
ATOM     22  C   UNL     1       4.878   2.885   4.660  0.00  0.00    +0.018 A 
ATOM     23  C   UNL     1       5.634   3.859   5.274  0.00  0.00    +0.001 A 
ATOM     24  C   UNL     1       6.522   3.522   6.283  0.00  0.00    +0.004 A 
ATOM     25  C   UNL     1       6.658   2.208   6.684  0.00  0.00    +0.046 A 
ATOM     26  C   UNL     1       5.901   1.215   6.080  0.00  0.00    +0.135 A 
BRANCH  26  27
ATOM     27  O   UNL     1       6.029  -0.076   6.477  0.00  0.00    -0.489 OA
BRANCH  27  28
ATOM     28  C   UNL     1       6.961  -0.342   7.527  0.00  0.00    +0.260 C 
BRANCH  28  29
ATOM     29  C   UNL     1       6.968  -1.841   7.835  0.00  0.00    +0.156 C 
ATOM     30  C   UNL     1       8.037  -2.164   8.908  0.00  0.00    +0.037 C 
ATOM     31  C   UNL     1       7.462  -3.475   9.512  0.00  0.00    +0.031 C 
ATOM     32  C   UNL     1       5.939  -3.237   9.420  0.00  0.00    +0.160 C 
ATOM     33  O   UNL     1       5.716  -2.236   8.418  0.00  0.00    -0.373 OA
ENDBRANCH  28  29
ENDBRANCH  27  28
ENDBRANCH  26  27
ENDBRANCH  19  21
ENDBRANCH  18  19
ENDBRANCH   1  18
TORSDOF 7
