REMARK  Name = ZINC34697582
REMARK  7 active torsions:
REMARK  status: ('A' for Active; 'I' for Inactive)
REMARK    1  A    between atoms: C_4  and  C_7
REMARK    2  A    between atoms: C_7  and  C_8
REMARK    3  A    between atoms: N_11  and  C_14
REMARK    4  A    between atoms: C_14  and  C_15
REMARK    5  A    between atoms: C_20  and  C_22
REMARK    6  A    between atoms: C_28  and  C_30
REMARK    7  A    between atoms: C_33  and  N_36
REMARK                            x       y       z     vdW  Elec       q    Type
REMARK                         _______ _______ _______ _____ _____    ______ ____
ROOT
ATOM      1  C   UNL     1       6.722  -3.281   5.117  0.00  0.00    -0.001 C 
ATOM      2  C   UNL     1       7.949  -2.490   4.613  0.00  0.00    +0.110 C 
ATOM      3  N   UNL     1       9.100  -3.092   5.325  0.00  0.00    -0.297 N 
ATOM      4  C   UNL     1       8.593  -3.341   6.695  0.00  0.00    +0.116 C 
ATOM      5  C   UNL     1       7.145  -3.844   6.489  0.00  0.00    +0.039 C 
ATOM      6  C   UNL     1      10.329  -3.352   4.839  0.00  0.00    +0.247 C 
ATOM      7  O   UNL     1      11.139  -3.949   5.521  0.00  0.00    -0.270 OA
ENDROOT
BRANCH   5   8
ATOM      8  C   UNL     1       6.246  -3.311   7.574  0.00  0.00    -0.043 A 
ATOM      9  C   UNL     1       6.317  -1.979   7.939  0.00  0.00    +0.004 A 
ATOM     10  C   UNL     1       5.492  -1.490   8.934  0.00  0.00    +0.000 A 
ATOM     11  C   UNL     1       4.595  -2.332   9.565  0.00  0.00    +0.000 A 
ATOM     12  C   UNL     1       4.524  -3.663   9.200  0.00  0.00    +0.000 A 
ATOM     13  C   UNL     1       5.346  -4.152   8.202  0.00  0.00    +0.004 A 
ENDBRANCH   5   8
BRANCH   6  14
ATOM     14  C   UNL     1      10.693  -2.912   3.475  0.00  0.00    +0.037 A 
ATOM     15  C   UNL     1       9.981  -1.883   2.857  0.00  0.00    +0.015 A 
ATOM     16  C   UNL     1      10.325  -1.477   1.585  0.00  0.00    +0.033 A 
ATOM     17  C   UNL     1      11.374  -2.088   0.920  0.00  0.00    +0.126 A 
ATOM     18  C   UNL     1      12.084  -3.109   1.527  0.00  0.00    +0.033 A 
ATOM     19  C   UNL     1      11.754  -3.520   2.801  0.00  0.00    +0.015 A 
BRANCH  17  20
ATOM     20  N   UNL     1      11.738  -1.647  -0.445  0.00  0.00    +0.056 N 
ATOM     21  O   UNL     1      11.120  -0.755  -0.978  0.00  0.00    -0.126 OA
ATOM     22  O   UNL     1      12.654  -2.179  -1.028  0.00  0.00    -0.126 OA
ENDBRANCH  17  20
ENDBRANCH   6  14
BRANCH   1  23
ATOM     23  C   UNL     1       5.518  -2.350   5.272  0.00  0.00    -0.073 C 
BRANCH  23  27
ATOM     24  C   UNL     1       1.593  -4.011   5.241  0.00  0.00    -0.010 C 
ATOM     25  C   UNL     1       1.997  -3.054   6.366  0.00  0.00    -0.015 C 
ATOM     26  C   UNL     1       3.213  -2.238   5.922  0.00  0.00    -0.079 C 
ATOM     27  N   UNL     1       4.330  -3.142   5.622  0.00  0.00    +0.380 N 
ATOM     28  C   UNL     1       3.976  -4.014   4.496  0.00  0.00    -0.079 C 
ATOM     29  C   UNL     1       2.789  -4.899   4.885  0.00  0.00    -0.015 C 
ATOM     30  H   UNL     1       4.532  -3.706   6.434  0.00  0.00    -0.082 HD
BRANCH  24  31
ATOM     31  C   UNL     1       0.428  -4.886   5.707  0.00  0.00    +0.038 C 
BRANCH  31  35
ATOM     32  C   UNL     1      -3.014  -2.443   6.365  0.00  0.00    +0.000 A 
ATOM     33  C   UNL     1      -2.790  -3.000   5.120  0.00  0.00    +0.000 A 
ATOM     34  C   UNL     1      -1.676  -3.790   4.907  0.00  0.00    +0.003 A 
ATOM     35  C   UNL     1      -0.786  -4.023   5.939  0.00  0.00    -0.047 A 
ATOM     36  C   UNL     1      -1.010  -3.466   7.184  0.00  0.00    +0.003 A 
ATOM     37  C   UNL     1      -2.125  -2.677   7.397  0.00  0.00    +0.000 A 
ENDBRANCH  31  35
ENDBRANCH  24  31
ENDBRANCH  23  27
ENDBRANCH   1  23
TORSDOF 7
