REMARK  Name = ZINC09965634
REMARK  5 active torsions:
REMARK  status: ('A' for Active; 'I' for Inactive)
REMARK    1  A    between atoms: C_4  and  N_7
REMARK    2  A    between atoms: C_13  and  S_17
REMARK    3  A    between atoms: S_17  and  C_18
REMARK    4  A    between atoms: C_18  and  C_19
REMARK    5  A    between atoms: N_24  and  C_25
REMARK                            x       y       z     vdW  Elec       q    Type
REMARK                         _______ _______ _______ _____ _____    ______ ____
ROOT
ATOM      1  N   UNL     1       0.418  -8.361  -0.064  0.00  0.00    -0.194 N 
ATOM      2  C   UNL     1       1.759  -8.521  -0.102  0.00  0.00    +0.284 A 
ATOM      3  O   UNL     1       2.372  -9.575  -0.139  0.00  0.00    -0.265 OA
ATOM      4  C   UNL     1       2.325  -7.176  -0.091  0.00  0.00    +0.106 A 
ATOM      5  C   UNL     1       3.601  -6.650  -0.107  0.00  0.00    +0.037 A 
ATOM      6  N   UNL     1       3.749  -5.317  -0.068  0.00  0.00    -0.323 N 
ATOM      7  C   UNL     1       2.647  -4.491  -0.047  0.00  0.00    +0.172 A 
ATOM      8  N   UNL     1       1.415  -4.926  -0.038  0.00  0.00    -0.202 NA
ATOM      9  C   UNL     1       1.166  -6.260  -0.049  0.00  0.00    +0.190 A 
ATOM     10  N   UNL     1       0.090  -7.003  -0.032  0.00  0.00    -0.143 NA
ATOM     11  C   UNL     1       5.058  -4.661  -0.023  0.00  0.00    +0.124 C 
ATOM     12  C   UNL     1       5.972  -5.168  -1.141  0.00  0.00    +0.022 C 
ATOM     13  C   UNL     1       6.821  -6.306  -0.574  0.00  0.00    +0.002 C 
ATOM     14  C   UNL     1       6.004  -7.063   0.476  0.00  0.00    +0.006 C 
ATOM     15  C   UNL     1       4.753  -7.619  -0.189  0.00  0.00    +0.054 C 
ENDROOT
BRANCH   1  19
ATOM     16  C   UNL     1      -2.349 -11.476  -0.044  0.00  0.00    +0.000 A 
ATOM     17  C   UNL     1      -2.606 -10.320   0.670  0.00  0.00    +0.002 A 
ATOM     18  C   UNL     1      -1.691  -9.286   0.665  0.00  0.00    +0.028 A 
ATOM     19  C   UNL     1      -0.511  -9.407  -0.058  0.00  0.00    +0.069 A 
ATOM     20  C   UNL     1      -0.258 -10.568  -0.778  0.00  0.00    +0.028 A 
ATOM     21  C   UNL     1      -1.175 -11.601  -0.765  0.00  0.00    +0.002 A 
ENDBRANCH   1  19
BRANCH   7  22
ATOM     22  S   UNL     1       2.913  -2.749  -0.041  0.00  0.00    -0.078 S 
BRANCH  22  23
ATOM     23  C   UNL     1       1.199  -2.169  -0.021  0.00  0.00    +0.173 C 
BRANCH  23  24
ATOM     24  C   UNL     1       1.178  -0.662  -0.013  0.00  0.00    +0.231 C 
ATOM     25  O   UNL     1       2.220  -0.042  -0.019  0.00  0.00    -0.274 OA
ATOM     26  N   UNL     1       0.002  -0.004   0.002  0.00  0.00    -0.239 N 
ATOM     27  C   UNL     1      -0.016   1.344   0.009  0.00  0.00    +0.306 C 
ATOM     28  O   UNL     1       1.028   1.966   0.003  0.00  0.00    -0.252 OA
ATOM     29  N   UNL     1      -1.192   2.002   0.019  0.00  0.00    -0.296 N 
ATOM     30  H   UNL     1      -0.831  -0.500   0.007  0.00  0.00    +0.159 HD
ATOM     31  H   UNL     1      -2.026   1.505   0.020  0.00  0.00    +0.151 HD
BRANCH  29  32
ATOM     32  C   UNL     1      -1.212   3.466   0.027  0.00  0.00    +0.075 C 
ATOM     33  C   UNL     1      -2.198   4.154   0.974  0.00  0.00    +0.024 C 
ATOM     34  C   UNL     1      -2.455   4.159  -0.535  0.00  0.00    +0.024 C 
ENDBRANCH  29  32
ENDBRANCH  23  24
ENDBRANCH  22  23
ENDBRANCH   7  22
TORSDOF 5
