REMARK  Name = ZINC39227653
REMARK  5 active torsions:
REMARK  status: ('A' for Active; 'I' for Inactive)
REMARK    1  A    between atoms: C_1  and  C_2
REMARK    2  A    between atoms: C_2  and  C_3
REMARK    3  A    between atoms: C_2  and  N_4
REMARK    4  A    between atoms: C_15  and  C_20
REMARK    5  A    between atoms: C_23  and  C_26
REMARK                            x       y       z     vdW  Elec       q    Type
REMARK                         _______ _______ _______ _____ _____    ______ ____
ROOT
ATOM      1  N   UNL     1      -0.062  -1.710  -0.883  0.00  0.00    +0.381 N 
ATOM      2  C   UNL     1      -0.938  -2.754  -0.338  0.00  0.00    -0.075 C 
ATOM      3  C   UNL     1      -2.329  -2.172  -0.072  0.00  0.00    +0.030 C 
ATOM      4  C   UNL     1      -2.913  -1.642  -1.384  0.00  0.00    +0.114 C 
ATOM      5  C   UNL     1      -1.955  -0.609  -1.983  0.00  0.00    +0.030 C 
ATOM      6  C   UNL     1      -0.580  -1.251  -2.178  0.00  0.00    -0.075 C 
ATOM      7  C   UNL     1      -4.267  -0.975  -1.104  0.00  0.00    +0.127 C 
ATOM      8  C   UNL     1      -4.809  -0.490  -2.437  0.00  0.00    +0.170 C 
ATOM      9  O   UNL     1      -5.377   0.577  -2.545  0.00  0.00    -0.292 OA
ATOM     10  C   UNL     1      -4.610  -1.383  -3.593  0.00  0.00    +0.060 A 
ATOM     11  C   UNL     1      -5.275  -1.147  -4.795  0.00  0.00    +0.023 A 
ATOM     12  C   UNL     1      -5.066  -2.001  -5.873  0.00  0.00    -0.017 A 
ATOM     13  C   UNL     1      -4.193  -3.085  -5.744  0.00  0.00    +0.012 A 
ATOM     14  C   UNL     1      -3.537  -3.319  -4.555  0.00  0.00    +0.047 A 
ATOM     15  C   UNL     1      -3.736  -2.477  -3.468  0.00  0.00    +0.132 A 
ATOM     16  O   UNL     1      -3.094  -2.719  -2.301  0.00  0.00    -0.485 OA
ATOM     17  H   UNL     1      -0.029  -0.932  -0.241  0.00  0.00    -0.081 HD
ENDROOT
BRANCH  12  18
ATOM     18  C   UNL     1      -5.767  -1.762  -7.156  0.00  0.00    -0.018 A 
ATOM     19  C   UNL     1      -6.634  -0.676  -7.285  0.00  0.00    +0.009 A 
ATOM     20  C   UNL     1      -7.287  -0.454  -8.476  0.00  0.00    +0.013 A 
ATOM     21  C   UNL     1      -7.081  -1.315  -9.557  0.00  0.00    +0.037 A 
ATOM     22  C   UNL     1      -6.212  -2.402  -9.427  0.00  0.00    +0.013 A 
ATOM     23  C   UNL     1      -5.556  -2.620  -8.236  0.00  0.00    +0.009 A 
BRANCH  21  24
ATOM     24  C   UNL     1      -7.781  -1.078 -10.835  0.00  0.00    +0.247 C 
ATOM     25  O   UNL     1      -8.984  -0.904 -10.847  0.00  0.00    -0.270 OA
ATOM     26  N   UNL     1      -7.086  -1.055 -11.990  0.00  0.00    -0.294 N 
ATOM     27  C   UNL     1      -5.646  -1.354 -12.011  0.00  0.00    +0.108 C 
ATOM     28  C   UNL     1      -4.905  -0.209 -12.708  0.00  0.00    +0.019 C 
ATOM     29  C   UNL     1      -5.523   0.041 -14.088  0.00  0.00    +0.007 C 
ATOM     30  C   UNL     1      -6.990   0.430 -13.918  0.00  0.00    +0.010 C 
ATOM     31  C   UNL     1      -7.746  -0.736 -13.261  0.00  0.00    +0.079 C 
ATOM     32  C   UNL     1      -9.197  -0.322 -13.023  0.00  0.00    +0.023 C 
ATOM     33  C   UNL     1      -9.853  -0.004 -14.370  0.00  0.00    +0.002 C 
ATOM     34  C   UNL     1      -9.096   1.131 -15.061  0.00  0.00    +0.000 C 
ATOM     35  C   UNL     1      -7.630   0.728 -15.273  0.00  0.00    +0.005 C 
ENDBRANCH  21  24
ENDBRANCH  12  18
BRANCH   1  37
ATOM     36  C   UNL     1       2.207  -1.163  -1.622  0.00  0.00    -0.014 C 
ATOM     37  C   UNL     1       1.291  -2.253  -1.063  0.00  0.00    -0.075 C 
ATOM     38  C   UNL     1       1.831  -2.731   0.286  0.00  0.00    -0.014 C 
ENDBRANCH   1  37
TORSDOF 3
