REMARK  Name = ZINC23846186
REMARK  6 active torsions:
REMARK  status: ('A' for Active; 'I' for Inactive)
REMARK    1  A    between atoms: C_5  and  C_7
REMARK    2  A    between atoms: C_7  and  N_8
REMARK    3  A    between atoms: N_11  and  N_14
REMARK    4  A    between atoms: C_15  and  C_16
REMARK    5  A    between atoms: C_17  and  N_29
REMARK    6  A    between atoms: C_19  and  C_20
REMARK                            x       y       z     vdW  Elec       q    Type
REMARK                         _______ _______ _______ _____ _____    ______ ____
ROOT
ATOM      1  C   UNL     1      -3.119   0.812   1.189  0.00  0.00    -0.008 C 
ATOM      2  C   UNL     1      -3.186   0.669  -0.157  0.00  0.00    +0.022 C 
ATOM      3  C   UNL     1      -2.112  -0.174  -0.665  0.00  0.00    -0.027 C 
ATOM      4  C   UNL     1      -1.904  -0.505  -1.957  0.00  0.00    +0.013 C 
ATOM      5  C   UNL     1      -1.270  -0.610   0.514  0.00  0.00    +0.042 C 
ATOM      6  C   UNL     1      -1.938   0.044   1.734  0.00  0.00    +0.043 C 
ENDROOT
BRANCH   4   7
ATOM      7  C   UNL     1      -0.704  -1.267  -2.338  0.00  0.00    -0.025 A 
ATOM      8  C   UNL     1       0.519  -1.013  -1.707  0.00  0.00    +0.009 A 
ATOM      9  C   UNL     1       1.637  -1.735  -2.064  0.00  0.00    +0.020 A 
ATOM     10  C   UNL     1       1.556  -2.701  -3.054  0.00  0.00    +0.041 A 
ATOM     11  C   UNL     1       0.350  -2.954  -3.686  0.00  0.00    +0.020 A 
ATOM     12  C   UNL     1      -0.779  -2.245  -3.335  0.00  0.00    +0.009 A 
ATOM     13 CL   UNL     1       2.972  -3.600  -3.502  0.00  0.00    -0.084 Cl
ENDBRANCH   4   7
BRANCH   2  14
ATOM     14  N   UNL     1      -4.164   1.257  -0.957  0.00  0.00    -0.389 NA
ATOM     15  C   UNL     1      -4.280   2.721  -1.059  0.00  0.00    +0.113 C 
ATOM     16  C   UNL     1      -4.320   3.096  -2.549  0.00  0.00    +0.177 C 
ATOM     17  O   UNL     1      -5.339   2.332  -3.198  0.00  0.00    -0.377 OA
ATOM     18  C   UNL     1      -5.116   0.920  -3.175  0.00  0.00    +0.177 C 
ATOM     19  C   UNL     1      -5.114   0.433  -1.721  0.00  0.00    +0.113 C 
ATOM     20  H   UNL     1      -3.359   0.793  -0.369  0.00  0.00    +0.127 HD
ENDBRANCH   2  14
BRANCH   1  22
ATOM     21  N   UNL     1      -3.809   1.725   3.246  0.00  0.00    -0.192 NA
ATOM     22  C   UNL     1      -4.021   1.570   1.969  0.00  0.00    +0.135 C 
BRANCH  21  26
ATOM     23  N   UNL     1      -6.767   3.259   5.679  0.00  0.00    -0.295 NA
ATOM     24  C   UNL     1      -5.628   2.520   6.241  0.00  0.00    +0.105 C 
ATOM     25  C   UNL     1      -4.371   2.823   5.418  0.00  0.00    +0.141 C 
ATOM     26  N   UNL     1      -4.659   2.541   4.004  0.00  0.00    -0.253 N 
ATOM     27  C   UNL     1      -5.860   3.143   3.405  0.00  0.00    +0.141 C 
ATOM     28  C   UNL     1      -7.061   2.822   4.308  0.00  0.00    +0.105 C 
BRANCH  23  29
ATOM     29  C   UNL     1      -7.952   3.133   6.538  0.00  0.00    +0.121 C 
BRANCH  29  34
ATOM     30  C   UNL     1     -11.162   3.711   4.637  0.00  0.00    +0.000 A 
ATOM     31  C   UNL     1     -11.268   5.088   4.685  0.00  0.00    +0.001 A 
ATOM     32  C   UNL     1     -10.300   5.834   5.331  0.00  0.00    +0.020 A 
ATOM     33  C   UNL     1      -9.226   5.201   5.932  0.00  0.00    +0.045 A 
ATOM     34  C   UNL     1      -9.122   3.822   5.885  0.00  0.00    -0.015 A 
ATOM     35  C   UNL     1     -10.087   3.078   5.233  0.00  0.00    +0.006 A 
ATOM     36 CL   UNL     1      -8.010   6.137   6.744  0.00  0.00    -0.083 Cl
ENDBRANCH  29  34
ENDBRANCH  23  29
ENDBRANCH  21  26
ENDBRANCH   1  22
TORSDOF 6
