REMARK  Name = ZINC23030743
REMARK  6 active torsions:
REMARK  status: ('A' for Active; 'I' for Inactive)
REMARK    1  A    between atoms: C_8  and  C_10
REMARK    2  A    between atoms: C_13  and  C_16
REMARK    3  A    between atoms: C_21  and  C_23
REMARK    4  A    between atoms: C_23  and  N_24
REMARK    5  A    between atoms: N_27  and  C_30
REMARK    6  A    between atoms: C_35  and  N_36
REMARK                            x       y       z     vdW  Elec       q    Type
REMARK                         _______ _______ _______ _____ _____    ______ ____
ROOT
ATOM      1  C   UNL     1      -7.148  -6.500   1.029  0.00  0.00    +0.104 C 
ATOM      2  N   UNL     1      -6.273  -5.635   0.638  0.00  0.00    -0.178 NA
ATOM      3  N   UNL     1      -5.109  -5.618   1.404  0.00  0.00    -0.184 N 
ATOM      4  C   UNL     1      -5.230  -6.619   2.475  0.00  0.00    +0.173 C 
ATOM      5  C   UNL     1      -6.622  -7.238   2.239  0.00  0.00    +0.093 C 
ATOM      6  C   UNL     1      -4.048  -4.813   1.200  0.00  0.00    +0.219 C 
ATOM      7  O   UNL     1      -3.085  -4.880   1.935  0.00  0.00    -0.276 OA
ENDROOT
BRANCH   1  15
ATOM      8  C   UNL     1     -12.402  -7.073  -1.894  0.00  0.00    +0.001 A 
ATOM      9  C   UNL     1     -12.616  -8.042  -0.923  0.00  0.00    +0.004 A 
ATOM     10  C   UNL     1     -11.659  -8.304   0.033  0.00  0.00    +0.047 A 
ATOM     11  C   UNL     1     -10.464  -7.595   0.030  0.00  0.00    +0.136 A 
ATOM     12  C   UNL     1     -10.252  -6.614  -0.957  0.00  0.00    +0.021 A 
ATOM     13  C   UNL     1     -11.235  -6.363  -1.917  0.00  0.00    +0.011 A 
ATOM     14  C   UNL     1      -8.926  -6.059  -0.685  0.00  0.00    +0.059 A 
ATOM     15  C   UNL     1      -8.453  -6.727   0.400  0.00  0.00    +0.152 A 
ATOM     16  O   UNL     1      -9.368  -7.627   0.815  0.00  0.00    -0.454 OA
ENDBRANCH   1  15
BRANCH   4  17
ATOM     17  C   UNL     1      -4.152  -7.665   2.348  0.00  0.00    +0.128 A 
ATOM     18  C   UNL     1      -3.485  -8.235   3.367  0.00  0.00    +0.046 A 
ATOM     19  C   UNL     1      -2.573  -9.153   2.797  0.00  0.00    +0.041 A 
ATOM     20  C   UNL     1      -2.738  -9.088   1.464  0.00  0.00    +0.195 A 
ATOM     21  O   UNL     1      -3.700  -8.190   1.198  0.00  0.00    -0.466 OA
ENDBRANCH   4  17
BRANCH   6  22
ATOM     22  C   UNL     1      -4.058  -3.829   0.059  0.00  0.00    +0.021 C 
BRANCH  22  23
ATOM     23  N   UNL     1      -2.797  -3.075   0.051  0.00  0.00    +0.387 N 
ATOM     24  C   UNL     1      -2.667  -2.278  -1.177  0.00  0.00    -0.059 C 
ATOM     25  C   UNL     1      -1.308  -1.573  -1.183  0.00  0.00    +0.086 C 
ATOM     26  N   UNL     1      -1.197  -0.720   0.009  0.00  0.00    -0.332 N 
ATOM     27  C   UNL     1      -1.327  -1.517   1.237  0.00  0.00    +0.086 C 
ATOM     28  C   UNL     1      -2.685  -2.223   1.243  0.00  0.00    -0.059 C 
ATOM     29  H   UNL     1      -1.971  -3.801   0.074  0.00  0.00    -0.081 HD
BRANCH  26  30
ATOM     30  C   UNL     1       0.002  -0.004   0.002  0.00  0.00    +0.060 A 
ATOM     31  C   UNL     1       1.216  -0.679  -0.013  0.00  0.00    +0.025 A 
ATOM     32  C   UNL     1       2.400   0.032  -0.021  0.00  0.00    +0.002 A 
ATOM     33  C   UNL     1       2.377   1.415  -0.013  0.00  0.00    +0.002 A 
ATOM     34  C   UNL     1       1.171   2.090   0.002  0.00  0.00    +0.034 A 
ATOM     35  C   UNL     1      -0.017   1.385   0.010  0.00  0.00    +0.147 A 
BRANCH  35  36
ATOM     36  N   UNL     1      -1.308   2.108   0.020  0.00  0.00    +0.058 N 
ATOM     37  O   UNL     1      -1.324   3.326   0.026  0.00  0.00    -0.126 OA
ATOM     38  O   UNL     1      -2.355   1.486   0.021  0.00  0.00    -0.126 OA
ENDBRANCH  35  36
ENDBRANCH  26  30
ENDBRANCH  22  23
ENDBRANCH   6  22
TORSDOF 6
