REMARK  Name = ZINC01214791
REMARK  3 active torsions:
REMARK  status: ('A' for Active; 'I' for Inactive)
REMARK    1  A    between atoms: C_5  and  N_7
REMARK    2  A    between atoms: C_8  and  C_9
REMARK    3  A    between atoms: C_14  and  O_15
REMARK                            x       y       z     vdW  Elec       q    Type
REMARK                         _______ _______ _______ _____ _____    ______ ____
ROOT
ATOM      1  N   UNL     1       1.200  -2.065  -0.021  0.00  0.00    -0.253 NA
ATOM      2  C   UNL     1       0.076  -2.722   0.086  0.00  0.00    +0.124 C 
ENDROOT
BRANCH   1   7
ATOM      3  C   UNL     1       0.478   1.375   0.993  0.00  0.00    +0.004 A 
ATOM      4  C   UNL     1       1.148   2.124   0.085  0.00  0.00    +0.031 A 
ATOM      5  C   UNL     1       1.904   1.517  -0.953  0.00  0.00    +0.102 A 
ATOM      6  C   UNL     1       1.946   0.061  -1.022  0.00  0.00    +0.125 A 
ATOM      7  C   UNL     1       1.196  -0.702  -0.004  0.00  0.00    +0.092 A 
ATOM      8  C   UNL     1       0.490  -0.014   0.965  0.00  0.00    +0.030 A 
ATOM      9  N   UNL     1       2.682  -0.397  -2.031  0.00  0.00    -0.189 NA
ATOM     10  S   UNL     1       3.243   0.908  -2.787  0.00  0.00    +0.117 S 
ATOM     11  N   UNL     1       2.614   2.106  -1.917  0.00  0.00    -0.191 NA
ENDBRANCH   1   7
BRANCH   2  12
ATOM     12  C   UNL     1       0.089  -4.187   0.188  0.00  0.00    +0.054 A 
ATOM     13  C   UNL     1       1.304  -4.884   0.178  0.00  0.00    +0.053 A 
ATOM     14  C   UNL     1       1.307  -6.260   0.275  0.00  0.00    +0.022 A 
ATOM     15  C   UNL     1       0.115  -6.956   0.382  0.00  0.00    +0.020 A 
ATOM     16  C   UNL     1      -1.092  -6.281   0.393  0.00  0.00    +0.060 A 
ATOM     17  C   UNL     1      -1.116  -4.897   0.302  0.00  0.00    +0.141 A 
ATOM     18 BR   UNL     1      -2.712  -7.245   0.539  0.00  0.00    -0.047 Br
ATOM     19 CL   UNL     1       2.802  -4.018   0.043  0.00  0.00    -0.083 Cl
BRANCH  17  20
ATOM     20  O   UNL     1      -2.300  -4.234   0.319  0.00  0.00    -0.505 OA
ATOM     21  H   UNL     1      -2.690  -4.103  -0.556  0.00  0.00    +0.292 HD
ENDBRANCH  17  20
ENDBRANCH   2  12
TORSDOF 3
