REMARK  Name = ZINC25584974
REMARK  4 active torsions:
REMARK  status: ('A' for Active; 'I' for Inactive)
REMARK    1  A    between atoms: C_1  and  C_2
REMARK    2  A    between atoms: C_5  and  C_8
REMARK    3  A    between atoms: C_10  and  C_13
REMARK    4  A    between atoms: N_15  and  C_16
REMARK                            x       y       z     vdW  Elec       q    Type
REMARK                         _______ _______ _______ _____ _____    ______ ____
ROOT
ATOM      1  C   UNL     1      -1.297   5.899  -0.055  0.00  0.00    +0.267 C 
ATOM      2  O   UNL     1      -2.333   5.260  -0.049  0.00  0.00    -0.268 OA
ATOM      3  N   UNL     1      -0.113   5.262   0.032  0.00  0.00    -0.278 N 
ATOM      4  H   UNL     1       0.818   5.841   0.118  0.00  0.00    +0.155 HD
ENDROOT
BRANCH   3   5
ATOM      5  C   UNL     1      -0.067   3.864   0.012  0.00  0.00    +0.059 A 
ATOM      6  C   UNL     1      -1.083   3.143  -0.587  0.00  0.00    +0.025 A 
ATOM      7  C   UNL     1      -1.042   1.755  -0.615  0.00  0.00    +0.003 A 
ATOM      8  C   UNL     1      -0.006   1.077  -0.043  0.00  0.00    +0.011 A 
ATOM      9  C   UNL     1       1.038   1.781   0.572  0.00  0.00    +0.021 A 
ATOM     10  C   UNL     1       1.006   3.187   0.599  0.00  0.00    +0.087 A 
ATOM     11  N   UNL     1       2.140   3.593   1.256  0.00  0.00    -0.275 N 
ATOM     12  H   UNL     1       2.337   4.665   1.402  0.00  0.00    +0.189 HD
ATOM     13  N   UNL     1       2.860   2.450   1.627  0.00  0.00    -0.181 NA
ATOM     14  C   UNL     1       2.226   1.384   1.233  0.00  0.00    +0.142 A 
ENDBRANCH   3   5
BRANCH   1  17
ATOM     15  C   UNL     1      -0.264   9.387  -0.257  0.00  0.00    +0.109 A 
ATOM     16  N   UNL     1      -0.216   8.071  -0.165  0.00  0.00    -0.234 NA
ATOM     17  C   UNL     1      -1.338   7.367  -0.157  0.00  0.00    +0.133 A 
ATOM     18  C   UNL     1      -2.540   8.025  -0.251  0.00  0.00    +0.080 A 
ATOM     19  S   UNL     1      -2.023   9.681  -0.341  0.00  0.00    -0.075 S 
BRANCH  15  24
ATOM     20  C   UNL     1       4.062  13.182  -0.360  0.00  0.00    +0.044 C 
ATOM     21  C   UNL     1       2.929  12.188  -0.333  0.00  0.00    -0.050 A 
ATOM     22  C   UNL     1       1.621  12.633  -0.412  0.00  0.00    +0.004 A 
ATOM     23  C   UNL     1       0.580  11.728  -0.388  0.00  0.00    +0.011 A 
ATOM     24  C   UNL     1       0.848  10.363  -0.284  0.00  0.00    +0.007 A 
ATOM     25  C   UNL     1       2.169   9.922  -0.199  0.00  0.00    +0.011 A 
ATOM     26  C   UNL     1       3.202  10.836  -0.229  0.00  0.00    +0.004 A 
ENDBRANCH  15  24
ENDBRANCH   1  17
TORSDOF 3
