REMARK  Name = ZINC06713100
REMARK  6 active torsions:
REMARK  status: ('A' for Active; 'I' for Inactive)
REMARK    1  A    between atoms: C_1  and  C_2
REMARK    2  A    between atoms: C_5  and  N_8
REMARK    3  A    between atoms: C_10  and  C_14
REMARK    4  A    between atoms: C_11  and  C_13
REMARK    5  A    between atoms: N_15  and  N_16
REMARK    6  A    between atoms: C_17  and  C_22
REMARK                            x       y       z     vdW  Elec       q    Type
REMARK                         _______ _______ _______ _____ _____    ______ ____
ROOT
ATOM      1  N   UNL     1       0.059  -4.172  -0.021  0.00  0.00    -0.221 N 
ATOM      2  C   UNL     1       0.697  -4.958   0.871  0.00  0.00    +0.142 A 
ATOM      3  C   UNL     1       0.463  -6.269   0.505  0.00  0.00    +0.054 A 
ATOM      4  C   UNL     1      -0.348  -6.242  -0.651  0.00  0.00    +0.070 A 
ATOM      5  N   UNL     1      -0.587  -4.994  -0.951  0.00  0.00    -0.170 NA
ATOM      6  C   UNL     1      -0.855  -7.445  -1.404  0.00  0.00    +0.068 C 
ATOM      7 CL   UNL     1       1.638  -4.421   2.228  0.00  0.00    -0.061 Cl
ENDROOT
BRANCH   1  12
ATOM      8  C   UNL     1      -0.018   1.503   0.010  0.00  0.00    +0.044 C 
ATOM      9  C   UNL     1       0.002  -0.004   0.002  0.00  0.00    -0.050 A 
ATOM     10  C   UNL     1       0.006  -0.688  -1.200  0.00  0.00    +0.005 A 
ATOM     11  C   UNL     1       0.025  -2.068  -1.211  0.00  0.00    +0.028 A 
ATOM     12  C   UNL     1       0.040  -2.771  -0.013  0.00  0.00    +0.067 A 
ATOM     13  C   UNL     1       0.037  -2.082   1.192  0.00  0.00    +0.028 A 
ATOM     14  C   UNL     1       0.023  -0.700   1.196  0.00  0.00    +0.005 A 
ENDBRANCH   1  12
BRANCH   3  15
ATOM     15  C   UNL     1       0.966  -7.472   1.193  0.00  0.00    +0.146 C 
ATOM     16  N   UNL     1       1.707  -7.352   2.252  0.00  0.00    -0.171 NA
BRANCH  16  17
ATOM     17  N   UNL     1       2.185  -8.496   2.905  0.00  0.00    -0.191 N 
ATOM     18  C   UNL     1       1.571  -9.190   3.913  0.00  0.00    +0.153 A 
ATOM     19  N   UNL     1       2.354 -10.183   4.232  0.00  0.00    -0.132 NA
ATOM     20  N   UNL     1       3.411 -10.165   3.502  0.00  0.00    -0.120 NA
ATOM     21  C   UNL     1       3.359  -9.155   2.664  0.00  0.00    +0.223 A 
ATOM     22  S   UNL     1       4.574  -8.726   1.462  0.00  0.00    -0.007 SA
ATOM     23  C   UNL     1       0.239  -8.865   4.539  0.00  0.00    +0.090 C 
ENDBRANCH  16  17
ENDBRANCH   3  15
TORSDOF 3
