REMARK  Name = ZINC38776432
REMARK  9 active torsions:
REMARK  status: ('A' for Active; 'I' for Inactive)
REMARK    1  A    between atoms: C_1  and  C_2
REMARK    2  A    between atoms: C_7  and  O_31
REMARK    3  A    between atoms: C_13  and  C_15
REMARK    4  A    between atoms: C_15  and  C_16
REMARK    5  A    between atoms: C_16  and  C_17
REMARK    6  A    between atoms: C_17  and  N_19
REMARK    7  A    between atoms: O_31  and  C_32
REMARK    8  A    between atoms: C_32  and  C_33
REMARK    9  A    between atoms: C_33  and  C_35
REMARK                            x       y       z     vdW  Elec       q    Type
REMARK                         _______ _______ _______ _____ _____    ______ ____
ROOT
ATOM      1  C   UNL     1       0.005   1.481  -0.029  0.00  0.00    +0.013 C 
ATOM      2  C   UNL     1       0.029  -0.049  -0.024  0.00  0.00    +0.033 C 
ATOM      3  C   UNL     1       0.741  -0.542  -1.259  0.00  0.00    -0.001 A 
ATOM      4  C   UNL     1       0.517   0.118  -2.457  0.00  0.00    +0.011 A 
ATOM      5  C   UNL     1       1.141  -0.302  -3.614  0.00  0.00    +0.046 A 
ATOM      6  C   UNL     1       1.999  -1.393  -3.582  0.00  0.00    +0.124 A 
ATOM      7  C   UNL     1       2.228  -2.053  -2.387  0.00  0.00    +0.092 A 
ATOM      8  C   UNL     1       1.601  -1.625  -1.222  0.00  0.00    +0.139 A 
ATOM      9  O   UNL     1       1.869  -2.290  -0.064  0.00  0.00    -0.425 OA
ATOM     10  C   UNL     1       1.108  -2.001   1.011  0.00  0.00    +0.316 C 
ATOM     11  O   UNL     1       0.724  -2.864   1.764  0.00  0.00    -0.250 OA
ATOM     12  C   UNL     1       0.760  -0.542   1.228  0.00  0.00    +0.106 C 
ENDROOT
BRANCH  12  13
ATOM     13  C   UNL     1       2.038   0.272   1.438  0.00  0.00    +0.024 C 
BRANCH  13  14
ATOM     14  C   UNL     1       2.696  -0.143   2.756  0.00  0.00    +0.099 C 
BRANCH  14  15
ATOM     15  C   UNL     1       3.955   0.659   2.963  0.00  0.00    +0.239 C 
ATOM     16  O   UNL     1       4.294   1.484   2.136  0.00  0.00    -0.274 OA
BRANCH  15  17
ATOM     17  N   UNL     1       4.696   0.466   4.050  0.00  0.00    -0.147 NA
ATOM     18  C   UNL     1       5.859   1.097   4.184  0.00  0.00    +0.198 A 
ATOM     19  N   UNL     1       6.342   2.045   3.338  0.00  0.00    -0.326 N 
ATOM     20  H   UNL     1       5.899   2.374   2.541  0.00  0.00    +0.169 HD
ATOM     21  C   UNL     1       7.581   2.463   3.813  0.00  0.00    +0.065 A 
ATOM     22  C   UNL     1       8.506   3.392   3.358  0.00  0.00    +0.028 A 
ATOM     23  C   UNL     1       9.678   3.595   4.058  0.00  0.00    +0.002 A 
ATOM     24  C   UNL     1       9.935   2.876   5.213  0.00  0.00    +0.002 A 
ATOM     25  C   UNL     1       9.022   1.950   5.675  0.00  0.00    +0.028 A 
ATOM     26  C   UNL     1       7.840   1.738   4.978  0.00  0.00    +0.065 A 
ATOM     27  N   UNL     1       6.751   0.899   5.190  0.00  0.00    -0.326 N 
ATOM     28  H   UNL     1       6.647   0.278   5.927  0.00  0.00    +0.169 HD
ENDBRANCH  15  17
ENDBRANCH  14  15
ENDBRANCH  13  14
ENDBRANCH  12  13
BRANCH   6  29
ATOM     29  O   UNL     1       2.612  -1.811  -4.720  0.00  0.00    -0.488 OA
BRANCH  29  30
ATOM     30  C   UNL     1       2.328  -1.082  -5.916  0.00  0.00    +0.259 C 
BRANCH  30  31
ATOM     31  C   UNL     1       3.091  -1.686  -7.066  0.00  0.00    -0.043 C 
ATOM     32  C   UNL     1       3.866  -2.724  -6.866  0.00  0.00    +0.011 C 
ATOM     33  C   UNL     1       2.964  -1.097  -8.448  0.00  0.00    +0.042 C 
ENDBRANCH  30  31
ENDBRANCH  29  30
ENDBRANCH   6  29
TORSDOF 7
