REMARK  Name = ZINC02689856
REMARK  8 active torsions:
REMARK  status: ('A' for Active; 'I' for Inactive)
REMARK    1  A    between atoms: C_1  and  C_2
REMARK    2  A    between atoms: C_4  and  O_12
REMARK    3  A    between atoms: C_5  and  C_9
REMARK    4  A    between atoms: C_9  and  C_10
REMARK    5  A    between atoms: C_9  and  C_11
REMARK    6  A    between atoms: O_12  and  C_13
REMARK    7  A    between atoms: N_15  and  C_16
REMARK    8  A    between atoms: C_16  and  C_27
REMARK                            x       y       z     vdW  Elec       q    Type
REMARK                         _______ _______ _______ _____ _____    ______ ____
ROOT
ATOM      1  C   UNL     1       3.770   2.822   3.816  0.00  0.00    +0.411 C 
ATOM      2  O   UNL     1       4.355   1.811   4.150  0.00  0.00    -0.226 OA
ATOM      3  N   UNL     1       4.450   3.839   3.251  0.00  0.00    -0.201 N 
ATOM      4  H   UNL     1       3.983   4.646   2.985  0.00  0.00    +0.160 HD
ENDROOT
BRANCH   3   5
ATOM      5  C   UNL     1       5.896   3.726   3.041  0.00  0.00    +0.437 C 
ATOM      6  O   UNL     1       6.205   2.544   2.278  0.00  0.00    -0.426 OA
ATOM      7  C   UNL     1       6.423   1.562   3.201  0.00  0.00    +0.170 A 
ATOM      8  C   UNL     1       6.447   0.182   3.084  0.00  0.00    +0.071 A 
ATOM      9  C   UNL     1       6.697  -0.603   4.196  0.00  0.00    +0.063 A 
ATOM     10  C   UNL     1       6.923  -0.011   5.427  0.00  0.00    +0.063 A 
ATOM     11  C   UNL     1       6.900   1.367   5.549  0.00  0.00    +0.071 A 
ATOM     12  C   UNL     1       6.651   2.157   4.439  0.00  0.00    +0.170 A 
ATOM     13  O   UNL     1       6.574   3.513   4.292  0.00  0.00    -0.426 OA
ATOM     14 CL   UNL     1       7.235  -1.000   6.819  0.00  0.00    -0.082 Cl
ATOM     15 CL   UNL     1       6.726  -2.332   4.047  0.00  0.00    -0.082 Cl
BRANCH   5  16
ATOM     16  C   UNL     1       6.435   4.976   2.343  0.00  0.00    +0.491 C 
ATOM     17  F   UNL     1       7.806   4.825   2.110  0.00  0.00    -0.162 F 
ATOM     18  F   UNL     1       5.772   5.153   1.124  0.00  0.00    -0.162 F 
ATOM     19  F   UNL     1       6.220   6.094   3.157  0.00  0.00    -0.162 F 
ENDBRANCH   5  16
ENDBRANCH   3   5
BRANCH   1  20
ATOM     20  O   UNL     1       2.441   2.926   4.010  0.00  0.00    -0.411 OA
BRANCH  20  24
ATOM     21  C   UNL     1       0.016  -1.308   3.906  0.00  0.00    +0.045 C 
ATOM     22  C   UNL     1       0.641  -0.167   4.666  0.00  0.00    -0.029 A 
ATOM     23  C   UNL     1       1.258   0.863   3.982  0.00  0.00    +0.051 A 
ATOM     24  C   UNL     1       1.834   1.912   4.682  0.00  0.00    +0.137 A 
ATOM     25  C   UNL     1       1.795   1.923   6.069  0.00  0.00    -0.001 A 
ATOM     26  C   UNL     1       1.173   0.895   6.749  0.00  0.00    +0.027 A 
ATOM     27  C   UNL     1       0.598  -0.151   6.049  0.00  0.00    +0.044 A 
ATOM     28 CL   UNL     1      -0.177  -1.446   6.907  0.00  0.00    -0.083 Cl
BRANCH  25  29
ATOM     29  C   UNL     1       2.425   3.060   6.832  0.00  0.00    +0.016 C 
ATOM     30  C   UNL     1       1.359   3.761   7.676  0.00  0.00    +0.012 C 
ATOM     31  C   UNL     1       3.523   2.513   7.747  0.00  0.00    +0.012 C 
ENDBRANCH  25  29
ENDBRANCH  20  24
ENDBRANCH   1  20
TORSDOF 5
