REMARK  Name = ZINC22108016
REMARK  13 active torsions:
REMARK  status: ('A' for Active; 'I' for Inactive)
REMARK    1  A    between atoms: C_1  and  C_2
REMARK    2  A    between atoms: C_2  and  O_3
REMARK    3  A    between atoms: O_3  and  C_4
REMARK    4  A    between atoms: C_6  and  C_14
REMARK    5  A    between atoms: C_9  and  O_10
REMARK    6  A    between atoms: O_10  and  C_11
REMARK    7  A    between atoms: C_11  and  C_12
REMARK    8  A    between atoms: C_14  and  N_15
REMARK    9  A    between atoms: N_15  and  C_16
REMARK   10  A    between atoms: C_16  and  C_17
REMARK   11  A    between atoms: C_17  and  S_18
REMARK   12  A    between atoms: S_18  and  C_19
REMARK   13  A    between atoms: N_23  and  C_24
REMARK                            x       y       z     vdW  Elec       q    Type
REMARK                         _______ _______ _______ _____ _____    ______ ____
ROOT
ATOM      1  N   UNL     1       0.713   0.590   7.233  0.00  0.00    +0.382 N 
ATOM      2  H   UNL     1       0.703   1.688   7.157  0.00  0.00    -0.085 HD
ATOM      3  H   UNL     1      -0.316   0.208   7.156  0.00  0.00    -0.085 HD
ENDROOT
BRANCH   1   4
ATOM      4  C   UNL     1       1.526   0.032   6.145  0.00  0.00    -0.047 C 
BRANCH   4   7
ATOM      5  C   UNL     1       0.807   1.987   2.993  0.00  0.00    +0.163 A 
ATOM      6  C   UNL     1       1.347   1.611   4.212  0.00  0.00    +0.051 A 
ATOM      7  C   UNL     1       0.937   0.438   4.818  0.00  0.00    -0.060 A 
ATOM      8  C   UNL     1      -0.012  -0.362   4.211  0.00  0.00    +0.021 A 
ATOM      9  C   UNL     1      -0.559   0.009   2.996  0.00  0.00    +0.063 A 
ATOM     10  C   UNL     1      -0.148   1.182   2.381  0.00  0.00    +0.176 A 
ATOM     11 BR   UNL     1      -1.863  -1.084   2.172  0.00  0.00    -0.046 Br
BRANCH   5  12
ATOM     12  O   UNL     1       1.209   3.141   2.396  0.00  0.00    -0.489 OA
BRANCH  12  14
ATOM     13  C   UNL     1       2.516   5.169   2.264  0.00  0.00    +0.048 C 
ATOM     14  C   UNL     1       2.192   3.918   3.083  0.00  0.00    +0.226 C 
ENDBRANCH  12  14
ENDBRANCH   5  12
BRANCH  10  15
ATOM     15  O   UNL     1      -0.682   1.547   1.184  0.00  0.00    -0.487 OA
BRANCH  15  16
ATOM     16  C   UNL     1      -0.013   1.086   0.008  0.00  0.00    +0.226 C 
ATOM     17  C   UNL     1      -0.753   1.593  -1.232  0.00  0.00    +0.048 C 
ENDBRANCH  15  16
ENDBRANCH  10  15
ENDBRANCH   4   7
ENDBRANCH   1   4
BRANCH   1  18
ATOM     18  C   UNL     1       1.258   0.214   8.544  0.00  0.00    -0.071 C 
BRANCH  18  19
ATOM     19  C   UNL     1       0.387   0.813   9.650  0.00  0.00    +0.058 C 
BRANCH  19  20
ATOM     20  S   UNL     1       1.058   0.349  11.265  0.00  0.00    -0.086 S 
BRANCH  20  21
ATOM     21  C   UNL     1      -0.104   1.148  12.321  0.00  0.00    +0.214 A 
ATOM     22  N   UNL     1      -1.142   1.863  11.943  0.00  0.00    -0.101 NA
ATOM     23  N   UNL     1      -1.782   2.302  12.966  0.00  0.00    -0.022 NA
ATOM     24  N   UNL     1      -1.214   1.910  14.054  0.00  0.00    -0.038 NA
ATOM     25  N   UNL     1      -0.101   1.138  13.678  0.00  0.00    -0.187 N 
BRANCH  25  26
ATOM     26  C   UNL     1       0.816   0.497  14.524  0.00  0.00    +0.070 A 
ATOM     27  C   UNL     1       1.364  -0.724  14.157  0.00  0.00    +0.028 A 
ATOM     28  C   UNL     1       2.271  -1.350  14.989  0.00  0.00    +0.002 A 
ATOM     29  C   UNL     1       2.626  -0.767  16.192  0.00  0.00    +0.000 A 
ATOM     30  C   UNL     1       2.078   0.448  16.562  0.00  0.00    +0.002 A 
ATOM     31  C   UNL     1       1.174   1.081  15.731  0.00  0.00    +0.028 A 
ENDBRANCH  25  26
ENDBRANCH  20  21
ENDBRANCH  19  20
ENDBRANCH  18  19
ENDBRANCH   1  18
TORSDOF 11
