REMARK  Name = ZINC36280796
REMARK  12 active torsions:
REMARK  status: ('A' for Active; 'I' for Inactive)
REMARK    1  A    between atoms: C_1  and  C_2
REMARK    2  A    between atoms: C_2  and  C_3
REMARK    3  A    between atoms: C_2  and  C_4
REMARK    4  A    between atoms: C_7  and  N_10
REMARK    5  A    between atoms: N_12  and  C_33
REMARK    6  A    between atoms: C_15  and  C_18
REMARK    7  A    between atoms: C_18  and  C_19
REMARK    8  A    between atoms: N_21  and  C_22
REMARK    9  A    between atoms: C_24  and  N_30
REMARK   10  A    between atoms: C_27  and  O_28
REMARK   11  A    between atoms: O_28  and  C_29
REMARK   12  A    between atoms: C_33  and  C_34
REMARK                            x       y       z     vdW  Elec       q    Type
REMARK                         _______ _______ _______ _____ _____    ______ ____
ROOT
ATOM      1  N   UNL     1       2.744  -1.911   4.611  0.00  0.00    -0.226 NA
ATOM      2  C   UNL     1       2.154  -1.865   5.782  0.00  0.00    +0.164 C 
ATOM      3  N   UNL     1       2.652  -2.267   7.003  0.00  0.00    -0.246 N 
ATOM      4  C   UNL     1       1.955  -2.168   8.122  0.00  0.00    +0.235 C 
ATOM      5  O   UNL     1       2.400  -2.523   9.192  0.00  0.00    -0.274 OA
ATOM      6  C   UNL     1       0.559  -1.581   7.982  0.00  0.00    +0.149 C 
ATOM      7  S   UNL     1       0.518  -1.259   6.170  0.00  0.00    -0.077 S 
ENDROOT
BRANCH   1  11
ATOM      8  C   UNL     1       0.768  -0.541   1.241  0.00  0.00    -0.045 A 
ATOM      9  C   UNL     1       2.089  -0.190   1.456  0.00  0.00    +0.006 A 
ATOM     10  C   UNL     1       2.753  -0.643   2.577  0.00  0.00    +0.028 A 
ATOM     11  C   UNL     1       2.090  -1.458   3.496  0.00  0.00    +0.067 A 
ATOM     12  C   UNL     1       0.757  -1.808   3.273  0.00  0.00    +0.028 A 
ATOM     13  C   UNL     1       0.103  -1.344   2.151  0.00  0.00    +0.006 A 
BRANCH   8  15
ATOM     14  C   UNL     1       0.036   1.487   0.018  0.00  0.00    +0.012 C 
ATOM     15  C   UNL     1       0.049  -0.043   0.015  0.00  0.00    +0.013 C 
ATOM     16  C   UNL     1       0.770  -0.544  -1.238  0.00  0.00    +0.012 C 
ENDBRANCH   8  15
ENDBRANCH   1  11
BRANCH   6  17
ATOM     17  C   UNL     1       0.423  -0.280   8.775  0.00  0.00    +0.120 C 
BRANCH  17  18
ATOM     18  C   UNL     1      -1.004   0.202   8.710  0.00  0.00    +0.219 C 
ATOM     19  O   UNL     1      -1.830  -0.434   8.089  0.00  0.00    -0.275 OA
ATOM     20  N   UNL     1      -1.361   1.338   9.340  0.00  0.00    -0.282 N 
ATOM     21  H   UNL     1      -0.717   1.811   9.889  0.00  0.00    +0.155 HD
BRANCH  20  22
ATOM     22  C   UNL     1      -2.664   1.835   9.203  0.00  0.00    +0.078 A 
ATOM     23  C   UNL     1      -3.734   0.960   9.088  0.00  0.00    +0.059 A 
ATOM     24  C   UNL     1      -5.018   1.452   8.953  0.00  0.00    +0.128 A 
ATOM     25  C   UNL     1      -5.240   2.817   8.931  0.00  0.00    +0.036 A 
ATOM     26  C   UNL     1      -4.179   3.696   9.044  0.00  0.00    +0.050 A 
ATOM     27  C   UNL     1      -2.889   3.210   9.186  0.00  0.00    +0.141 A 
BRANCH  24  28
ATOM     28  N   UNL     1      -6.159   0.517   8.831  0.00  0.00    +0.056 N 
ATOM     29  O   UNL     1      -5.967  -0.676   8.850  0.00  0.00    -0.126 OA
ATOM     30  O   UNL     1      -7.283   0.947   8.712  0.00  0.00    -0.126 OA
ENDBRANCH  24  28
BRANCH  27  31
ATOM     31  O   UNL     1      -1.845   4.072   9.303  0.00  0.00    -0.493 OA
ATOM     32  C   UNL     1      -2.150   5.468   9.278  0.00  0.00    +0.277 C 
ENDBRANCH  27  31
ENDBRANCH  20  22
ENDBRANCH  17  18
ENDBRANCH   6  17
BRANCH   3  33
ATOM     33  C   UNL     1       4.006  -2.824   7.063  0.00  0.00    +0.142 C 
BRANCH  33  34
ATOM     34  C   UNL     1       4.997  -1.713   7.298  0.00  0.00    -0.015 C 
ATOM     35  C   UNL     1       5.825  -1.777   8.310  0.00  0.00    +0.005 C 
ENDBRANCH  33  34
ENDBRANCH   3  33
TORSDOF 9
