REMARK  Name = ZINC11293969
REMARK  11 active torsions:
REMARK  status: ('A' for Active; 'I' for Inactive)
REMARK    1  A    between atoms: C_1  and  C_2
REMARK    2  A    between atoms: C_7  and  C_8
REMARK    3  A    between atoms: C_7  and  C_9
REMARK    4  A    between atoms: N_12  and  N_13
REMARK    5  A    between atoms: C_14  and  C_16
REMARK    6  A    between atoms: C_16  and  O_17
REMARK    7  A    between atoms: O_17  and  C_18
REMARK    8  A    between atoms: C_18  and  C_20
REMARK    9  A    between atoms: C_24  and  S_26
REMARK   10  A    between atoms: S_26  and  N_29
REMARK   11  A    between atoms: N_29  and  C_30
REMARK                            x       y       z     vdW  Elec       q    Type
REMARK                         _______ _______ _______ _____ _____    ______ ____
ROOT
ATOM      1  C   UNL     1       2.708  -1.102  -5.528  0.00  0.00    +0.329 C 
ENDROOT
BRANCH   1   3
ATOM      2  N   UNL     1       1.686  -0.866  -3.288  0.00  0.00    -0.204 N 
ATOM      3  C   UNL     1       1.982  -0.303  -4.476  0.00  0.00    +0.270 C 
ATOM      4  O   UNL     1       1.664   0.846  -4.700  0.00  0.00    -0.270 OA
ATOM      5  H   UNL     1       1.941  -1.784  -3.109  0.00  0.00    +0.177 HD
BRANCH   2  16
ATOM      6  C   UNL     1      -0.019   1.526   0.010  0.00  0.00    +0.018 C 
ATOM      7  C   UNL     1       0.002  -0.004   0.002  0.00  0.00    +0.013 C 
ATOM      8  C   UNL     1      -1.390  -0.703   0.064  0.00  0.00    +0.013 C 
ATOM      9  C   UNL     1      -1.085  -2.137   0.556  0.00  0.00    +0.005 C 
ATOM     10  C   UNL     1       0.465  -2.165   0.735  0.00  0.00    +0.001 C 
ATOM     11  C   UNL     1       0.727  -0.692   1.212  0.00  0.00    -0.021 C 
ATOM     12  C   UNL     1       0.040  -0.388   2.544  0.00  0.00    +0.012 C 
ATOM     13  C   UNL     1       2.220  -0.359   1.253  0.00  0.00    +0.012 C 
ATOM     14  C   UNL     1       1.022  -2.111  -0.721  0.00  0.00    +0.057 C 
ATOM     15  C   UNL     1       0.731  -0.657  -1.181  0.00  0.00    +0.044 C 
ATOM     16  N   UNL     1       1.011  -0.123  -2.310  0.00  0.00    -0.189 NA
ENDBRANCH   2  16
ENDBRANCH   1   3
BRANCH   1  17
ATOM     17  O   UNL     1       2.904  -0.293  -6.690  0.00  0.00    -0.452 OA
BRANCH  17  18
ATOM     18  C   UNL     1       3.543  -0.862  -7.731  0.00  0.00    +0.340 C 
ATOM     19  O   UNL     1       3.923  -2.013  -7.654  0.00  0.00    -0.245 OA
BRANCH  18  20
ATOM     20  C   UNL     1       3.781  -0.086  -8.965  0.00  0.00    +0.061 A 
ATOM     21  C   UNL     1       3.350   1.239  -9.054  0.00  0.00    +0.015 A 
ATOM     22  C   UNL     1       3.575   1.958 -10.209  0.00  0.00    +0.003 A 
ATOM     23  C   UNL     1       4.227   1.369 -11.279  0.00  0.00    +0.028 A 
ATOM     24  C   UNL     1       4.656   0.056 -11.197  0.00  0.00    +0.106 A 
ATOM     25  C   UNL     1       4.442  -0.673 -10.045  0.00  0.00    +0.043 A 
BRANCH  24  26
ATOM     26  S   UNL     1       5.484  -0.685 -12.565  0.00  0.00    +0.058 S 
ATOM     27  O   UNL     1       5.300  -2.088 -12.439  0.00  0.00    -0.153 OA
ATOM     28  O   UNL     1       5.082   0.036 -13.722  0.00  0.00    -0.153 OA
BRANCH  26  29
ATOM     29  N   UNL     1       7.103  -0.401 -12.370  0.00  0.00    -0.193 NA
ATOM     30  C   UNL     1       7.819  -0.991 -11.236  0.00  0.00    +0.127 C 
ATOM     31  H   UNL     1       7.578   0.157 -13.006  0.00  0.00    +0.148 HD
ENDBRANCH  26  29
ENDBRANCH  24  26
ENDBRANCH  18  20
ENDBRANCH  17  18
ENDBRANCH   1  17
TORSDOF 7
