REMARK  Name = ZINC03456712
REMARK  9 active torsions:
REMARK  status: ('A' for Active; 'I' for Inactive)
REMARK    1  A    between atoms: C_1  and  C_2
REMARK    2  A    between atoms: C_2  and  C_4
REMARK    3  A    between atoms: C_2  and  O_13
REMARK    4  A    between atoms: N_6  and  C_7
REMARK    5  A    between atoms: C_7  and  C_8
REMARK    6  A    between atoms: O_13  and  C_14
REMARK    7  A    between atoms: C_14  and  C_16
REMARK    8  A    between atoms: C_19  and  S_22
REMARK    9  A    between atoms: S_22  and  N_25
REMARK                            x       y       z     vdW  Elec       q    Type
REMARK                         _______ _______ _______ _____ _____    ______ ____
ROOT
ATOM      1  C   UNL     1       3.930  -3.389  -2.874  0.00  0.00    +0.059 A 
ATOM      2  C   UNL     1       4.600  -2.172  -2.732  0.00  0.00    +0.017 A 
ATOM      3  C   UNL     1       4.490  -1.462  -1.555  0.00  0.00    +0.029 A 
ATOM      4  C   UNL     1       3.718  -1.952  -0.516  0.00  0.00    +0.109 A 
ATOM      5  C   UNL     1       3.056  -3.160  -0.649  0.00  0.00    +0.029 A 
ATOM      6  C   UNL     1       3.153  -3.878  -1.822  0.00  0.00    +0.017 A 
ENDROOT
BRANCH   4   7
ATOM      7  S   UNL     1       3.584  -1.038   0.984  0.00  0.00    +0.075 S 
ATOM      8  O   UNL     1       4.738  -0.213   1.062  0.00  0.00    -0.150 OA
ATOM      9  O   UNL     1       3.245  -1.972   2.000  0.00  0.00    -0.150 OA
BRANCH   7  10
ATOM     10  N   UNL     1       2.286  -0.022   0.823  0.00  0.00    -0.203 N 
ATOM     11  C   UNL     1       2.474   1.366   0.380  0.00  0.00    +0.132 C 
ATOM     12  C   UNL     1       1.621   2.267   1.283  0.00  0.00    +0.025 C 
ATOM     13  C   UNL     1       0.148   1.908   1.088  0.00  0.00    +0.038 C 
ATOM     14  C   UNL     1      -0.058   0.424   1.244  0.00  0.00    -0.025 A 
ATOM     15  C   UNL     1       0.992  -0.471   1.108  0.00  0.00    +0.054 A 
ATOM     16  C   UNL     1       0.765  -1.835   1.254  0.00  0.00    +0.025 A 
ATOM     17  C   UNL     1      -0.504  -2.299   1.538  0.00  0.00    +0.002 A 
ATOM     18  C   UNL     1      -1.549  -1.405   1.677  0.00  0.00    +0.000 A 
ATOM     19  C   UNL     1      -1.327  -0.049   1.530  0.00  0.00    +0.005 A 
ENDBRANCH   7  10
ENDBRANCH   4   7
BRANCH   1  20
ATOM     20  C   UNL     1       4.043  -4.156  -4.132  0.00  0.00    +0.340 C 
ATOM     21  O   UNL     1       4.720  -3.728  -5.045  0.00  0.00    -0.245 OA
BRANCH  20  22
ATOM     22  O   UNL     1       3.396  -5.330  -4.266  0.00  0.00    -0.449 OA
BRANCH  22  24
ATOM     23  C   UNL     1       2.458  -5.579  -6.500  0.00  0.00    +0.062 C 
ATOM     24  C   UNL     1       3.552  -6.028  -5.529  0.00  0.00    +0.259 C 
BRANCH  24  25
ATOM     25  C   UNL     1       3.441  -7.513  -5.299  0.00  0.00    +0.254 C 
ATOM     26  O   UNL     1       3.159  -7.937  -4.198  0.00  0.00    -0.272 OA
ATOM     27  N   UNL     1       3.655  -8.371  -6.316  0.00  0.00    -0.305 N 
ATOM     28  H   UNL     1       3.881  -8.033  -7.197  0.00  0.00    +0.149 HD
BRANCH  27  29
ATOM     29  C   UNL     1       3.547  -9.815  -6.092  0.00  0.00    +0.178 C 
BRANCH  29  30
ATOM     30  C   UNL     1       3.831 -10.546  -7.379  0.00  0.00    +0.122 A 
ATOM     31  C   UNL     1       5.039 -10.967  -7.795  0.00  0.00    +0.046 A 
ATOM     32  C   UNL     1       4.845 -11.598  -9.044  0.00  0.00    +0.041 A 
ATOM     33  C   UNL     1       3.530 -11.525  -9.318  0.00  0.00    +0.195 A 
ATOM     34  O   UNL     1       2.920 -10.892  -8.303  0.00  0.00    -0.466 OA
ENDBRANCH  29  30
ENDBRANCH  27  29
ENDBRANCH  24  25
ENDBRANCH  22  24
ENDBRANCH  20  22
ENDBRANCH   1  20
TORSDOF 8
