REMARK  Name = ZINC02192035
REMARK  5 active torsions:
REMARK  status: ('A' for Active; 'I' for Inactive)
REMARK    1  A    between atoms: C_1  and  C_2
REMARK    2  A    between atoms: N_8  and  C_9
REMARK    3  A    between atoms: C_12  and  O_15
REMARK    4  A    between atoms: O_15  and  C_16
REMARK    5  A    between atoms: N_22  and  C_23
REMARK                            x       y       z     vdW  Elec       q    Type
REMARK                         _______ _______ _______ _____ _____    ______ ____
ROOT
ATOM      1  C   UNL     1      -6.213   0.813  -1.214  0.00  0.00    +0.021 C 
ATOM      2  C   UNL     1      -5.741   1.657  -0.028  0.00  0.00    +0.072 C 
ATOM      3  C   UNL     1      -6.019   3.159  -0.262  0.00  0.00    +0.158 C 
ATOM      4  N   UNL     1      -4.812   3.952  -0.295  0.00  0.00    -0.262 NA
ATOM      5  C   UNL     1      -3.639   3.425  -0.150  0.00  0.00    +0.164 C 
ATOM      6  S   UNL     1      -3.910   1.680   0.084  0.00  0.00    -0.085 S 
ATOM      7  N   UNL     1      -2.423   4.084  -0.168  0.00  0.00    -0.203 N 
ATOM      8  C   UNL     1      -1.275   3.381  -0.101  0.00  0.00    +0.317 C 
ATOM      9  O   UNL     1      -1.304   2.166  -0.114  0.00  0.00    -0.252 OA
ATOM     10  N   UNL     1      -0.094   4.026  -0.019  0.00  0.00    -0.269 N 
ATOM     11  H   UNL     1      -0.073   4.993   0.053  0.00  0.00    +0.156 HD
ENDROOT
BRANCH  10  12
ATOM     12  C   UNL     1       1.103   3.299  -0.036  0.00  0.00    +0.036 A 
ATOM     13  C   UNL     1       1.169   2.053   0.574  0.00  0.00    +0.025 A 
ATOM     14  C   UNL     1       2.352   1.340   0.559  0.00  0.00    +0.023 A 
ATOM     15  C   UNL     1       3.471   1.866  -0.061  0.00  0.00    +0.059 A 
ATOM     16  C   UNL     1       3.408   3.108  -0.670  0.00  0.00    +0.061 A 
ATOM     17  C   UNL     1       2.226   3.825  -0.659  0.00  0.00    +0.044 A 
ATOM     18 CL   UNL     1       4.814   3.765  -1.448  0.00  0.00    -0.082 Cl
ATOM     19 CL   UNL     1       4.956   0.967  -0.077  0.00  0.00    -0.082 Cl
ENDBRANCH  10  12
BRANCH   7  20
ATOM     20  C   UNL     1      -2.384   5.484  -0.255  0.00  0.00    +0.045 A 
ATOM     21  C   UNL     1      -1.904   6.233   0.811  0.00  0.00    +0.027 A 
ATOM     22  C   UNL     1      -1.863   7.611   0.723  0.00  0.00    +0.048 A 
ATOM     23  C   UNL     1      -2.309   8.246  -0.427  0.00  0.00    +0.129 A 
ATOM     24  C   UNL     1      -2.794   7.498  -1.490  0.00  0.00    +0.048 A 
ATOM     25  C   UNL     1      -2.831   6.120  -1.405  0.00  0.00    +0.027 A 
BRANCH  23  26
ATOM     26  O   UNL     1      -2.273   9.603  -0.511  0.00  0.00    -0.420 OA
BRANCH  26  27
ATOM     27  C   UNL     1      -1.762  10.310   0.621  0.00  0.00    +0.489 C 
ATOM     28  F   UNL     1      -2.547  10.024   1.743  0.00  0.00    -0.149 F 
ATOM     29  F   UNL     1      -0.442   9.912   0.862  0.00  0.00    -0.149 F 
ATOM     30 CL   UNL     1      -1.806  12.082   0.293  0.00  0.00    +0.000 Cl
ENDBRANCH  26  27
ENDBRANCH  23  26
ENDBRANCH   7  20
TORSDOF 4
