REMARK  Name = ZINC07919136
REMARK  12 active torsions:
REMARK  status: ('A' for Active; 'I' for Inactive)
REMARK    1  A    between atoms: C_1  and  C_2
REMARK    2  A    between atoms: C_4  and  C_31
REMARK    3  A    between atoms: C_5  and  N_9
REMARK    4  A    between atoms: C_6  and  C_8
REMARK    5  A    between atoms: C_10  and  C_12
REMARK    6  A    between atoms: C_12  and  N_66
REMARK    7  A    between atoms: C_13  and  N_66
REMARK    8  A    between atoms: C_14  and  C_15
REMARK    9  A    between atoms: C_14  and  N_66
REMARK   10  A    between atoms: N_17  and  C_18
REMARK   11  A    between atoms: C_18  and  C_20
REMARK   12  A    between atoms: C_18  and  C_21
REMARK                            x       y       z     vdW  Elec       q    Type
REMARK                         _______ _______ _______ _____ _____    ______ ____
ROOT
ATOM      1  C   UNL     1      -1.644   4.369   3.908  0.00  0.00    +0.019 C 
ENDROOT
BRANCH   1   2
ATOM      2  C   UNL     1      -1.360   2.889   3.920  0.00  0.00    +0.197 C 
ATOM      3  O   UNL     1      -2.226   2.108   4.256  0.00  0.00    -0.278 OA
ATOM      4  N   UNL     1      -0.145   2.432   3.558  0.00  0.00    -0.310 N 
ATOM      5  H   UNL     1       0.547   3.057   3.290  0.00  0.00    +0.149 HD
BRANCH   4   6
ATOM      6  C   UNL     1       0.131   0.994   3.570  0.00  0.00    +0.100 C 
ATOM      7  C   UNL     1      -0.332   0.375   2.250  0.00  0.00    +0.033 C 
BRANCH   6   8
ATOM      8  C   UNL     1       1.611   0.767   3.738  0.00  0.00    -0.027 A 
ATOM      9  C   UNL     1       2.517   1.576   3.076  0.00  0.00    +0.006 A 
ATOM     10  C   UNL     1       3.870   1.358   3.229  0.00  0.00    +0.004 A 
ATOM     11  C   UNL     1       4.332   0.331   4.043  0.00  0.00    -0.044 A 
ATOM     12  C   UNL     1       3.430  -0.472   4.705  0.00  0.00    -0.044 A 
ATOM     13  C   UNL     1       2.068  -0.251   4.549  0.00  0.00    +0.009 A 
ATOM     14  C   UNL     1       3.859  -1.597   5.610  0.00  0.00    +0.035 C 
ATOM     15  C   UNL     1       5.313  -1.979   5.340  0.00  0.00    +0.005 C 
ATOM     16  C   UNL     1       6.164  -0.704   5.382  0.00  0.00    +0.005 C 
ATOM     17  C   UNL     1       5.822   0.143   4.157  0.00  0.00    +0.035 C 
ENDBRANCH   6   8
ENDBRANCH   4   6
ENDBRANCH   1   2
BRANCH   1  19
ATOM     18  C   UNL     1      -3.984   4.058   3.368  0.00  0.00    -0.095 C 
ATOM     19  N   UNL     1      -3.032   4.592   4.365  0.00  0.00    +0.389 N 
ATOM     20  H   UNL     1      -3.172   4.101   5.256  0.00  0.00    -0.081 HD
BRANCH  19  21
ATOM     21  C   UNL     1      -3.271   6.036   4.569  0.00  0.00    +0.019 C 
BRANCH  21  23
ATOM     22  N   UNL     1      -5.044   7.455   5.549  0.00  0.00    -0.287 N 
ATOM     23  C   UNL     1      -4.608   6.218   5.240  0.00  0.00    +0.201 C 
ATOM     24  O   UNL     1      -5.291   5.251   5.502  0.00  0.00    -0.278 OA
ATOM     25  H   UNL     1      -4.475   8.224   5.388  0.00  0.00    +0.155 HD
BRANCH  22  30
ATOM     26  C   UNL     1     -10.206   8.166   7.793  0.00  0.00    +0.044 C 
ATOM     27  C   UNL     1      -8.835   7.977   7.197  0.00  0.00    -0.050 A 
ATOM     28  C   UNL     1      -7.730   8.528   7.819  0.00  0.00    +0.008 A 
ATOM     29  C   UNL     1      -6.472   8.357   7.276  0.00  0.00    -0.029 A 
ATOM     30  C   UNL     1      -6.317   7.630   6.103  0.00  0.00    +0.039 A 
ATOM     31  C   UNL     1      -7.429   7.081   5.477  0.00  0.00    -0.029 A 
ATOM     32  C   UNL     1      -8.684   7.252   6.029  0.00  0.00    +0.008 A 
ATOM     33  C   UNL     1      -7.266   6.296   4.201  0.00  0.00    +0.045 C 
ATOM     34  C   UNL     1      -5.268   8.958   7.955  0.00  0.00    +0.045 C 
ENDBRANCH  22  30
ENDBRANCH  21  23
ENDBRANCH  19  21
ENDBRANCH   1  19
TORSDOF 7
