REMARK  Name = ZINC63818546
REMARK  12 active torsions:
REMARK  status: ('A' for Active; 'I' for Inactive)
REMARK    1  A    between atoms: C_1  and  C_2
REMARK    2  A    between atoms: C_3  and  C_31
REMARK    3  A    between atoms: C_4  and  C_20
REMARK    4  A    between atoms: C_6  and  C_8
REMARK    5  A    between atoms: C_10  and  O_18
REMARK    6  A    between atoms: C_11  and  O_16
REMARK    7  A    between atoms: C_12  and  O_14
REMARK    8  A    between atoms: O_14  and  C_15
REMARK    9  A    between atoms: O_16  and  C_17
REMARK   10  A    between atoms: O_18  and  C_19
REMARK   11  A    between atoms: C_31  and  O_33
REMARK   12  A    between atoms: O_33  and  C_34
REMARK                            x       y       z     vdW  Elec       q    Type
REMARK                         _______ _______ _______ _____ _____    ______ ____
ROOT
ATOM      1  C   UNL     1       0.606   1.270   0.842  0.00  0.00    +0.066 C 
ATOM      2  C   UNL     1       0.160  -0.148   0.589  0.00  0.00    +0.049 C 
ATOM      3  C   UNL     1      -1.024  -0.478   0.009  0.00  0.00    +0.067 C 
ATOM      4  C   UNL     1      -1.030  -1.995  -0.033  0.00  0.00    +0.093 C 
ATOM      5  C   UNL     1       0.301  -2.353   0.599  0.00  0.00    +0.058 C 
ATOM      6  N   UNL     1       0.882  -1.220   0.903  0.00  0.00    -0.255 NA
ENDROOT
BRANCH   4   7
ATOM      7  C   UNL     1      -1.101  -2.497  -1.477  0.00  0.00    +0.120 C 
ATOM      8  C   UNL     1      -2.400  -2.072  -2.122  0.00  0.00    -0.013 A 
ATOM      9  C   UNL     1      -3.720  -2.338  -1.832  0.00  0.00    +0.006 A 
ATOM     10  C   UNL     1      -4.721  -1.797  -2.619  0.00  0.00    +0.000 A 
ATOM     11  C   UNL     1      -4.392  -0.991  -3.694  0.00  0.00    +0.002 A 
ATOM     12  C   UNL     1      -3.071  -0.724  -3.987  0.00  0.00    +0.023 A 
ATOM     13  C   UNL     1      -2.057  -1.265  -3.199  0.00  0.00    +0.037 A 
ATOM     14  N   UNL     1      -0.669  -1.145  -3.288  0.00  0.00    -0.285 N 
ATOM     15  C   UNL     1      -0.034  -1.834  -2.322  0.00  0.00    +0.226 C 
ATOM     16  O   UNL     1       1.166  -1.910  -2.157  0.00  0.00    -0.275 OA
ATOM     17  H   UNL     1      -0.215  -0.625  -3.969  0.00  0.00    +0.155 HD
ENDBRANCH   4   7
BRANCH   5  18
ATOM     18  C   UNL     1       0.834  -3.700   0.822  0.00  0.00    +0.004 A 
ATOM     19  C   UNL     1       0.040  -4.823   0.552  0.00  0.00    +0.059 A 
ATOM     20  C   UNL     1       0.546  -6.091   0.762  0.00  0.00    +0.166 A 
ATOM     21  C   UNL     1       1.844  -6.254   1.243  0.00  0.00    +0.204 A 
ATOM     22  C   UNL     1       2.637  -5.140   1.513  0.00  0.00    +0.166 A 
ATOM     23  C   UNL     1       2.141  -3.869   1.299  0.00  0.00    +0.059 A 
BRANCH  22  24
ATOM     24  O   UNL     1       3.903  -5.305   1.982  0.00  0.00    -0.491 OA
ATOM     25  C   UNL     1       4.659  -4.120   2.237  0.00  0.00    +0.277 C 
ENDBRANCH  22  24
BRANCH  21  26
ATOM     26  O   UNL     1       2.338  -7.503   1.448  0.00  0.00    -0.488 OA
ATOM     27  C   UNL     1       3.013  -8.122   0.352  0.00  0.00    +0.277 C 
ENDBRANCH  21  26
BRANCH  20  28
ATOM     28  O   UNL     1      -0.223  -7.181   0.501  0.00  0.00    -0.491 OA
ATOM     29  C   UNL     1      -1.569  -6.941   0.084  0.00  0.00    +0.277 C 
ENDBRANCH  20  28
ENDBRANCH   5  18
BRANCH   3  30
ATOM     30  C   UNL     1      -2.031   0.400  -0.452  0.00  0.00    +0.337 C 
ATOM     31  O   UNL     1      -1.834   1.601  -0.462  0.00  0.00    -0.245 OA
BRANCH  30  32
ATOM     32  O   UNL     1      -3.211  -0.094  -0.883  0.00  0.00    -0.465 OA
ATOM     33  C   UNL     1      -4.220   0.854  -1.239  0.00  0.00    +0.280 C 
ENDBRANCH  30  32
ENDBRANCH   3  30
TORSDOF 7
