REMARK  Name = ZINC06142262
REMARK  7 active torsions:
REMARK  status: ('A' for Active; 'I' for Inactive)
REMARK    1  A    between atoms: C_3  and  N_31
REMARK    2  A    between atoms: C_6  and  C_7
REMARK    3  A    between atoms: C_10  and  C_12
REMARK    4  A    between atoms: C_13  and  C_14
REMARK    5  A    between atoms: C_13  and  C_16
REMARK    6  A    between atoms: N_18  and  C_19
REMARK    7  A    between atoms: C_20  and  C_28
REMARK                            x       y       z     vdW  Elec       q    Type
REMARK                         _______ _______ _______ _____ _____    ______ ____
ROOT
ATOM      1  C   UNL     1       2.314   4.248   0.003  0.00  0.00    +0.039 C 
ATOM      2  C   UNL     1       1.121   3.538   0.010  0.00  0.00    +0.115 C 
ENDROOT
BRANCH   1   6
ATOM      3  C   UNL     1       1.782   8.303   0.030  0.00  0.00    +0.020 A 
ATOM      4  C   UNL     1       3.105   7.881   0.015  0.00  0.00    +0.017 A 
ATOM      5  C   UNL     1       3.369   6.545   0.011  0.00  0.00    +0.016 A 
ATOM      6  C   UNL     1       2.295   5.652   0.011  0.00  0.00    +0.014 A 
ATOM      7  S   UNL     1       0.891   6.755   0.030  0.00  0.00    -0.089 S 
BRANCH   3  13
ATOM      8  C   UNL     1       2.120  10.770   0.046  0.00  0.00    +0.011 A 
ATOM      9  C   UNL     1       1.614  12.053   0.052  0.00  0.00    +0.033 A 
ATOM     10  C   UNL     1       0.246  12.261   0.066  0.00  0.00    +0.126 A 
ATOM     11  C   UNL     1      -0.624  11.185   0.069  0.00  0.00    +0.033 A 
ATOM     12  C   UNL     1      -0.132   9.896   0.057  0.00  0.00    +0.011 A 
ATOM     13  C   UNL     1       1.248   9.679   0.043  0.00  0.00    -0.011 A 
BRANCH  10  14
ATOM     14  N   UNL     1      -0.290  13.641   0.080  0.00  0.00    +0.056 N 
ATOM     15  O   UNL     1      -1.493  13.827   0.092  0.00  0.00    -0.126 OA
ATOM     16  O   UNL     1       0.473  14.590   0.077  0.00  0.00    -0.126 OA
ENDBRANCH  10  14
ENDBRANCH   3  13
ENDBRANCH   1   6
BRANCH   2  17
ATOM     17  C   UNL     1       1.141   2.071   0.002  0.00  0.00    +0.259 C 
ATOM     18  O   UNL     1       2.203   1.476  -0.011  0.00  0.00    -0.269 OA
ATOM     19  N   UNL     1      -0.017   1.381   0.010  0.00  0.00    -0.275 N 
ATOM     20  H   UNL     1      -0.863   1.855   0.016  0.00  0.00    +0.156 HD
BRANCH  19  21
ATOM     21  C   UNL     1       0.002  -0.004   0.002  0.00  0.00    +0.085 A 
ATOM     22  C   UNL     1      -1.074  -0.881   0.013  0.00  0.00    +0.068 A 
ATOM     23  C   UNL     1      -0.780  -2.304  -0.003  0.00  0.00    -0.023 A 
ATOM     24  C   UNL     1       0.533  -2.620  -0.016  0.00  0.00    -0.004 A 
ATOM     25  S   UNL     1       1.374  -1.062  -0.016  0.00  0.00    -0.077 S 
ATOM     26  C   UNL     1       1.132  -3.993  -0.028  0.00  0.00    +0.043 C 
ATOM     27  C   UNL     1       0.039  -5.001   0.356  0.00  0.00    +0.005 C 
ATOM     28  C   UNL     1      -1.217  -4.703  -0.467  0.00  0.00    +0.005 C 
ATOM     29  C   UNL     1      -1.848  -3.391   0.002  0.00  0.00    +0.037 C 
BRANCH  22  30
ATOM     30  C   UNL     1      -2.455  -0.391   0.036  0.00  0.00    +0.244 C 
ATOM     31  O   UNL     1      -3.044  -0.182  -1.009  0.00  0.00    -0.270 OA
ATOM     32  N   UNL     1      -3.072  -0.171   1.213  0.00  0.00    -0.325 N 
ATOM     33  H   UNL     1      -2.603  -0.337   2.046  0.00  0.00    +0.145 HD
ATOM     34  H   UNL     1      -3.986   0.154   1.228  0.00  0.00    +0.145 HD
ENDBRANCH  22  30
ENDBRANCH  19  21
ENDBRANCH   2  17
BRANCH   2  35
ATOM     35  C   UNL     1      -0.128   4.237   0.026  0.00  0.00    +0.104 C 
ATOM     36  N   UNL     1      -1.120   4.791   0.038  0.00  0.00    -0.191 NA
ENDBRANCH   2  35
TORSDOF 7
