REMARK  Name = ZINC64773091
REMARK  6 active torsions:
REMARK  status: ('A' for Active; 'I' for Inactive)
REMARK    1  A    between atoms: C_1  and  C_2
REMARK    2  A    between atoms: C_7  and  C_8
REMARK    3  A    between atoms: C_8  and  S_9
REMARK    4  A    between atoms: S_9  and  C_10
REMARK    5  A    between atoms: C_16  and  C_24
REMARK    6  A    between atoms: C_28  and  O_30
REMARK                            x       y       z     vdW  Elec       q    Type
REMARK                         _______ _______ _______ _____ _____    ______ ____
ROOT
ATOM      1  C   UNL     1      -2.733   1.329   4.856  0.00  0.00    +0.182 C 
ATOM      2  N   UNL     1      -1.434   1.574   4.852  0.00  0.00    -0.154 NA
ATOM      3  C   UNL     1      -0.835   2.243   5.840  0.00  0.00    +0.249 C 
ATOM      4  O   UNL     1       0.365   2.441   5.840  0.00  0.00    -0.273 OA
ATOM      5  C   UNL     1      -1.724   2.744   6.959  0.00  0.00    +0.148 C 
ATOM      6  C   UNL     1      -1.174   2.212   8.283  0.00  0.00    +0.047 C 
ATOM      7  C   UNL     1      -1.960   2.851   9.431  0.00  0.00    +0.105 C 
ATOM      8  C   UNL     1      -3.438   2.745   9.195  0.00  0.00    +0.219 C 
ATOM      9  O   UNL     1      -4.186   2.878  10.140  0.00  0.00    -0.275 OA
ATOM     10  N   UNL     1      -3.970   2.510   7.984  0.00  0.00    -0.273 N 
ATOM     11  C   UNL     1      -3.176   2.307   6.897  0.00  0.00    +0.117 C 
ATOM     12  N   UNL     1      -3.576   1.655   5.843  0.00  0.00    -0.212 NA
ATOM     13  H   UNL     1      -4.934   2.498   7.877  0.00  0.00    +0.156 HD
ENDROOT
BRANCH   6  14
ATOM     14  C   UNL     1      -1.330   0.714   8.331  0.00  0.00    -0.039 A 
ATOM     15  C   UNL     1      -0.229  -0.101   8.142  0.00  0.00    +0.004 A 
ATOM     16  C   UNL     1      -0.369  -1.476   8.185  0.00  0.00    +0.004 A 
ATOM     17  C   UNL     1      -1.610  -2.038   8.416  0.00  0.00    +0.045 A 
ATOM     18  C   UNL     1      -2.716  -1.222   8.605  0.00  0.00    +0.117 A 
ATOM     19  C   UNL     1      -2.571   0.157   8.568  0.00  0.00    +0.049 A 
BRANCH  18  20
ATOM     20  O   UNL     1      -3.937  -1.773   8.833  0.00  0.00    -0.507 OA
ATOM     21  H   UNL     1      -4.133  -1.922   9.768  0.00  0.00    +0.292 HD
ENDBRANCH  18  20
ENDBRANCH   6  14
BRANCH   1  22
ATOM     22  S   UNL     1      -3.409   0.514   3.447  0.00  0.00    -0.084 S 
BRANCH  22  23
ATOM     23  C   UNL     1      -1.977   0.249   2.364  0.00  0.00    +0.112 C 
BRANCH  23  30
ATOM     24  C   UNL     1      -2.815   1.796   0.073  0.00  0.00    +0.044 C 
ATOM     25  C   UNL     1      -2.823   0.291   0.009  0.00  0.00    -0.046 A 
ATOM     26  C   UNL     1      -3.226  -0.350  -1.148  0.00  0.00    +0.003 A 
ATOM     27  C   UNL     1      -3.233  -1.731  -1.206  0.00  0.00    +0.000 A 
ATOM     28  C   UNL     1      -2.837  -2.471  -0.108  0.00  0.00    +0.000 A 
ATOM     29  C   UNL     1      -2.433  -1.831   1.049  0.00  0.00    +0.005 A 
ATOM     30  C   UNL     1      -2.422  -0.449   1.105  0.00  0.00    -0.034 A 
ENDBRANCH  23  30
ENDBRANCH  22  23
ENDBRANCH   1  22
TORSDOF 5
