REMARK  Name = ZINC04796452
REMARK  12 active torsions:
REMARK  status: ('A' for Active; 'I' for Inactive)
REMARK    1  A    between atoms: C_1  and  C_2
REMARK    2  A    between atoms: C_2  and  C_3
REMARK    3  A    between atoms: C_3  and  C_5
REMARK    4  A    between atoms: C_3  and  C_6
REMARK    5  A    between atoms: C_6  and  C_8
REMARK    6  A    between atoms: C_6  and  N_27
REMARK    7  A    between atoms: C_14  and  C_17
REMARK    8  A    between atoms: N_20  and  C_21
REMARK    9  A    between atoms: C_28  and  C_30
REMARK   10  A    between atoms: C_30  and  C_31
REMARK   11  A    between atoms: C_31  and  C_32
REMARK   12  A    between atoms: C_31  and  C_33
REMARK                            x       y       z     vdW  Elec       q    Type
REMARK                         _______ _______ _______ _____ _____    ______ ____
ROOT
ATOM      1  C   UNL     1       0.116  -3.748   0.970  0.00  0.00    +0.236 C 
ATOM      2  O   UNL     1      -0.892  -4.416   0.883  0.00  0.00    -0.274 OA
ATOM      3  N   UNL     1       0.027  -2.409   1.101  0.00  0.00    -0.297 N 
ATOM      4  C   UNL     1       1.237  -1.575   1.096  0.00  0.00    +0.127 C 
ATOM      5  C   UNL     1       1.093  -0.508   0.004  0.00  0.00    +0.128 C 
ATOM      6  N   UNL     1      -0.215   0.144   0.154  0.00  0.00    -0.280 N 
ATOM      7  C   UNL     1      -1.425  -0.690   0.165  0.00  0.00    +0.092 C 
ATOM      8  C   UNL     1      -1.281  -1.757   1.251  0.00  0.00    +0.130 C 
ATOM      9  C   UNL     1      -2.647   0.181   0.462  0.00  0.00    +0.030 C 
ATOM     10  C   UNL     1      -0.304   1.482   0.286  0.00  0.00    +0.303 C 
ATOM     11  O   UNL     1      -1.394   2.020   0.306  0.00  0.00    -0.253 OA
ATOM     12  N   UNL     1       0.816   2.224   0.391  0.00  0.00    -0.296 N 
ATOM     13  H   UNL     1       1.686   1.806   0.299  0.00  0.00    +0.151 HD
ENDROOT
BRANCH  12  14
ATOM     14  C   UNL     1       0.720   3.664   0.643  0.00  0.00    +0.074 C 
ATOM     15  C   UNL     1       0.530   4.403  -0.683  0.00  0.00    +0.022 C 
ATOM     16  C   UNL     1       0.429   5.907  -0.419  0.00  0.00    +0.002 C 
ATOM     17  C   UNL     1       1.713   6.393   0.256  0.00  0.00    +0.000 C 
ATOM     18  C   UNL     1       1.903   5.655   1.582  0.00  0.00    +0.002 C 
ATOM     19  C   UNL     1       2.004   4.151   1.319  0.00  0.00    +0.022 C 
ENDBRANCH  12  14
BRANCH   1  20
ATOM     20  C   UNL     1       1.467  -4.413   0.932  0.00  0.00    +0.162 C 
BRANCH  20  21
ATOM     21  N   UNL     1       1.324  -5.780   0.425  0.00  0.00    -0.304 N 
ATOM     22  C   UNL     1       2.369  -6.391  -0.168  0.00  0.00    +0.214 C 
ATOM     23  O   UNL     1       3.428  -5.810  -0.280  0.00  0.00    -0.276 OA
ATOM     24  H   UNL     1       0.478  -6.245   0.515  0.00  0.00    +0.149 HD
BRANCH  22  25
ATOM     25  C   UNL     1       2.222  -7.798  -0.690  0.00  0.00    +0.098 C 
BRANCH  25  26
ATOM     26  C   UNL     1       3.545  -8.252  -1.310  0.00  0.00    -0.008 C 
ATOM     27  C   UNL     1       3.435  -9.720  -1.727  0.00  0.00    +0.008 C 
ATOM     28  C   UNL     1       3.853  -7.394  -2.538  0.00  0.00    +0.008 C 
ENDBRANCH  25  26
ENDBRANCH  22  25
ENDBRANCH  20  21
BRANCH  20  29
ATOM     29  C   UNL     1       2.056  -4.452   2.344  0.00  0.00    +0.015 C 
ATOM     30  C   UNL     1       1.204  -5.366   3.227  0.00  0.00    +0.010 C 
BRANCH  29  32
ATOM     31  C   UNL     1       4.373  -4.000   1.526  0.00  0.00    +0.004 C 
ATOM     32  C   UNL     1       3.487  -4.990   2.285  0.00  0.00    +0.002 C 
ENDBRANCH  29  32
ENDBRANCH  20  29
ENDBRANCH   1  20
TORSDOF 7
