REMARK  Name = ZINC20157686
REMARK  10 active torsions:
REMARK  status: ('A' for Active; 'I' for Inactive)
REMARK    1  A    between atoms: C_1  and  C_2
REMARK    2  A    between atoms: C_2  and  C_3
REMARK    3  A    between atoms: C_2  and  C_4
REMARK    4  A    between atoms: C_14  and  C_40
REMARK    5  A    between atoms: C_18  and  C_19
REMARK    6  A    between atoms: C_18  and  C_20
REMARK    7  A    between atoms: C_20  and  N_21
REMARK    8  A    between atoms: N_21  and  C_22
REMARK    9  A    between atoms: N_32  and  C_33
REMARK   10  A    between atoms: C_33  and  C_34
REMARK                            x       y       z     vdW  Elec       q    Type
REMARK                         _______ _______ _______ _____ _____    ______ ____
ROOT
ATOM      1  C   UNL     1       2.657  -0.545  -2.591  0.00  0.00    -0.073 C 
ENDROOT
BRANCH   1  15
ATOM      2  C   UNL     1       1.044   6.730  -2.284  0.00  0.00    -0.045 A 
ATOM      3  C   UNL     1       0.403   6.338  -1.124  0.00  0.00    +0.004 A 
ATOM      4  C   UNL     1       0.446   5.018  -0.725  0.00  0.00    +0.005 A 
ATOM      5  C   UNL     1       1.127   4.072  -1.483  0.00  0.00    -0.038 A 
ATOM      6  C   UNL     1       1.728   4.461  -2.655  0.00  0.00    -0.043 A 
ATOM      7  C   UNL     1       1.700   5.790  -3.052  0.00  0.00    +0.007 A 
ATOM      8  C   UNL     1       2.433   3.466  -3.541  0.00  0.00    +0.036 C 
ATOM      9  C   UNL     1       1.832   2.078  -3.266  0.00  0.00    +0.009 C 
ATOM     10  C   UNL     1       2.076   1.761  -1.787  0.00  0.00    +0.004 C 
ATOM     11  C   UNL     1       1.184   2.655  -0.940  0.00  0.00    -0.004 C 
ATOM     12  C   UNL     1      -0.256   2.142  -0.900  0.00  0.00    +0.011 C 
ATOM     13  C   UNL     1      -0.310   0.678  -0.475  0.00  0.00    +0.001 C 
ATOM     14  C   UNL     1       0.477  -0.165  -1.474  0.00  0.00    +0.005 C 
ATOM     15  C   UNL     1       1.939   0.277  -1.504  0.00  0.00    -0.044 C 
ATOM     16  C   UNL     1       2.614  -0.104  -0.179  0.00  0.00    +0.009 C 
ATOM     17  C   UNL     1       1.730   2.765   0.492  0.00  0.00    +0.016 C 
BRANCH   2  19
ATOM     18  C   UNL     1      -0.425   8.624  -2.919  0.00  0.00    +0.012 C 
ATOM     19  C   UNL     1       1.023   8.174  -2.712  0.00  0.00    +0.013 C 
ATOM     20  C   UNL     1       1.675   9.037  -1.629  0.00  0.00    +0.012 C 
ENDBRANCH   2  19
ENDBRANCH   1  15
BRANCH   1  21
ATOM     21  N   UNL     1       2.456  -1.978  -2.334  0.00  0.00    +0.394 N 
ATOM     22  H   UNL     1       2.941  -2.251  -1.385  0.00  0.00    -0.083 HD
ATOM     23  H   UNL     1       1.379  -2.191  -2.271  0.00  0.00    -0.083 HD
BRANCH  21  24
ATOM     24  C   UNL     1       3.035  -2.792  -3.411  0.00  0.00    +0.046 C 
ATOM     25  C   UNL     1       3.764  -3.975  -2.833  0.00  0.00    -0.059 C 
ATOM     26  C   UNL     1       3.172  -5.075  -3.300  0.00  0.00    +0.014 C 
ATOM     27  C   UNL     1       3.612  -6.478  -2.952  0.00  0.00    +0.040 C 
ATOM     28  C   UNL     1       5.029  -6.415  -2.372  0.00  0.00    +0.005 C 
ATOM     29  C   UNL     1       5.082  -5.353  -1.268  0.00  0.00    +0.005 C 
ATOM     30  C   UNL     1       4.945  -3.961  -1.898  0.00  0.00    +0.031 C 
ATOM     31  C   UNL     1       2.062  -4.696  -4.177  0.00  0.00    +0.241 C 
ATOM     32  O   UNL     1       1.330  -5.479  -4.753  0.00  0.00    -0.270 OA
ATOM     33  N   UNL     1       1.968  -3.354  -4.252  0.00  0.00    -0.305 N 
BRANCH  33  34
ATOM     34  C   UNL     1       0.986  -2.595  -5.029  0.00  0.00    +0.138 C 
BRANCH  34  35
ATOM     35  C   UNL     1       1.537  -2.333  -6.432  0.00  0.00    +0.136 C 
ATOM     36  C   UNL     1       0.572  -1.427  -7.229  0.00  0.00    +0.035 C 
ATOM     37  C   UNL     1       0.640  -1.982  -8.669  0.00  0.00    +0.031 C 
ATOM     38  C   UNL     1       1.638  -3.157  -8.573  0.00  0.00    +0.160 C 
ATOM     39  O   UNL     1       1.597  -3.563  -7.187  0.00  0.00    -0.375 OA
ENDBRANCH  34  35
ENDBRANCH  33  34
ENDBRANCH  21  24
ENDBRANCH   1  21
TORSDOF 6
