REMARK  Name = ZINC59922321
REMARK  11 active torsions:
REMARK  status: ('A' for Active; 'I' for Inactive)
REMARK    1  A    between atoms: C_1  and  C_2
REMARK    2  A    between atoms: C_3  and  C_25
REMARK    3  A    between atoms: C_4  and  C_24
REMARK    4  A    between atoms: C_7  and  C_8
REMARK    5  A    between atoms: N_10  and  C_11
REMARK    6  A    between atoms: C_11  and  C_18
REMARK    7  A    between atoms: C_20  and  C_23
REMARK    8  A    between atoms: C_25  and  O_27
REMARK    9  A    between atoms: O_27  and  C_28
REMARK   10  A    between atoms: C_28  and  C_29
REMARK   11  A    between atoms: C_28  and  C_30
REMARK                            x       y       z     vdW  Elec       q    Type
REMARK                         _______ _______ _______ _____ _____    ______ ____
ROOT
ATOM      1  C   UNL     1       0.032  -0.383   2.495  0.00  0.00    +0.261 C 
ATOM      2  O   UNL     1       0.019   0.804   2.761  0.00  0.00    -0.269 OA
ATOM      3  N   UNL     1       0.054  -1.296   3.486  0.00  0.00    -0.297 N 
ATOM      4  H   UNL     1       0.065  -2.242   3.273  0.00  0.00    +0.150 HD
ENDROOT
BRANCH   1  11
ATOM      5  C   UNL     1      -0.018   1.503   0.010  0.00  0.00    +0.047 C 
ATOM      6  C   UNL     1       0.002  -0.004   0.002  0.00  0.00    -0.006 A 
ATOM      7  C   UNL     1       0.008  -0.839  -1.139  0.00  0.00    +0.083 A 
ATOM      8  C   UNL     1       0.028  -2.145  -0.686  0.00  0.00    +0.028 A 
ATOM      9  N   UNL     1       0.034  -2.127   0.656  0.00  0.00    -0.354 N 
ATOM     10  H   UNL     1       0.047  -2.911   1.228  0.00  0.00    +0.166 HD
ATOM     11  C   UNL     1       0.024  -0.821   1.093  0.00  0.00    +0.106 A 
ATOM     12  C   UNL     1       0.041  -3.378  -1.552  0.00  0.00    +0.064 C 
BRANCH   7  13
ATOM     13  C   UNL     1      -0.005  -0.400  -2.544  0.00  0.00    +0.341 C 
ATOM     14  O   UNL     1       1.042  -0.204  -3.130  0.00  0.00    -0.245 OA
BRANCH  13  15
ATOM     15  O   UNL     1      -1.178  -0.215  -3.182  0.00  0.00    -0.458 OA
BRANCH  15  16
ATOM     16  C   UNL     1      -1.115   0.211  -4.545  0.00  0.00    +0.171 C 
ATOM     17  C   UNL     1      -2.333  -0.323  -5.302  0.00  0.00    +0.052 C 
ATOM     18  C   UNL     1      -1.111   1.740  -4.601  0.00  0.00    +0.052 C 
ENDBRANCH  15  16
ENDBRANCH  13  15
ENDBRANCH   7  13
ENDBRANCH   1  11
BRANCH   3  19
ATOM     19  C   UNL     1       0.063  -0.859   4.884  0.00  0.00    +0.098 C 
ATOM     20  C   UNL     1       1.294  -0.035   5.149  0.00  0.00    +0.034 C 
ATOM     21  C   UNL     1       2.450  -0.377   4.189  0.00  0.00    +0.003 C 
ATOM     22  C   UNL     1       2.597  -1.891   3.947  0.00  0.00    +0.000 C 
ATOM     23  C   UNL     1       2.429  -2.695   5.208  0.00  0.00    +0.000 C 
ATOM     24  C   UNL     1       0.958  -3.145   5.310  0.00  0.00    +0.003 C 
ATOM     25  C   UNL     1       0.089  -2.091   5.812  0.00  0.00    +0.034 C 
BRANCH  19  26
ATOM     26  C   UNL     1      -1.170  -0.039   5.166  0.00  0.00    +0.195 A 
ATOM     27  N   UNL     1      -1.556   1.045   4.483  0.00  0.00    -0.194 NA
ATOM     28  C   UNL     1      -2.664   1.517   4.982  0.00  0.00    +0.224 A 
ATOM     29  O   UNL     1      -3.024   0.741   6.012  0.00  0.00    -0.338 OA
ATOM     30  N   UNL     1      -2.036  -0.273   6.110  0.00  0.00    -0.059 NA
ATOM     31  C   UNL     1      -3.410   2.729   4.486  0.00  0.00    +0.112 C 
ENDBRANCH  19  26
ENDBRANCH   3  19
TORSDOF 6
