REMARK  Name = ZINC11972412
REMARK  8 active torsions:
REMARK  status: ('A' for Active; 'I' for Inactive)
REMARK    1  A    between atoms: C_1  and  N_2
REMARK    2  A    between atoms: N_2  and  C_3
REMARK    3  A    between atoms: C_7  and  C_9
REMARK    4  A    between atoms: C_9  and  N_66
REMARK    5  A    between atoms: C_21  and  N_26
REMARK    6  A    between atoms: C_23  and  O_25
REMARK    7  A    between atoms: C_27  and  C_29
REMARK    8  A    between atoms: C_29  and  C_30
REMARK                            x       y       z     vdW  Elec       q    Type
REMARK                         _______ _______ _______ _____ _____    ______ ____
ROOT
ATOM      1  C   UNL     1      -6.327   3.191   0.798  0.00  0.00    -0.077 C 
ATOM      2  C   UNL     1      -5.730   2.712  -0.529  0.00  0.00    -0.005 C 
ATOM      3  C   UNL     1      -4.797   1.533  -0.265  0.00  0.00    +0.021 C 
ATOM      4  C   UNL     1      -5.546   0.417   0.460  0.00  0.00    -0.005 C 
ATOM      5  C   UNL     1      -6.147   0.971   1.755  0.00  0.00    -0.077 C 
ATOM      6  C   UNL     1      -4.215   1.020  -1.560  0.00  0.00    -0.034 A 
ATOM      7  C   UNL     1      -4.814   0.780  -2.786  0.00  0.00    +0.004 A 
ATOM      8  C   UNL     1      -4.066   0.302  -3.844  0.00  0.00    +0.000 A 
ATOM      9  C   UNL     1      -2.714   0.062  -3.681  0.00  0.00    +0.000 A 
ATOM     10  C   UNL     1      -2.114   0.302  -2.460  0.00  0.00    +0.006 A 
ATOM     11  C   UNL     1      -2.862   0.780  -1.397  0.00  0.00    -0.021 A 
ATOM     12  C   UNL     1      -2.449   1.117   0.020  0.00  0.00    +0.133 C 
ATOM     13  C   UNL     1      -3.593   1.992   0.578  0.00  0.00    +0.149 C 
ATOM     14  N   UNL     1      -7.072   2.075   1.419  0.00  0.00    +0.383 N 
ATOM     15  H   UNL     1      -7.772   1.731   0.752  0.00  0.00    -0.081 HD
ENDROOT
BRANCH  12  16
ATOM     16  N   UNL     1      -1.191   1.867   0.018  0.00  0.00    -0.306 N 
ATOM     17  C   UNL     1      -0.014   1.209   0.009  0.00  0.00    +0.218 C 
ATOM     18  O   UNL     1       0.002  -0.004   0.002  0.00  0.00    -0.275 OA
ATOM     19  H   UNL     1      -1.204   2.837   0.023  0.00  0.00    +0.149 HD
BRANCH  17  20
ATOM     20  C   UNL     1       1.280   1.980   0.001  0.00  0.00    +0.130 C 
BRANCH  20  21
ATOM     21  C   UNL     1       2.439   1.016  -0.016  0.00  0.00    -0.039 A 
ATOM     22  C   UNL     1       2.985   0.572   1.174  0.00  0.00    +0.004 A 
ATOM     23  C   UNL     1       4.045  -0.315   1.159  0.00  0.00    +0.000 A 
ATOM     24  C   UNL     1       4.565  -0.751  -0.046  0.00  0.00    +0.000 A 
ATOM     25  C   UNL     1       4.021  -0.303  -1.235  0.00  0.00    +0.000 A 
ATOM     26  C   UNL     1       2.959   0.581  -1.220  0.00  0.00    +0.004 A 
ENDBRANCH  20  21
ENDBRANCH  17  20
ENDBRANCH  12  16
BRANCH  13  27
ATOM     27  O   UNL     1      -3.810   1.722   1.964  0.00  0.00    -0.389 OA
ATOM     28  H   UNL     1      -3.047   1.912   2.526  0.00  0.00    +0.210 HD
ENDBRANCH  13  27
BRANCH  14  29
ATOM     29  C   UNL     1      -7.760   2.546   2.638  0.00  0.00    -0.034 C 
BRANCH  29  36
ATOM     30  C   UNL     1      -9.974  -2.618   5.973  0.00  0.00    +0.131 C 
ATOM     31  N   UNL     1     -10.412  -1.706   4.913  0.00  0.00    -0.316 N 
ATOM     32  C   UNL     1     -11.735  -1.869   4.307  0.00  0.00    +0.131 C 
ATOM     33  C   UNL     1      -9.573  -0.689   4.485  0.00  0.00    +0.160 A 
ATOM     34  N   UNL     1      -8.360  -0.383   4.902  0.00  0.00    -0.233 NA
ATOM     35  C   UNL     1      -7.693   0.629   4.380  0.00  0.00    +0.122 A 
ATOM     36  C   UNL     1      -8.283   1.355   3.400  0.00  0.00    -0.005 A 
ATOM     37  S   UNL     1      -9.855   0.516   3.266  0.00  0.00    -0.059 S 
ENDBRANCH  29  36
ENDBRANCH  14  29
TORSDOF 6
