REMARK  Name = ZINC05603887
REMARK  2 active torsions:
REMARK  status: ('A' for Active; 'I' for Inactive)
REMARK    1  A    between atoms: C_4  and  C_7
REMARK    2  A    between atoms: C_25  and  C_27
REMARK                            x       y       z     vdW  Elec       q    Type
REMARK                         _______ _______ _______ _____ _____    ______ ____
ROOT
ATOM      1  C   UNL     1       3.947  -0.614  -0.216  0.00  0.00    +0.111 C 
ATOM      2  C   UNL     1       4.196  -1.096   1.221  0.00  0.00    +0.056 C 
ATOM      3  C   UNL     1       2.991  -1.926   1.674  0.00  0.00    +0.009 C 
ATOM      4  C   UNL     1       3.240  -2.495   3.070  0.00  0.00    +0.001 C 
ATOM      5  C   UNL     1       4.489  -3.382   3.049  0.00  0.00    +0.009 C 
ATOM      6  C   UNL     1       5.687  -2.539   2.617  0.00  0.00    +0.056 C 
ATOM      7  C   UNL     1       5.454  -1.971   1.214  0.00  0.00    +0.113 C 
ATOM      8  N   UNL     1       5.260  -3.076   0.274  0.00  0.00    -0.278 N 
ATOM      9  C   UNL     1       4.489  -2.926  -0.816  0.00  0.00    +0.302 C 
ATOM     10  O   UNL     1       4.367  -3.865  -1.578  0.00  0.00    -0.253 OA
ATOM     11  N   UNL     1       3.848  -1.780  -1.097  0.00  0.00    -0.292 N 
ATOM     12  N   UNL     1       6.617  -1.183   0.806  0.00  0.00    -0.278 N 
ATOM     13  C   UNL     1       7.846  -1.502   1.245  0.00  0.00    +0.302 C 
ATOM     14  O   UNL     1       8.791  -0.838   0.864  0.00  0.00    -0.253 OA
ATOM     15  N   UNL     1       8.076  -2.521   2.087  0.00  0.00    -0.292 N 
ATOM     16  C   UNL     1       6.959  -3.389   2.590  0.00  0.00    +0.111 C 
ATOM     17  H   UNL     1       5.694  -3.927   0.439  0.00  0.00    +0.152 HD
ATOM     18  H   UNL     1       3.307  -1.722  -1.901  0.00  0.00    +0.151 HD
ATOM     19  H   UNL     1       6.501  -0.424   0.213  0.00  0.00    +0.152 HD
ATOM     20  H   UNL     1       8.986  -2.711   2.363  0.00  0.00    +0.151 HD
ENDROOT
BRANCH   1  24
ATOM     21  C   UNL     1       0.301   1.607  -0.370  0.00  0.00    +0.000 A 
ATOM     22  C   UNL     1       1.514   2.270  -0.324  0.00  0.00    +0.000 A 
ATOM     23  C   UNL     1       2.693   1.551  -0.274  0.00  0.00    +0.005 A 
ATOM     24  C   UNL     1       2.661   0.169  -0.269  0.00  0.00    -0.027 A 
ATOM     25  C   UNL     1       1.449  -0.494  -0.314  0.00  0.00    +0.005 A 
ATOM     26  C   UNL     1       0.269   0.225  -0.366  0.00  0.00    +0.000 A 
ENDBRANCH   1  24
BRANCH  16  27
ATOM     27  C   UNL     1       6.750  -4.582   1.693  0.00  0.00    -0.027 A 
ATOM     28  C   UNL     1       7.440  -4.679   0.499  0.00  0.00    +0.005 A 
ATOM     29  C   UNL     1       7.248  -5.774  -0.323  0.00  0.00    +0.000 A 
ATOM     30  C   UNL     1       6.367  -6.772   0.049  0.00  0.00    +0.000 A 
ATOM     31  C   UNL     1       5.678  -6.675   1.244  0.00  0.00    +0.000 A 
ATOM     32  C   UNL     1       5.873  -5.583   2.068  0.00  0.00    +0.005 A 
ENDBRANCH  16  27
TORSDOF 2
