REMARK  Name = ZINC09101835
REMARK  12 active torsions:
REMARK  status: ('A' for Active; 'I' for Inactive)
REMARK    1  A    between atoms: C_1  and  C_2
REMARK    2  A    between atoms: C_2  and  C_3
REMARK    3  A    between atoms: C_12  and  C_13
REMARK    4  A    between atoms: C_13  and  C_15
REMARK    5  A    between atoms: C_15  and  S_16
REMARK    6  A    between atoms: S_16  and  C_17
REMARK    7  A    between atoms: C_20  and  C_29
REMARK    8  A    between atoms: N_21  and  C_22
REMARK    9  A    between atoms: C_29  and  C_31
REMARK   10  A    between atoms: C_29  and  N_58
REMARK   11  A    between atoms: C_32  and  N_58
REMARK   12  A    between atoms: C_33  and  N_58
REMARK                            x       y       z     vdW  Elec       q    Type
REMARK                         _______ _______ _______ _____ _____    ______ ____
ROOT
ATOM      1  C   UNL     1       6.506   3.784  -0.041  0.00  0.00    +0.196 A 
ATOM      2  N   UNL     1       5.713   4.830  -0.026  0.00  0.00    -0.122 NA
ATOM      3  N   UNL     1       6.411   5.909  -0.027  0.00  0.00    -0.135 NA
ATOM      4  C   UNL     1       7.682   5.621  -0.041  0.00  0.00    +0.125 A 
ATOM      5  N   UNL     1       7.790   4.255  -0.045  0.00  0.00    -0.275 N 
ENDROOT
BRANCH   5   6
ATOM      6  C   UNL     1       8.971   3.499  -0.055  0.00  0.00    +0.050 A 
ATOM      7  C   UNL     1       9.839   3.550   1.028  0.00  0.00    +0.028 A 
ATOM      8  C   UNL     1      10.999   2.801   1.018  0.00  0.00    +0.022 A 
ATOM      9  C   UNL     1      11.302   2.007  -0.075  0.00  0.00    +0.041 A 
ATOM     10  C   UNL     1      10.441   1.958  -1.157  0.00  0.00    +0.022 A 
ATOM     11  C   UNL     1       9.277   2.702  -1.149  0.00  0.00    +0.028 A 
ATOM     12 CL   UNL     1      12.763   1.071  -0.087  0.00  0.00    -0.084 Cl
ENDBRANCH   5   6
BRANCH   4  13
ATOM     13  C   UNL     1       8.821   6.607  -0.045  0.00  0.00    -0.003 C 
ATOM     14  C   UNL     1       8.949   7.232  -1.436  0.00  0.00    -0.005 C 
BRANCH  13  17
ATOM     15  C   UNL     1       9.703   8.578   1.051  0.00  0.00    -0.096 C 
ATOM     16  C   UNL     1       7.328   8.394   0.618  0.00  0.00    -0.096 C 
ATOM     17  N   UNL     1       8.556   7.650   0.968  0.00  0.00    +0.382 N 
ATOM     18  H   UNL     1       8.424   7.200   1.882  0.00  0.00    -0.082 HD
ENDBRANCH  13  17
ENDBRANCH   4  13
BRANCH   1  19
ATOM     19  S   UNL     1       6.011   2.093  -0.045  0.00  0.00    -0.078 S 
BRANCH  19  20
ATOM     20  C   UNL     1       4.212   2.292  -0.026  0.00  0.00    +0.157 C 
BRANCH  20  21
ATOM     21  C   UNL     1       3.556   0.935  -0.027  0.00  0.00    +0.175 C 
ATOM     22  O   UNL     1       4.239  -0.069  -0.040  0.00  0.00    -0.291 OA
BRANCH  21  32
ATOM     23  C   UNL     1      -1.002  -0.967   0.006  0.00  0.00    -0.024 A 
ATOM     24  C   UNL     1      -0.671  -2.305  -0.004  0.00  0.00    +0.005 A 
ATOM     25  C   UNL     1       0.657  -2.705  -0.019  0.00  0.00    +0.001 A 
ATOM     26  C   UNL     1       1.665  -1.766  -0.023  0.00  0.00    +0.011 A 
ATOM     27  C   UNL     1       1.345  -0.411  -0.013  0.00  0.00    +0.010 A 
ATOM     28  C   UNL     1       0.002  -0.004   0.002  0.00  0.00    +0.050 A 
ATOM     29  N   UNL     1      -0.017   1.376   0.010  0.00  0.00    -0.360 N 
ATOM     30  H   UNL     1      -0.822   1.917   0.017  0.00  0.00    +0.165 HD
ATOM     31  C   UNL     1       1.236   1.869   0.000  0.00  0.00    +0.095 A 
ATOM     32  C   UNL     1       2.143   0.831  -0.014  0.00  0.00    +0.043 A 
BRANCH  23  34
ATOM     33  C   UNL     1      -2.917  -0.278  -1.409  0.00  0.00    +0.009 C 
ATOM     34  C   UNL     1      -2.449  -0.548   0.022  0.00  0.00    +0.034 C 
ENDBRANCH  23  34
ENDBRANCH  21  32
ENDBRANCH  20  21
ENDBRANCH  19  20
ENDBRANCH   1  19
TORSDOF 8
