REMARK  Name = ZINC09553413
REMARK  10 active torsions:
REMARK  status: ('A' for Active; 'I' for Inactive)
REMARK    1  A    between atoms: C_1  and  C_2
REMARK    2  A    between atoms: C_2  and  C_3
REMARK    3  A    between atoms: C_3  and  C_4
REMARK    4  A    between atoms: C_4  and  C_5
REMARK    5  A    between atoms: C_5  and  C_6
REMARK    6  A    between atoms: C_18  and  C_33
REMARK    7  A    between atoms: C_23  and  C_25
REMARK    8  A    between atoms: C_28  and  C_31
REMARK    9  A    between atoms: C_36  and  O_39
REMARK   10  A    between atoms: O_39  and  C_40
REMARK                            x       y       z     vdW  Elec       q    Type
REMARK                         _______ _______ _______ _____ _____    ______ ____
ROOT
ATOM      1  C   UNL     1      -1.876  -2.018   1.948  0.00  0.00    +0.221 C 
ATOM      2  O   UNL     1      -2.341  -1.020   2.456  0.00  0.00    -0.275 OA
ATOM      3  N   UNL     1      -1.336  -1.958   0.715  0.00  0.00    -0.258 N 
ATOM      4  C   UNL     1      -0.810  -3.108   0.150  0.00  0.00    +0.058 A 
ATOM      5  C   UNL     1      -1.579  -4.231  -0.078  0.00  0.00    +0.025 A 
ATOM      6  C   UNL     1      -1.027  -5.342  -0.689  0.00  0.00    +0.002 A 
ATOM      7  C   UNL     1       0.304  -5.329  -1.071  0.00  0.00    +0.002 A 
ATOM      8  C   UNL     1       1.090  -4.223  -0.838  0.00  0.00    +0.025 A 
ATOM      9  C   UNL     1       0.558  -3.089  -0.209  0.00  0.00    +0.053 A 
ATOM     10  N   UNL     1       1.337  -2.031   0.041  0.00  0.00    -0.316 N 
ATOM     11  C   UNL     1       1.217  -0.754  -0.012  0.00  0.00    +0.017 C 
ATOM     12  C   UNL     1       2.530   0.015  -0.089  0.00  0.00    +0.059 C 
ATOM     13  C   UNL     1       2.388   1.339   0.661  0.00  0.00    +0.032 C 
ATOM     14  C   UNL     1       1.268   2.145  -0.004  0.00  0.00    +0.088 C 
ATOM     15  C   UNL     1       0.010   1.329   0.004  0.00  0.00    +0.163 C 
ATOM     16  C   UNL     1       0.011  -0.021   0.002  0.00  0.00    +0.037 C 
ATOM     17  C   UNL     1      -1.320  -0.697   0.016  0.00  0.00    +0.147 C 
ATOM     18  O   UNL     1      -1.177   1.973   0.009  0.00  0.00    -0.292 OA
ATOM     19  H   UNL     1       2.287  -2.481   0.363  0.00  0.00    +0.152 HD
ENDROOT
BRANCH  17  20
ATOM     20  C   UNL     1      -1.752  -0.934  -1.409  0.00  0.00    -0.022 A 
ATOM     21  C   UNL     1      -0.916  -1.606  -2.281  0.00  0.00    +0.006 A 
ATOM     22  C   UNL     1      -1.314  -1.827  -3.587  0.00  0.00    +0.004 A 
ATOM     23  C   UNL     1      -2.543  -1.367  -4.022  0.00  0.00    -0.050 A 
ATOM     24  C   UNL     1      -3.376  -0.691  -3.151  0.00  0.00    +0.004 A 
ATOM     25  C   UNL     1      -2.980  -0.474  -1.844  0.00  0.00    +0.006 A 
ATOM     26  C   UNL     1      -2.975  -1.605  -5.446  0.00  0.00    +0.044 C 
ENDBRANCH  17  20
BRANCH  13  27
ATOM     27  C   UNL     1       3.682   2.108   0.585  0.00  0.00    -0.043 A 
ATOM     28  C   UNL     1       4.197   2.473  -0.645  0.00  0.00    +0.007 A 
ATOM     29  C   UNL     1       5.380   3.183  -0.717  0.00  0.00    +0.046 A 
ATOM     30  C   UNL     1       6.057   3.521   0.446  0.00  0.00    +0.120 A 
ATOM     31  C   UNL     1       5.541   3.148   1.679  0.00  0.00    +0.046 A 
ATOM     32  C   UNL     1       4.355   2.443   1.746  0.00  0.00    +0.007 A 
BRANCH  30  33
ATOM     33  O   UNL     1       7.223   4.215   0.377  0.00  0.00    -0.495 OA
ATOM     34  C   UNL     1       7.694   4.564  -0.926  0.00  0.00    +0.277 C 
ENDBRANCH  30  33
ENDBRANCH  13  27
BRANCH   1  35
ATOM     35  C   UNL     1      -1.902  -3.326   2.696  0.00  0.00    +0.096 C 
BRANCH  35  36
ATOM     36  C   UNL     1      -2.564  -3.121   4.060  0.00  0.00    +0.009 C 
BRANCH  36  37
ATOM     37  C   UNL     1      -2.591  -4.449   4.819  0.00  0.00    +0.000 C 
BRANCH  37  39
ATOM     38  C   UNL     1      -3.279  -5.572   6.942  0.00  0.00    +0.004 C 
ATOM     39  C   UNL     1      -3.252  -4.243   6.183  0.00  0.00    -0.003 C 
ENDBRANCH  37  39
ENDBRANCH  36  37
ENDBRANCH  35  36
ENDBRANCH   1  35
TORSDOF 7
