REMARK  Name = ZINC35702047
REMARK  11 active torsions:
REMARK  status: ('A' for Active; 'I' for Inactive)
REMARK    1  A    between atoms: C_1  and  C_2
REMARK    2  A    between atoms: C_7  and  C_8
REMARK    3  A    between atoms: C_10  and  C_30
REMARK    4  A    between atoms: C_11  and  C_29
REMARK    5  A    between atoms: C_15  and  C_18
REMARK    6  A    between atoms: C_19  and  N_21
REMARK    7  A    between atoms: N_21  and  C_22
REMARK    8  A    between atoms: C_30  and  O_32
REMARK    9  A    between atoms: O_32  and  C_33
REMARK   10  A    between atoms: C_33  and  C_34
REMARK   11  A    between atoms: C_33  and  C_35
REMARK                            x       y       z     vdW  Elec       q    Type
REMARK                         _______ _______ _______ _____ _____    ______ ____
ROOT
ATOM      1  C   UNL     1       0.668   0.223   2.531  0.00  0.00    +0.150 C 
ATOM      2  C   UNL     1       1.990   0.815   2.968  0.00  0.00    +0.083 C 
ATOM      3  C   UNL     1       2.322   0.732   4.306  0.00  0.00    +0.053 C 
ATOM      4  N   UNL     1       1.501   0.151   5.166  0.00  0.00    -0.230 NA
ATOM      5  C   UNL     1       0.338  -0.382   4.852  0.00  0.00    +0.166 C 
ATOM      6  N   UNL     1      -0.173  -0.405   3.585  0.00  0.00    -0.267 N 
ATOM      7  C   UNL     1      -1.406  -1.002   3.418  0.00  0.00    +0.048 C 
ATOM      8  C   UNL     1      -2.008  -1.516   4.514  0.00  0.00    +0.072 C 
ATOM      9  S   UNL     1      -0.822  -1.151   5.790  0.00  0.00    -0.060 S 
ATOM     10  C   UNL     1       3.628   1.306   4.790  0.00  0.00    +0.066 C 
ENDROOT
BRANCH   1  17
ATOM     11  C   UNL     1      -0.004   0.735  -0.232  0.00  0.00    +0.044 C 
ATOM     12  C   UNL     1       0.629  -0.575   0.159  0.00  0.00    -0.045 A 
ATOM     13  C   UNL     1       0.894  -1.530  -0.805  0.00  0.00    +0.004 A 
ATOM     14  C   UNL     1       1.476  -2.732  -0.446  0.00  0.00    +0.000 A 
ATOM     15  C   UNL     1       1.792  -2.979   0.877  0.00  0.00    +0.000 A 
ATOM     16  C   UNL     1       1.528  -2.024   1.840  0.00  0.00    +0.006 A 
ATOM     17  C   UNL     1       0.951  -0.820   1.481  0.00  0.00    -0.019 A 
ENDBRANCH   1  17
BRANCH   7  18
ATOM     18  C   UNL     1      -2.042  -1.077   2.095  0.00  0.00    +0.091 C 
ATOM     19  C   UNL     1      -3.299  -1.549   1.978  0.00  0.00    +0.243 C 
ATOM     20  O   UNL     1      -4.021  -1.836   3.088  0.00  0.00    -0.270 OA
BRANCH  19  21
ATOM     21  N   UNL     1      -3.852  -1.740   0.723  0.00  0.00    -0.282 N 
ATOM     22  H   UNL     1      -3.370  -1.453  -0.069  0.00  0.00    +0.155 HD
BRANCH  21  23
ATOM     23  C   UNL     1      -5.106  -2.348   0.596  0.00  0.00    +0.034 A 
ATOM     24  C   UNL     1      -5.696  -2.959   1.695  0.00  0.00    +0.026 A 
ATOM     25  C   UNL     1      -6.934  -3.558   1.568  0.00  0.00    +0.040 A 
ATOM     26  C   UNL     1      -7.587  -3.549   0.346  0.00  0.00    +0.124 A 
ATOM     27  C   UNL     1      -7.000  -2.941  -0.750  0.00  0.00    +0.040 A 
ATOM     28  C   UNL     1      -5.764  -2.336  -0.627  0.00  0.00    +0.026 A 
ATOM     29  F   UNL     1      -8.797  -4.136   0.224  0.00  0.00    -0.205 F 
ENDBRANCH  21  23
ENDBRANCH  19  21
ENDBRANCH   7  18
BRANCH   2  30
ATOM     30  C   UNL     1       2.849   1.425   2.046  0.00  0.00    +0.339 C 
ATOM     31  O   UNL     1       3.942   1.826   2.405  0.00  0.00    -0.245 OA
BRANCH  30  32
ATOM     32  O   UNL     1       2.465   1.571   0.758  0.00  0.00    -0.459 OA
BRANCH  32  33
ATOM     33  C   UNL     1       3.432   2.100  -0.151  0.00  0.00    +0.171 C 
ATOM     34  C   UNL     1       4.157   0.949  -0.851  0.00  0.00    +0.052 C 
ATOM     35  C   UNL     1       2.728   2.969  -1.195  0.00  0.00    +0.052 C 
ENDBRANCH  32  33
ENDBRANCH  30  32
ENDBRANCH   2  30
TORSDOF 7
