REMARK  Name = ZINC13214082
REMARK  10 active torsions:
REMARK  status: ('A' for Active; 'I' for Inactive)
REMARK    1  A    between atoms: C_1  and  C_2
REMARK    2  A    between atoms: C_2  and  O_3
REMARK    3  A    between atoms: O_3  and  C_4
REMARK    4  A    between atoms: C_6  and  C_12
REMARK    5  A    between atoms: C_9  and  O_10
REMARK    6  A    between atoms: O_10  and  C_11
REMARK    7  A    between atoms: C_14  and  C_29
REMARK    8  A    between atoms: N_18  and  C_19
REMARK    9  A    between atoms: C_23  and  C_25
REMARK   10  A    between atoms: C_29  and  C_31
REMARK                            x       y       z     vdW  Elec       q    Type
REMARK                         _______ _______ _______ _____ _____    ______ ____
ROOT
ATOM      1  C   UNL     1       0.329  -5.000   0.074  0.00  0.00    +0.150 C 
ATOM      2  C   UNL     1       0.967  -5.347  -1.251  0.00  0.00    +0.080 C 
ATOM      3  C   UNL     1       1.087  -6.694  -1.286  0.00  0.00    +0.250 C 
ATOM      4  C   UNL     1       0.552  -7.262  -0.033  0.00  0.00    +0.292 C 
ATOM      5  O   UNL     1       0.518  -8.447   0.237  0.00  0.00    -0.266 OA
ATOM      6  N   UNL     1       0.107  -6.275   0.767  0.00  0.00    -0.253 N 
ATOM      7  O   UNL     1       1.613  -7.409  -2.309  0.00  0.00    -0.282 OA
ENDROOT
BRANCH   1  10
ATOM      8  C   UNL     1      -3.180  -4.261  -1.114  0.00  0.00    +0.162 A 
ATOM      9  C   UNL     1      -1.972  -4.906  -0.905  0.00  0.00    +0.055 A 
ATOM     10  C   UNL     1      -0.985  -4.298  -0.152  0.00  0.00    -0.018 A 
ATOM     11  C   UNL     1      -1.201  -3.046   0.394  0.00  0.00    +0.009 A 
ATOM     12  C   UNL     1      -2.404  -2.398   0.190  0.00  0.00    +0.050 A 
ATOM     13  C   UNL     1      -3.396  -2.999  -0.569  0.00  0.00    +0.162 A 
BRANCH  13  14
ATOM     14  O   UNL     1      -4.578  -2.360  -0.775  0.00  0.00    -0.491 OA
ATOM     15  C   UNL     1      -4.728  -1.067  -0.185  0.00  0.00    +0.277 C 
ENDBRANCH  13  14
BRANCH   8  16
ATOM     16  O   UNL     1      -4.152  -4.858  -1.855  0.00  0.00    -0.489 OA
BRANCH  16  18
ATOM     17  C   UNL     1      -5.149  -6.740  -2.998  0.00  0.00    +0.048 C 
ATOM     18  C   UNL     1      -3.906  -6.197  -2.290  0.00  0.00    +0.226 C 
ENDBRANCH  16  18
ENDBRANCH   8  16
ENDBRANCH   1  10
BRANCH   6  19
ATOM     19  C   UNL     1      -0.464  -6.434   2.033  0.00  0.00    +0.038 A 
ATOM     20  C   UNL     1      -0.887  -5.320   2.750  0.00  0.00    +0.023 A 
ATOM     21  C   UNL     1      -1.453  -5.471   4.002  0.00  0.00    +0.003 A 
ATOM     22  C   UNL     1      -1.602  -6.729   4.550  0.00  0.00    +0.015 A 
ATOM     23  C   UNL     1      -1.181  -7.855   3.838  0.00  0.00    +0.065 A 
ATOM     24  C   UNL     1      -0.615  -7.702   2.571  0.00  0.00    +0.038 A 
BRANCH  23  25
ATOM     25  C   UNL     1      -1.339  -9.202   4.421  0.00  0.00    +0.387 C 
ATOM     26  O   UNL     1      -1.840  -9.333   5.529  0.00  0.00    -0.241 OA
ATOM     27  O   UNL     1      -0.970 -10.186   3.796  0.00  0.00    -0.241 OA
ENDBRANCH  23  25
ENDBRANCH   6  19
BRANCH   2  28
ATOM     28  C   UNL     1       1.378  -4.405  -2.298  0.00  0.00    +0.230 C 
ATOM     29  O   UNL     1       1.765  -4.822  -3.376  0.00  0.00    -0.283 OA
BRANCH  28  30
ATOM     30  C   UNL     1       1.323  -2.961  -2.048  0.00  0.00    +0.175 A 
ATOM     31  C   UNL     1       1.562  -1.967  -2.972  0.00  0.00    +0.053 A 
ATOM     32  C   UNL     1       1.399  -0.748  -2.298  0.00  0.00    +0.042 A 
ATOM     33  C   UNL     1       1.075  -1.039  -1.018  0.00  0.00    +0.196 A 
ATOM     34  O   UNL     1       1.025  -2.369  -0.873  0.00  0.00    -0.460 OA
ENDBRANCH  28  30
ENDBRANCH   2  28
TORSDOF 8
