REMARK  Name = ZINC36637869
REMARK  10 active torsions:
REMARK  status: ('A' for Active; 'I' for Inactive)
REMARK    1  A    between atoms: C_1  and  C_2
REMARK    2  A    between atoms: C_2  and  N_3
REMARK    3  A    between atoms: N_3  and  C_4
REMARK    4  A    between atoms: N_3  and  C_6
REMARK    5  A    between atoms: C_4  and  C_5
REMARK    6  A    between atoms: C_6  and  C_7
REMARK    7  A    between atoms: C_7  and  N_8
REMARK    8  A    between atoms: C_19  and  C_21
REMARK    9  A    between atoms: C_22  and  C_23
REMARK   10  A    between atoms: C_26  and  N_29
REMARK                            x       y       z     vdW  Elec       q    Type
REMARK                         _______ _______ _______ _____ _____    ______ ____
ROOT
ATOM      1  N   UNL     1      -2.334  -4.401   0.626  0.00  0.00    -0.249 N 
ATOM      2  C   UNL     1      -2.232  -5.196   1.754  0.00  0.00    +0.168 A 
ATOM      3  N   UNL     1      -2.215  -4.836   3.017  0.00  0.00    -0.224 NA
ATOM      4  C   UNL     1      -2.111  -5.729   4.025  0.00  0.00    +0.080 A 
ATOM      5  C   UNL     1      -2.081  -5.475   5.416  0.00  0.00    +0.030 A 
ATOM      6  C   UNL     1      -1.969  -6.505   6.313  0.00  0.00    +0.017 A 
ATOM      7  C   UNL     1      -1.881  -7.825   5.894  0.00  0.00    +0.019 A 
ATOM      8  C   UNL     1      -1.907  -8.110   4.541  0.00  0.00    +0.032 A 
ATOM      9  C   UNL     1      -2.019  -7.084   3.635  0.00  0.00    +0.042 A 
ATOM     10  S   UNL     1      -2.096  -6.975   1.864  0.00  0.00    -0.052 S 
ATOM     11 BR   UNL     1      -1.727  -9.221   7.161  0.00  0.00    -0.050 Br
ATOM     12  C   UNL     1      -2.339  -4.965  -0.598  0.00  0.00    +0.245 C 
ATOM     13  O   UNL     1      -2.255  -6.174  -0.711  0.00  0.00    -0.270 OA
ENDROOT
BRANCH  12  14
ATOM     14  C   UNL     1      -2.447  -4.124  -1.790  0.00  0.00    +0.068 C 
ATOM     15  C   UNL     1      -2.595  -4.692  -3.005  0.00  0.00    +0.013 C 
BRANCH  15  16
ATOM     16  C   UNL     1      -2.903  -6.127  -3.113  0.00  0.00    -0.025 A 
ATOM     17  C   UNL     1      -3.870  -6.703  -2.283  0.00  0.00    +0.010 A 
ATOM     18  C   UNL     1      -4.153  -8.049  -2.391  0.00  0.00    +0.033 A 
ATOM     19  C   UNL     1      -3.482  -8.829  -3.317  0.00  0.00    +0.126 A 
ATOM     20  C   UNL     1      -2.523  -8.266  -4.142  0.00  0.00    +0.033 A 
ATOM     21  C   UNL     1      -2.234  -6.921  -4.051  0.00  0.00    +0.010 A 
BRANCH  19  22
ATOM     22  N   UNL     1      -3.792 -10.272  -3.426  0.00  0.00    +0.056 N 
ATOM     23  O   UNL     1      -4.628 -10.767  -2.707  0.00  0.00    -0.126 OA
ATOM     24  O   UNL     1      -3.208 -10.956  -4.234  0.00  0.00    -0.126 OA
ENDBRANCH  19  22
ENDBRANCH  15  16
ENDBRANCH  12  14
BRANCH   1  25
ATOM     25  C   UNL     1      -2.436  -2.946   0.763  0.00  0.00    +0.097 C 
BRANCH  25  26
ATOM     26  C   UNL     1      -1.034  -2.333   0.754  0.00  0.00    -0.059 C 
BRANCH  26  27
ATOM     27  N   UNL     1      -1.139  -0.868   0.760  0.00  0.00    +0.380 N 
ATOM     28  H   UNL     1      -1.725  -0.570  -0.006  0.00  0.00    -0.082 HD
BRANCH  27  30
ATOM     29  C   UNL     1      -1.956   1.089   1.986  0.00  0.00    -0.017 C 
ATOM     30  C   UNL     1      -1.730  -0.424   2.030  0.00  0.00    -0.082 C 
ENDBRANCH  27  30
BRANCH  27  31
ATOM     31  C   UNL     1       0.199  -0.280   0.610  0.00  0.00    -0.082 C 
ATOM     32  C   UNL     1       0.749  -0.611  -0.778  0.00  0.00    -0.017 C 
ENDBRANCH  27  31
ENDBRANCH  26  27
ENDBRANCH  25  26
ENDBRANCH   1  25
TORSDOF 8
