REMARK  Name = ZINC00888463
REMARK  9 active torsions:
REMARK  status: ('A' for Active; 'I' for Inactive)
REMARK    1  A    between atoms: C_1  and  C_2
REMARK    2  A    between atoms: C_5  and  C_7
REMARK    3  A    between atoms: C_7  and  C_9
REMARK    4  A    between atoms: C_7  and  N_18
REMARK    5  A    between atoms: N_11  and  C_12
REMARK    6  A    between atoms: N_18  and  C_19
REMARK    7  A    between atoms: C_29  and  C_31
REMARK    8  A    between atoms: C_31  and  N_32
REMARK    9  A    between atoms: C_34  and  C_37
REMARK                            x       y       z     vdW  Elec       q    Type
REMARK                         _______ _______ _______ _____ _____    ______ ____
ROOT
ATOM      1  N   UNL     1       2.638  -2.792  -1.196  0.00  0.00    -0.251 N 
ATOM      2  C   UNL     1       2.829  -3.880  -1.967  0.00  0.00    +0.244 C 
ATOM      3  O   UNL     1       2.109  -4.848  -1.841  0.00  0.00    -0.273 OA
ENDROOT
BRANCH   1   4
ATOM      4  C   UNL     1       3.583  -1.758  -1.195  0.00  0.00    +0.041 A 
ATOM      5  C   UNL     1       4.785  -1.916  -1.873  0.00  0.00    +0.027 A 
ATOM      6  C   UNL     1       5.718  -0.898  -1.872  0.00  0.00    +0.051 A 
ATOM      7  C   UNL     1       5.458   0.285  -1.195  0.00  0.00    +0.162 A 
ATOM      8  C   UNL     1       4.255   0.447  -0.518  0.00  0.00    +0.164 A 
ATOM      9  C   UNL     1       3.317  -0.574  -0.523  0.00  0.00    +0.073 A 
ATOM     10  O   UNL     1       3.979   1.603   0.144  0.00  0.00    -0.485 OA
ATOM     11  C   UNL     1       5.089   2.459   0.436  0.00  0.00    +0.270 C 
ATOM     12  C   UNL     1       5.944   2.585  -0.832  0.00  0.00    +0.270 C 
ATOM     13  O   UNL     1       6.392   1.276  -1.202  0.00  0.00    -0.485 OA
ENDBRANCH   1   4
BRANCH   1  14
ATOM     14  C   UNL     1       1.440  -2.689  -0.358  0.00  0.00    +0.233 C 
BRANCH  14  19
ATOM     15  C   UNL     1       0.326   2.011  -1.810  0.00  0.00    +0.086 C 
ATOM     16  C   UNL     1       0.164   0.572  -1.391  0.00  0.00    +0.102 A 
ATOM     17  C   UNL     1      -1.004  -0.081  -1.255  0.00  0.00    +0.045 A 
ATOM     18  C   UNL     1      -0.692  -1.398  -0.848  0.00  0.00    +0.047 A 
ATOM     19  C   UNL     1       0.649  -1.472  -0.760  0.00  0.00    +0.135 A 
ATOM     20  O   UNL     1       1.162  -0.277  -1.095  0.00  0.00    -0.462 OA
ENDBRANCH  14  19
BRANCH  14  21
ATOM     21  C   UNL     1       1.848  -2.569   1.088  0.00  0.00    +0.242 C 
ATOM     22  O   UNL     1       3.022  -2.569   1.389  0.00  0.00    -0.273 OA
ATOM     23  N   UNL     1       0.906  -2.462   2.046  0.00  0.00    -0.311 N 
ATOM     24  H   UNL     1      -0.033  -2.462   1.806  0.00  0.00    +0.149 HD
BRANCH  23  25
ATOM     25  C   UNL     1       1.302  -2.345   3.452  0.00  0.00    +0.073 C 
ATOM     26  C   UNL     1       1.528  -3.741   4.036  0.00  0.00    +0.022 C 
ATOM     27  C   UNL     1       1.942  -3.620   5.504  0.00  0.00    +0.002 C 
ATOM     28  C   UNL     1       0.835  -2.912   6.288  0.00  0.00    +0.000 C 
ATOM     29  C   UNL     1       0.609  -1.516   5.705  0.00  0.00    +0.002 C 
ATOM     30  C   UNL     1       0.196  -1.638   4.237  0.00  0.00    +0.022 C 
ENDBRANCH  23  25
ENDBRANCH  14  21
ENDBRANCH   1  14
BRANCH   2  31
ATOM     31  C   UNL     1       3.939  -3.896  -2.987  0.00  0.00    +0.264 C 
BRANCH  31  32
ATOM     32  N   UNL     1       3.630  -4.875  -4.031  0.00  0.00    -0.154 N 
ATOM     33  N   UNL     1       3.964  -6.120  -4.008  0.00  0.00    -0.130 NA
ATOM     34  C   UNL     1       3.512  -6.679  -5.113  0.00  0.00    +0.207 A 
ATOM     35  N   UNL     1       2.889  -5.714  -5.805  0.00  0.00    -0.108 NA
ATOM     36  N   UNL     1       2.976  -4.629  -5.112  0.00  0.00    -0.045 NA
BRANCH  34  37
ATOM     37  C   UNL     1       3.664  -8.100  -5.514  0.00  0.00    +0.058 A 
ATOM     38  C   UNL     1       4.337  -8.992  -4.683  0.00  0.00    +0.014 A 
ATOM     39  C   UNL     1       4.476 -10.313  -5.060  0.00  0.00    +0.001 A 
ATOM     40  C   UNL     1       3.947 -10.752  -6.261  0.00  0.00    +0.003 A 
ATOM     41  C   UNL     1       3.278  -9.872  -7.091  0.00  0.00    +0.039 A 
ATOM     42  C   UNL     1       3.128  -8.548  -6.721  0.00  0.00    +0.134 A 
ATOM     43  F   UNL     1       2.468  -7.690  -7.530  0.00  0.00    -0.205 F 
ENDBRANCH  34  37
ENDBRANCH  31  32
ENDBRANCH   2  31
TORSDOF 8
