REMARK  Name = ZINC66975914
REMARK  4 active torsions:
REMARK  status: ('A' for Active; 'I' for Inactive)
REMARK    1  A    between atoms: C_4  and  C_6
REMARK    2  A    between atoms: C_6  and  C_7
REMARK    3  A    between atoms: N_9  and  C_10
REMARK    4  A    between atoms: N_18  and  C_19
REMARK                            x       y       z     vdW  Elec       q    Type
REMARK                         _______ _______ _______ _____ _____    ______ ____
ROOT
ATOM      1  C   UNL     1      -0.399  -4.743  -2.133  0.00  0.00    +0.076 C 
ATOM      2  C   UNL     1      -1.916  -4.578  -2.029  0.00  0.00    +0.041 C 
ATOM      3  C   UNL     1      -2.546  -5.916  -1.629  0.00  0.00    +0.111 C 
ATOM      4  N   UNL     1      -2.115  -6.946  -2.584  0.00  0.00    -0.286 N 
ATOM      5  C   UNL     1      -0.677  -7.127  -2.828  0.00  0.00    +0.111 C 
ATOM      6  C   UNL     1      -0.069  -5.775  -3.215  0.00  0.00    +0.041 C 
ATOM      7  C   UNL     1      -3.021  -7.710  -3.225  0.00  0.00    +0.303 C 
ATOM      8  O   UNL     1      -4.202  -7.615  -2.948  0.00  0.00    -0.253 OA
ATOM      9  N   UNL     1      -2.620  -8.580  -4.173  0.00  0.00    -0.294 N 
ATOM     10  H   UNL     1      -1.674  -8.709  -4.343  0.00  0.00    +0.151 HD
ENDROOT
BRANCH   9  11
ATOM     11  C   UNL     1      -3.612  -9.332  -4.945  0.00  0.00    +0.037 C 
ATOM     12  C   UNL     1      -4.459 -10.183  -3.997  0.00  0.00    +0.029 C 
ATOM     13  C   UNL     1      -5.496 -10.967  -4.804  0.00  0.00    -0.008 C 
ATOM     14  C   UNL     1      -4.781 -11.877  -5.805  0.00  0.00    +0.007 C 
ATOM     15  C   UNL     1      -3.934 -11.026  -6.753  0.00  0.00    -0.008 C 
ATOM     16  C   UNL     1      -2.897 -10.241  -5.946  0.00  0.00    +0.029 C 
ATOM     17  C   UNL     1      -4.838 -10.049  -7.508  0.00  0.00    +0.007 C 
ATOM     18  C   UNL     1      -5.553  -9.139  -6.507  0.00  0.00    -0.008 C 
ATOM     19  C   UNL     1      -6.400  -9.991  -5.559  0.00  0.00    +0.007 C 
ATOM     20  C   UNL     1      -4.517  -8.355  -5.700  0.00  0.00    +0.029 C 
ENDBRANCH   9  11
BRANCH   1  23
ATOM     21  C   UNL     1       0.502  -2.564  -1.517  0.00  0.00    +0.214 C 
ATOM     22  O   UNL     1       0.261  -2.825  -0.358  0.00  0.00    -0.276 OA
ATOM     23  N   UNL     1       0.210  -3.458  -2.484  0.00  0.00    -0.312 N 
ATOM     24  H   UNL     1       0.402  -3.249  -3.411  0.00  0.00    +0.149 HD
BRANCH  21  25
ATOM     25  C   UNL     1       1.127  -1.242  -1.878  0.00  0.00    +0.099 C 
BRANCH  25  29
ATOM     26  C   UNL     1      -0.018   1.540   0.006  0.00  0.00    +0.000 C 
ATOM     27  C   UNL     1       1.478   1.940  -0.005  0.00  0.00    +0.000 C 
ATOM     28  C   UNL     1       2.107   0.881  -0.945  0.00  0.00    +0.004 C 
ATOM     29  C   UNL     1       1.354  -0.421  -0.606  0.00  0.00    -0.002 C 
ATOM     30  C   UNL     1       0.003  -0.003  -0.001  0.00  0.00    +0.004 C 
ENDBRANCH  25  29
ENDBRANCH  21  25
ENDBRANCH   1  23
TORSDOF 4
