REMARK  Name = ZINC44714703
REMARK  10 active torsions:
REMARK  status: ('A' for Active; 'I' for Inactive)
REMARK    1  A    between atoms: C_1  and  C_2
REMARK    2  A    between atoms: C_4  and  C_11
REMARK    3  A    between atoms: N_5  and  C_7
REMARK    4  A    between atoms: C_7  and  C_8
REMARK    5  A    between atoms: C_7  and  C_9
REMARK    6  A    between atoms: C_7  and  C_10
REMARK    7  A    between atoms: C_15  and  C_24
REMARK    8  A    between atoms: N_26  and  C_27
REMARK    9  A    between atoms: C_27  and  C_28
REMARK   10  A    between atoms: C_28  and  C_29
REMARK                            x       y       z     vdW  Elec       q    Type
REMARK                         _______ _______ _______ _____ _____    ______ ____
ROOT
ATOM      1  C   UNL     1      -0.591  -4.011  -1.480  0.00  0.00    +0.265 C 
ATOM      2  O   UNL     1      -0.830  -3.821  -2.657  0.00  0.00    -0.268 OA
ATOM      3  N   UNL     1      -0.691  -5.252  -0.964  0.00  0.00    -0.295 N 
ATOM      4  C   UNL     1      -0.572  -5.656   0.457  0.00  0.00    +0.121 C 
ATOM      5  C   UNL     1      -1.654  -6.743   0.645  0.00  0.00    +0.100 C 
ATOM      6  C   UNL     1      -1.894  -7.307  -0.765  0.00  0.00    -0.004 C 
ATOM      7  C   UNL     1      -0.952  -6.519  -1.688  0.00  0.00    +0.115 C 
ATOM      8  C   UNL     1      -1.552  -8.793  -0.805  0.00  0.00    -0.010 C 
ATOM      9  C   UNL     1      -1.853  -9.344  -2.202  0.00  0.00    -0.082 C 
ATOM     10  N   UNL     1      -3.273  -9.139  -2.515  0.00  0.00    +0.379 N 
ATOM     11  C   UNL     1      -3.572  -7.703  -2.566  0.00  0.00    -0.082 C 
ATOM     12  C   UNL     1      -3.343  -7.083  -1.185  0.00  0.00    -0.010 C 
ATOM     13  H   UNL     1      -3.482  -9.557  -3.410  0.00  0.00    -0.086 HD
ATOM     14  H   UNL     1      -3.839  -9.575  -1.803  0.00  0.00    -0.086 HD
ENDROOT
BRANCH   1  18
ATOM     15  C   UNL     1       1.017  -1.181   2.409  0.00  0.00    +0.067 C 
ATOM     16  C   UNL     1       0.508  -1.637   1.067  0.00  0.00    +0.061 A 
ATOM     17  C   UNL     1       0.259  -2.958   0.687  0.00  0.00    +0.057 A 
ATOM     18  C   UNL     1      -0.192  -2.886  -0.620  0.00  0.00    +0.124 A 
ATOM     19  N   UNL     1      -0.191  -1.560  -0.951  0.00  0.00    -0.254 N 
ATOM     20  N   UNL     1       0.215  -0.866   0.051  0.00  0.00    -0.175 NA
BRANCH  19  21
ATOM     21  C   UNL     1      -0.597  -1.014  -2.248  0.00  0.00    +0.056 C 
ATOM     22  C   UNL     1      -2.013  -1.489  -2.581  0.00  0.00    +0.036 C 
ATOM     23  C   UNL     1      -0.573   0.515  -2.188  0.00  0.00    +0.036 C 
ATOM     24  C   UNL     1       0.370  -1.497  -3.330  0.00  0.00    +0.036 C 
ENDBRANCH  19  21
ENDBRANCH   1  18
BRANCH   5  25
ATOM     25  C   UNL     1      -1.156  -7.825   1.568  0.00  0.00    +0.218 C 
ATOM     26  O   UNL     1       0.033  -8.047   1.657  0.00  0.00    -0.275 OA
ATOM     27  N   UNL     1      -2.032  -8.547   2.295  0.00  0.00    -0.315 N 
ATOM     28  H   UNL     1      -2.986  -8.425   2.166  0.00  0.00    +0.149 HD
BRANCH  27  29
ATOM     29  C   UNL     1      -1.544  -9.518   3.278  0.00  0.00    +0.109 C 
BRANCH  29  30
ATOM     30  C   UNL     1      -2.734 -10.196   3.959  0.00  0.00    +0.056 C 
BRANCH  30  31
ATOM     31  C   UNL     1      -2.232 -11.194   4.970  0.00  0.00    -0.021 A 
ATOM     32  C   UNL     1      -2.046 -12.508   4.771  0.00  0.00    +0.087 A 
ATOM     33  N   UNL     1      -1.580 -13.093   5.917  0.00  0.00    -0.360 N 
ATOM     34  H   UNL     1      -1.371 -14.035   6.016  0.00  0.00    +0.165 HD
ATOM     35  C   UNL     1      -1.452 -12.145   6.907  0.00  0.00    +0.047 A 
ATOM     36  C   UNL     1      -1.849 -10.913   6.356  0.00  0.00    +0.004 A 
ATOM     37  C   UNL     1      -1.816  -9.756   7.137  0.00  0.00    +0.030 A 
ATOM     38  C   UNL     1      -1.391  -9.830   8.445  0.00  0.00    +0.042 A 
ATOM     39  C   UNL     1      -0.997 -11.046   8.988  0.00  0.00    +0.022 A 
ATOM     40  C   UNL     1      -1.031 -12.197   8.232  0.00  0.00    +0.027 A 
ATOM     41 CL   UNL     1      -1.349  -8.395   9.421  0.00  0.00    -0.084 Cl
ENDBRANCH  30  31
ENDBRANCH  29  30
ENDBRANCH  27  29
ENDBRANCH   5  25
TORSDOF 6
