REMARK  Name = ZINC11910214
REMARK  10 active torsions:
REMARK  status: ('A' for Active; 'I' for Inactive)
REMARK    1  A    between atoms: C_1  and  C_2
REMARK    2  A    between atoms: C_2  and  C_3
REMARK    3  A    between atoms: C_2  and  O_4
REMARK    4  A    between atoms: O_4  and  C_5
REMARK    5  A    between atoms: C_5  and  C_6
REMARK    6  A    between atoms: C_6  and  N_57
REMARK    7  A    between atoms: C_7  and  N_57
REMARK    8  A    between atoms: N_18  and  C_21
REMARK    9  A    between atoms: C_21  and  C_22
REMARK   10  A    between atoms: C_22  and  C_23
REMARK                            x       y       z     vdW  Elec       q    Type
REMARK                         _______ _______ _______ _____ _____    ______ ____
ROOT
ATOM      1  C   UNL     1      -0.944   3.112  -1.133  0.00  0.00    -0.067 C 
ATOM      2  C   UNL     1      -0.757   1.595  -1.227  0.00  0.00    -0.011 C 
ATOM      3  C   UNL     1      -0.013   1.086   0.008  0.00  0.00    +0.035 C 
ATOM      4  C   UNL     1      -0.732   1.580   1.260  0.00  0.00    -0.023 A 
ATOM      5  C   UNL     1      -1.596   2.622   1.189  0.00  0.00    -0.006 A 
ATOM      6  S   UNL     1      -2.189   2.847   2.847  0.00  0.00    -0.073 S 
ATOM      7  C   UNL     1      -1.276   1.549   3.630  0.00  0.00    +0.116 A 
ATOM      8  C   UNL     1      -0.540   0.979   2.568  0.00  0.00    +0.076 A 
ATOM      9  C   UNL     1       0.316  -0.128   2.888  0.00  0.00    +0.262 A 
ATOM     10  O   UNL     1       0.993  -0.690   2.045  0.00  0.00    -0.267 OA
ATOM     11  N   UNL     1       0.322  -0.508   4.188  0.00  0.00    -0.298 N 
ATOM     12  C   UNL     1      -0.421   0.103   5.141  0.00  0.00    +0.203 A 
ATOM     13  N   UNL     1      -1.216   1.119   4.887  0.00  0.00    -0.230 NA
ATOM     14  C   UNL     1      -1.966   3.413  -0.028  0.00  0.00    +0.027 C 
ENDROOT
BRANCH   1  15
ATOM     15  N   UNL     1      -1.445   3.622  -2.424  0.00  0.00    +0.383 N 
ATOM     16  H   UNL     1      -1.029   3.076  -3.188  0.00  0.00    -0.085 HD
ATOM     17  H   UNL     1      -2.467   3.527  -2.452  0.00  0.00    -0.085 HD
BRANCH  15  18
ATOM     18  C   UNL     1      -1.083   5.042  -2.588  0.00  0.00    -0.054 C 
BRANCH  18  19
ATOM     19  C   UNL     1      -1.615   5.542  -3.933  0.00  0.00    +0.141 C 
BRANCH  19  20
ATOM     20  O   UNL     1      -3.043   5.511  -3.922  0.00  0.00    -0.379 OA
BRANCH  20  22
ATOM     21  C   UNL     1      -3.832   4.773  -6.084  0.00  0.00    +0.037 C 
ATOM     22  C   UNL     1      -3.644   5.961  -5.138  0.00  0.00    +0.112 C 
ATOM     23  C   UNL     1      -5.005   6.590  -4.832  0.00  0.00    +0.037 C 
ENDBRANCH  20  22
ENDBRANCH  19  20
ENDBRANCH  18  19
ENDBRANCH  15  18
ENDBRANCH   1  15
BRANCH  11  24
ATOM     24  C   UNL     1       1.174  -1.633   4.582  0.00  0.00    +0.131 C 
BRANCH  24  25
ATOM     25  C   UNL     1       0.385  -2.938   4.458  0.00  0.00    +0.058 C 
BRANCH  25  26
ATOM     26  C   UNL     1       1.261  -4.095   4.864  0.00  0.00    -0.027 A 
ATOM     27  C   UNL     1       1.949  -4.812   3.902  0.00  0.00    +0.005 A 
ATOM     28  C   UNL     1       2.756  -5.870   4.274  0.00  0.00    +0.000 A 
ATOM     29  C   UNL     1       2.869  -6.220   5.607  0.00  0.00    +0.001 A 
ATOM     30  C   UNL     1       2.177  -5.507   6.569  0.00  0.00    +0.020 A 
ATOM     31  C   UNL     1       1.373  -4.444   6.197  0.00  0.00    +0.044 A 
ATOM     32 CL   UNL     1       0.504  -3.550   7.405  0.00  0.00    -0.083 Cl
ENDBRANCH  25  26
ENDBRANCH  24  25
ENDBRANCH  11  24
TORSDOF 8
