REMARK  Name = ZINC20574272
REMARK  8 active torsions:
REMARK  status: ('A' for Active; 'I' for Inactive)
REMARK    1  A    between atoms: C_1  and  C_2
REMARK    2  A    between atoms: C_5  and  N_9
REMARK    3  A    between atoms: C_7  and  C_8
REMARK    4  A    between atoms: N_21  and  C_24
REMARK    5  A    between atoms: C_24  and  C_25
REMARK    6  A    between atoms: N_27  and  C_28
REMARK    7  A    between atoms: C_30  and  C_35
REMARK    8  A    between atoms: C_32  and  C_34
REMARK                            x       y       z     vdW  Elec       q    Type
REMARK                         _______ _______ _______ _____ _____    ______ ____
ROOT
ATOM      1  N   UNL     1       2.359   3.780  -0.125  0.00  0.00    -0.243 N 
ATOM      2  C   UNL     1       2.341   5.107  -0.249  0.00  0.00    +0.231 C 
ATOM      3  O   UNL     1       1.297   5.713  -0.369  0.00  0.00    -0.274 OA
ATOM      4  C   UNL     1       3.679   5.832  -0.235  0.00  0.00    +0.168 C 
ATOM      5  S   UNL     1       4.833   4.413  -0.491  0.00  0.00    -0.111 S 
ATOM      6  C   UNL     1       3.646   3.104   0.009  0.00  0.00    +0.192 C 
ATOM      7  C   UNL     1       3.778   1.897  -0.866  0.00  0.00    +0.017 A 
ATOM      8  C   UNL     1       3.648   1.679  -2.220  0.00  0.00    +0.009 A 
ATOM      9  C   UNL     1       3.838   0.411  -2.739  0.00  0.00    +0.000 A 
ATOM     10  C   UNL     1       4.159  -0.637  -1.897  0.00  0.00    +0.002 A 
ATOM     11  C   UNL     1       4.291  -0.425  -0.540  0.00  0.00    +0.024 A 
ATOM     12  C   UNL     1       4.102   0.848  -0.008  0.00  0.00    +0.043 A 
ATOM     13  N   UNL     1       4.180   1.308   1.309  0.00  0.00    -0.259 N 
ATOM     14  C   UNL     1       3.925   2.629   1.403  0.00  0.00    +0.259 C 
ATOM     15  O   UNL     1       3.922   3.299   2.413  0.00  0.00    -0.272 OA
ENDROOT
BRANCH   1  20
ATOM     16  C   UNL     1      -2.472   0.807  -0.095  0.00  0.00    +0.044 C 
ATOM     17  C   UNL     1      -1.190   1.599  -0.102  0.00  0.00    -0.047 A 
ATOM     18  C   UNL     1      -0.440   1.708   1.054  0.00  0.00    +0.005 A 
ATOM     19  C   UNL     1       0.738   2.428   1.050  0.00  0.00    +0.024 A 
ATOM     20  C   UNL     1       1.166   3.049  -0.117  0.00  0.00    +0.039 A 
ATOM     21  C   UNL     1       0.408   2.943  -1.275  0.00  0.00    +0.027 A 
ATOM     22  C   UNL     1      -0.769   2.220  -1.264  0.00  0.00    -0.046 A 
ATOM     23  C   UNL     1      -1.593   2.104  -2.520  0.00  0.00    +0.044 C 
ENDBRANCH   1  20
BRANCH  13  24
ATOM     24  C   UNL     1       4.501   0.454   2.456  0.00  0.00    +0.209 C 
BRANCH  24  25
ATOM     25  C   UNL     1       3.229  -0.118   3.028  0.00  0.00    +0.235 C 
ATOM     26  O   UNL     1       2.160   0.160   2.527  0.00  0.00    -0.274 OA
ATOM     27  N   UNL     1       3.280  -0.939   4.096  0.00  0.00    -0.284 N 
ATOM     28  H   UNL     1       4.240  -1.128   4.599  0.00  0.00    +0.155 HD
BRANCH  27  29
ATOM     29  C   UNL     1       2.112  -1.551   4.564  0.00  0.00    +0.034 A 
ATOM     30  C   UNL     1       1.952  -1.798   5.921  0.00  0.00    +0.026 A 
ATOM     31  C   UNL     1       0.796  -2.399   6.380  0.00  0.00    -0.048 A 
ATOM     32  C   UNL     1      -0.197  -2.762   5.489  0.00  0.00    +0.006 A 
ATOM     33  C   UNL     1      -0.038  -2.522   4.137  0.00  0.00    -0.048 A 
ATOM     34  C   UNL     1       1.113  -1.917   3.671  0.00  0.00    +0.026 A 
ATOM     35  C   UNL     1      -1.123  -2.920   3.169  0.00  0.00    +0.044 C 
ATOM     36  C   UNL     1       0.620  -2.663   7.853  0.00  0.00    +0.044 C 
ENDBRANCH  27  29
ENDBRANCH  24  25
ENDBRANCH  13  24
TORSDOF 4
