REMARK  Name = ZINC40983935
REMARK  11 active torsions:
REMARK  status: ('A' for Active; 'I' for Inactive)
REMARK    1  A    between atoms: C_1  and  C_2
REMARK    2  A    between atoms: C_3  and  C_17
REMARK    3  A    between atoms: C_5  and  C_7
REMARK    4  A    between atoms: C_10  and  O_13
REMARK    5  A    between atoms: O_13  and  C_14
REMARK    6  A    between atoms: C_14  and  C_15
REMARK    7  A    between atoms: C_14  and  C_16
REMARK    8  A    between atoms: C_17  and  N_18
REMARK    9  A    between atoms: C_21  and  C_24
REMARK   10  A    between atoms: N_29  and  C_32
REMARK   11  A    between atoms: C_32  and  C_33
REMARK                            x       y       z     vdW  Elec       q    Type
REMARK                         _______ _______ _______ _____ _____    ______ ____
ROOT
ATOM      1  N   UNL     1      -2.779  -0.411  -1.121  0.00  0.00    +0.383 N 
ATOM      2  C   UNL     1      -2.677  -1.626  -1.939  0.00  0.00    -0.078 C 
ATOM      3  C   UNL     1      -3.177  -1.335  -3.356  0.00  0.00    -0.006 C 
ATOM      4  C   UNL     1      -4.638  -0.882  -3.293  0.00  0.00    +0.072 C 
ATOM      5  C   UNL     1      -4.744   0.341  -2.377  0.00  0.00    -0.006 C 
ATOM      6  C   UNL     1      -4.186  -0.012  -0.997  0.00  0.00    -0.078 C 
ATOM      7  H   UNL     1      -2.257   0.332  -1.560  0.00  0.00    -0.081 HD
ENDROOT
BRANCH   4   8
ATOM      8  C   UNL     1      -5.114  -0.519  -4.676  0.00  0.00    +0.219 C 
ATOM      9  O   UNL     1      -4.314  -0.183  -5.523  0.00  0.00    -0.275 OA
ATOM     10  N   UNL     1      -6.428  -0.567  -4.971  0.00  0.00    -0.299 N 
ATOM     11  C   UNL     1      -7.404  -1.069  -3.992  0.00  0.00    +0.123 C 
ATOM     12  C   UNL     1      -8.530  -0.040  -3.854  0.00  0.00    +0.104 C 
ATOM     13  N   UNL     1      -9.081   0.259  -5.183  0.00  0.00    -0.291 NA
ATOM     14  C   UNL     1      -8.070   0.874  -6.053  0.00  0.00    +0.104 C 
ATOM     15  C   UNL     1      -6.925  -0.113  -6.278  0.00  0.00    +0.123 C 
BRANCH  13  16
ATOM     16  C   UNL     1     -10.274   1.109  -5.080  0.00  0.00    +0.180 C 
BRANCH  16  17
ATOM     17  C   UNL     1     -10.950   1.192  -6.424  0.00  0.00    +0.230 C 
ATOM     18  O   UNL     1     -10.484   0.601  -7.375  0.00  0.00    -0.274 OA
ATOM     19  N   UNL     1     -12.073   1.924  -6.570  0.00  0.00    -0.300 N 
ATOM     20  C   UNL     1     -12.739   2.692  -5.508  0.00  0.00    +0.108 C 
ATOM     21  C   UNL     1     -13.992   3.342  -6.130  0.00  0.00    +0.020 C 
ATOM     22  C   UNL     1     -14.272   2.445  -7.365  0.00  0.00    +0.020 C 
ATOM     23  C   UNL     1     -12.833   2.091  -7.822  0.00  0.00    +0.108 C 
ENDBRANCH  16  17
ENDBRANCH  13  16
ENDBRANCH   4   8
BRANCH   1  24
ATOM     24  C   UNL     1      -2.226  -0.674   0.214  0.00  0.00    -0.019 C 
BRANCH  24  27
ATOM     25  C   UNL     1       0.083   1.428   0.347  0.00  0.00    +0.088 C 
ATOM     26  C   UNL     1       0.240  -0.058   0.157  0.00  0.00    +0.124 A 
ATOM     27  C   UNL     1      -0.752  -0.964   0.099  0.00  0.00    +0.066 A 
ATOM     28  N   UNL     1      -0.196  -2.173  -0.079  0.00  0.00    -0.216 NA
ATOM     29  C   UNL     1       1.108  -2.031  -0.131  0.00  0.00    +0.228 A 
ATOM     30  O   UNL     1       1.402  -0.726   0.007  0.00  0.00    -0.440 OA
BRANCH  29  31
ATOM     31  C   UNL     1       2.088  -3.121  -0.317  0.00  0.00    +0.037 A 
ATOM     32  C   UNL     1       1.650  -4.439  -0.460  0.00  0.00    +0.017 A 
ATOM     33  C   UNL     1       2.567  -5.453  -0.633  0.00  0.00    +0.046 A 
ATOM     34  C   UNL     1       3.925  -5.165  -0.665  0.00  0.00    +0.121 A 
ATOM     35  C   UNL     1       4.365  -3.856  -0.523  0.00  0.00    +0.046 A 
ATOM     36  C   UNL     1       3.454  -2.835  -0.355  0.00  0.00    +0.017 A 
BRANCH  34  37
ATOM     37  O   UNL     1       4.826  -6.168  -0.835  0.00  0.00    -0.489 OA
BRANCH  37  38
ATOM     38  C   UNL     1       4.311  -7.499  -0.901  0.00  0.00    +0.167 C 
ATOM     39  C   UNL     1       5.308  -8.396  -1.637  0.00  0.00    +0.051 C 
ATOM     40  C   UNL     1       4.095  -8.033   0.517  0.00  0.00    +0.051 C 
ENDBRANCH  37  38
ENDBRANCH  34  37
ENDBRANCH  29  31
ENDBRANCH  24  27
ENDBRANCH   1  24
TORSDOF 8
