REMARK  Name = ZINC35886351
REMARK  7 active torsions:
REMARK  status: ('A' for Active; 'I' for Inactive)
REMARK    1  A    between atoms: C_4  and  C_7
REMARK    2  A    between atoms: C_7  and  C_8
REMARK    3  A    between atoms: N_11  and  C_14
REMARK    4  A    between atoms: C_14  and  C_15
REMARK    5  A    between atoms: C_20  and  C_22
REMARK    6  A    between atoms: C_29  and  C_31
REMARK    7  A    between atoms: C_31  and  C_32
REMARK                            x       y       z     vdW  Elec       q    Type
REMARK                         _______ _______ _______ _____ _____    ______ ____
ROOT
ATOM      1  C   UNL     1       6.795  -3.999   4.667  0.00  0.00    -0.001 C 
ATOM      2  C   UNL     1       6.571  -5.373   3.999  0.00  0.00    +0.110 C 
ATOM      3  N   UNL     1       7.479  -6.293   4.723  0.00  0.00    -0.301 N 
ATOM      4  C   UNL     1       7.382  -5.866   6.138  0.00  0.00    +0.116 C 
ATOM      5  C   UNL     1       7.331  -4.322   6.077  0.00  0.00    +0.039 C 
ATOM      6  C   UNL     1       8.225  -7.292   4.210  0.00  0.00    +0.216 C 
ATOM      7  O   UNL     1       8.197  -7.520   3.019  0.00  0.00    -0.276 OA
ENDROOT
BRANCH   5   8
ATOM      8  C   UNL     1       8.710  -3.743   6.259  0.00  0.00    -0.040 A 
ATOM      9  C   UNL     1       9.739  -4.133   5.422  0.00  0.00    +0.004 A 
ATOM     10  C   UNL     1      11.005  -3.603   5.587  0.00  0.00    +0.003 A 
ATOM     11  C   UNL     1      11.243  -2.682   6.590  0.00  0.00    +0.038 A 
ATOM     12  C   UNL     1      10.214  -2.290   7.428  0.00  0.00    +0.124 A 
ATOM     13  C   UNL     1       8.945  -2.817   7.258  0.00  0.00    +0.042 A 
ATOM     14  F   UNL     1      10.446  -1.390   8.408  0.00  0.00    -0.205 F 
ENDBRANCH   5   8
BRANCH   1  15
ATOM     15  C   UNL     1       5.474  -3.233   4.762  0.00  0.00    -0.073 C 
BRANCH  15  19
ATOM     16  C   UNL     1       4.171  -0.963   1.399  0.00  0.00    -0.010 C 
ATOM     17  C   UNL     1       3.192  -1.919   2.088  0.00  0.00    -0.015 C 
ATOM     18  C   UNL     1       3.701  -2.233   3.496  0.00  0.00    -0.079 C 
ATOM     19  N   UNL     1       5.024  -2.862   3.413  0.00  0.00    +0.380 N 
ATOM     20  C   UNL     1       5.985  -1.925   2.819  0.00  0.00    -0.079 C 
ATOM     21  C   UNL     1       5.565  -1.599   1.385  0.00  0.00    -0.015 C 
ATOM     22  H   UNL     1       4.967  -3.691   2.841  0.00  0.00    -0.082 HD
BRANCH  16  23
ATOM     23  C   UNL     1       3.711  -0.707  -0.038  0.00  0.00    +0.038 C 
BRANCH  23  27
ATOM     24  C   UNL     1      -0.017   1.378   0.010  0.00  0.00    +0.000 A 
ATOM     25  C   UNL     1       1.171   2.086   0.002  0.00  0.00    +0.000 A 
ATOM     26  C   UNL     1       2.377   1.411  -0.013  0.00  0.00    +0.003 A 
ATOM     27  C   UNL     1       2.396   0.029  -0.020  0.00  0.00    -0.047 A 
ATOM     28  C   UNL     1       1.208  -0.679  -0.012  0.00  0.00    +0.003 A 
ATOM     29  C   UNL     1       0.002  -0.004   0.002  0.00  0.00    +0.000 A 
ENDBRANCH  23  27
ENDBRANCH  16  23
ENDBRANCH  15  19
ENDBRANCH   1  15
BRANCH   6  30
ATOM     30  C   UNL     1       9.094  -8.125   5.116  0.00  0.00    +0.099 C 
BRANCH  30  31
ATOM     31  C   UNL     1       9.829  -9.181   4.288  0.00  0.00    -0.002 C 
ATOM     32  C   UNL     1       8.825 -10.214   3.737  0.00  0.00    +0.004 C 
ATOM     33  C   UNL     1       9.587 -11.560   3.811  0.00  0.00    +0.000 C 
ATOM     34  C   UNL     1      10.374 -11.435   5.139  0.00  0.00    +0.000 C 
ATOM     35  C   UNL     1      10.814  -9.957   5.179  0.00  0.00    +0.004 C 
ENDBRANCH  30  31
ENDBRANCH   6  30
TORSDOF 7
