REMARK  Name = ZINC13063739
REMARK  11 active torsions:
REMARK  status: ('A' for Active; 'I' for Inactive)
REMARK    1  A    between atoms: C_1  and  C_2
REMARK    2  A    between atoms: C_2  and  C_3
REMARK    3  A    between atoms: C_10  and  C_15
REMARK    4  A    between atoms: C_15  and  N_69
REMARK    5  A    between atoms: C_16  and  N_69
REMARK    6  A    between atoms: C_21  and  C_23
REMARK    7  A    between atoms: C_21  and  C_25
REMARK    8  A    between atoms: C_21  and  N_69
REMARK    9  A    between atoms: C_23  and  C_24
REMARK   10  A    between atoms: N_29  and  C_30
REMARK   11  A    between atoms: C_30  and  C_31
REMARK                            x       y       z     vdW  Elec       q    Type
REMARK                         _______ _______ _______ _____ _____    ______ ____
ROOT
ATOM      1  N   UNL     1       0.784   3.854   0.900  0.00  0.00    +0.391 N 
ATOM      2  H   UNL     1       0.643   3.619   1.890  0.00  0.00    -0.080 HD
ENDROOT
BRANCH   1   3
ATOM      3  C   UNL     1      -0.506   3.729   0.189  0.00  0.00    -0.067 C 
ATOM      4  C   UNL     1      -1.013   2.276   0.291  0.00  0.00    -0.015 C 
ATOM      5  C   UNL     1      -1.688   2.013  -1.079  0.00  0.00    -0.002 C 
ATOM      6  C   UNL     1      -0.757   2.757  -2.068  0.00  0.00    -0.002 C 
ATOM      7  C   UNL     1      -0.343   4.035  -1.310  0.00  0.00    -0.015 C 
ENDBRANCH   1   3
BRANCH   1   8
ATOM      8  C   UNL     1       1.283   5.241   0.803  0.00  0.00    -0.036 C 
BRANCH   8  16
ATOM      9  C   UNL     1      -0.215   8.273   5.984  0.00  0.00    -0.047 A 
ATOM     10  C   UNL     1      -1.407   8.806   5.514  0.00  0.00    +0.005 A 
ATOM     11  C   UNL     1      -1.839   8.541   4.232  0.00  0.00    +0.026 A 
ATOM     12  C   UNL     1      -1.071   7.734   3.399  0.00  0.00    +0.049 A 
ATOM     13  C   UNL     1       0.137   7.196   3.879  0.00  0.00    -0.001 A 
ATOM     14  C   UNL     1       0.555   7.477   5.184  0.00  0.00    +0.013 A 
ATOM     15  C   UNL     1       0.935   6.343   2.996  0.00  0.00    +0.017 A 
ATOM     16  C   UNL     1       0.483   6.110   1.739  0.00  0.00    +0.001 A 
ATOM     17  C   UNL     1      -0.736   6.674   1.306  0.00  0.00    +0.251 A 
ATOM     18  O   UNL     1      -1.126   6.448   0.174  0.00  0.00    -0.268 OA
ATOM     19  N   UNL     1      -1.478   7.454   2.111  0.00  0.00    -0.322 N 
ATOM     20  H   UNL     1      -2.311   7.825   1.782  0.00  0.00    +0.169 HD
BRANCH   9  22
ATOM     21  C   UNL     1       1.095   9.841   7.390  0.00  0.00    +0.009 C 
ATOM     22  C   UNL     1       0.235   8.576   7.391  0.00  0.00    +0.032 C 
ENDBRANCH   9  22
ENDBRANCH   8  16
ENDBRANCH   1   8
BRANCH   1  23
ATOM     23  C   UNL     1       1.772   2.919   0.321  0.00  0.00    +0.003 C 
BRANCH  23  24
ATOM     24  C   UNL     1       2.397   3.513  -0.915  0.00  0.00    +0.138 A 
ATOM     25  N   UNL     1       2.775   4.758  -1.080  0.00  0.00    -0.115 NA
ATOM     26  N   UNL     1       3.260   4.872  -2.268  0.00  0.00    -0.023 NA
ATOM     27  N   UNL     1       3.202   3.732  -2.865  0.00  0.00    -0.044 NA
ATOM     28  N   UNL     1       2.676   2.869  -2.063  0.00  0.00    -0.226 N 
BRANCH  28  29
ATOM     29  C   UNL     1       2.429   1.454  -2.349  0.00  0.00    +0.182 C 
BRANCH  29  30
ATOM     30  C   UNL     1       3.690   0.665  -2.107  0.00  0.00    -0.026 A 
ATOM     31  C   UNL     1       4.592   0.471  -3.136  0.00  0.00    +0.008 A 
ATOM     32  C   UNL     1       5.751  -0.248  -2.914  0.00  0.00    +0.038 A 
ATOM     33  C   UNL     1       6.004  -0.783  -1.662  0.00  0.00    +0.123 A 
ATOM     34  C   UNL     1       5.097  -0.593  -0.633  0.00  0.00    +0.038 A 
ATOM     35  C   UNL     1       3.941   0.131  -0.857  0.00  0.00    +0.008 A 
ATOM     36  F   UNL     1       7.134  -1.490  -1.445  0.00  0.00    -0.205 F 
ENDBRANCH  29  30
ENDBRANCH  28  29
ENDBRANCH  23  24
BRANCH  23  37
ATOM     37  C   UNL     1       2.860   2.650   1.363  0.00  0.00    -0.011 C 
ATOM     38  C   UNL     1       2.222   2.072   2.628  0.00  0.00    +0.002 C 
ENDBRANCH  23  37
ENDBRANCH   1  23
TORSDOF 9
