REMARK  Name = ZINC03304333
REMARK  6 active torsions:
REMARK  status: ('A' for Active; 'I' for Inactive)
REMARK    1  A    between atoms: C_4  and  C_7
REMARK    2  A    between atoms: C_7  and  C_9
REMARK    3  A    between atoms: C_7  and  S_21
REMARK    4  A    between atoms: C_9  and  C_11
REMARK    5  A    between atoms: S_21  and  C_22
REMARK    6  A    between atoms: N_35  and  C_36
REMARK                            x       y       z     vdW  Elec       q    Type
REMARK                         _______ _______ _______ _____ _____    ______ ____
ROOT
ATOM      1  S   UNL     1       5.712  -1.944   1.826  0.00  0.00    -0.069 S 
ENDROOT
BRANCH   1   2
ATOM      2  C   UNL     1       5.367  -0.758   3.083  0.00  0.00    +0.199 A 
ATOM      3  N   UNL     1       5.703   0.509   3.073  0.00  0.00    -0.120 NA
ATOM      4  N   UNL     1       5.293   1.083   4.147  0.00  0.00    -0.109 NA
ATOM      5  C   UNL     1       4.669   0.218   4.911  0.00  0.00    +0.245 A 
ATOM      6  N   UNL     1       4.692  -0.983   4.252  0.00  0.00    -0.255 N 
ATOM      7  C   UNL     1       4.101  -2.112   4.806  0.00  0.00    +0.064 A 
ATOM      8  C   UNL     1       4.123  -3.332   4.147  0.00  0.00    +0.027 A 
ATOM      9  C   UNL     1       3.527  -4.436   4.724  0.00  0.00    +0.002 A 
ATOM     10  C   UNL     1       2.905  -4.337   5.959  0.00  0.00    +0.001 A 
ATOM     11  C   UNL     1       2.872  -3.132   6.628  0.00  0.00    +0.015 A 
ATOM     12  C   UNL     1       3.471  -2.010   6.056  0.00  0.00    +0.064 A 
ATOM     13  C   UNL     1       3.459  -0.705   6.741  0.00  0.00    +0.268 A 
ATOM     14  O   UNL     1       2.922  -0.581   7.825  0.00  0.00    -0.267 OA
ATOM     15  N   UNL     1       4.059   0.349   6.149  0.00  0.00    -0.245 N 
BRANCH  15  16
ATOM     16  C   UNL     1       4.051   1.595   6.787  0.00  0.00    +0.053 A 
ATOM     17  C   UNL     1       5.084   1.942   7.648  0.00  0.00    +0.026 A 
ATOM     18  C   UNL     1       5.074   3.172   8.276  0.00  0.00    +0.002 A 
ATOM     19  C   UNL     1       4.037   4.058   8.047  0.00  0.00    +0.000 A 
ATOM     20  C   UNL     1       3.007   3.716   7.190  0.00  0.00    +0.002 A 
ATOM     21  C   UNL     1       3.014   2.490   6.555  0.00  0.00    +0.026 A 
ENDBRANCH  15  16
ENDBRANCH   1   2
BRANCH   1  22
ATOM     22  C   UNL     1       6.622  -1.002   0.571  0.00  0.00    +0.155 C 
BRANCH  22  26
ATOM     23  C   UNL     1       4.063   1.976  -1.111  0.00  0.00    +0.000 A 
ATOM     24  C   UNL     1       5.228   2.349  -0.467  0.00  0.00    +0.000 A 
ATOM     25  C   UNL     1       6.056   1.385   0.078  0.00  0.00    +0.005 A 
ATOM     26  C   UNL     1       5.719   0.048  -0.022  0.00  0.00    -0.027 A 
ATOM     27  C   UNL     1       4.554  -0.325  -0.665  0.00  0.00    +0.005 A 
ATOM     28  C   UNL     1       3.727   0.638  -1.211  0.00  0.00    +0.000 A 
ENDBRANCH  22  26
BRANCH  22  29
ATOM     29  C   UNL     1       7.090  -1.935  -0.516  0.00  0.00    +0.183 C 
ATOM     30  O   UNL     1       6.497  -2.974  -0.721  0.00  0.00    -0.290 OA
BRANCH  29  31
ATOM     31  C   UNL     1       8.222  -1.598  -1.300  0.00  0.00    +0.044 A 
ATOM     32  C   UNL     1       9.000  -0.466  -1.188  0.00  0.00    +0.095 A 
ATOM     33  N   UNL     1       9.984  -0.501  -2.106  0.00  0.00    -0.360 N 
ATOM     34  H   UNL     1      10.658   0.189  -2.219  0.00  0.00    +0.165 HD
ATOM     35  C   UNL     1       9.904  -1.651  -2.864  0.00  0.00    +0.047 A 
ATOM     36  C   UNL     1       8.808  -2.393  -2.397  0.00  0.00    +0.010 A 
ATOM     37  C   UNL     1       8.491  -3.615  -2.982  0.00  0.00    +0.011 A 
ATOM     38  C   UNL     1       9.260  -4.095  -4.020  0.00  0.00    +0.001 A 
ATOM     39  C   UNL     1      10.346  -3.365  -4.481  0.00  0.00    +0.002 A 
ATOM     40  C   UNL     1      10.666  -2.150  -3.916  0.00  0.00    +0.026 A 
ENDBRANCH  29  31
ENDBRANCH  22  29
ENDBRANCH   1  22
TORSDOF 6
