REMARK  Name = ZINC26614609
REMARK  9 active torsions:
REMARK  status: ('A' for Active; 'I' for Inactive)
REMARK    1  A    between atoms: C_1  and  C_2
REMARK    2  A    between atoms: C_2  and  N_3
REMARK    3  A    between atoms: N_3  and  C_4
REMARK    4  A    between atoms: C_4  and  C_5
REMARK    5  A    between atoms: C_11  and  C_13
REMARK    6  A    between atoms: C_13  and  S_14
REMARK    7  A    between atoms: S_14  and  C_15
REMARK    8  A    between atoms: C_18  and  C_23
REMARK    9  A    between atoms: N_19  and  C_20
REMARK                            x       y       z     vdW  Elec       q    Type
REMARK                         _______ _______ _______ _____ _____    ______ ____
ROOT
ATOM      1  C   UNL     1       2.743  -2.031   5.614  0.00  0.00    +0.193 A 
ATOM      2  N   UNL     1       1.542  -2.242   6.102  0.00  0.00    -0.122 NA
ATOM      3  N   UNL     1       1.624  -2.625   7.326  0.00  0.00    -0.128 NA
ATOM      4  C   UNL     1       2.883  -2.684   7.695  0.00  0.00    +0.167 A 
ATOM      5  N   UNL     1       3.639  -2.311   6.608  0.00  0.00    -0.299 N 
ENDROOT
BRANCH   4   6
ATOM      6  C   UNL     1       3.390  -3.080   9.024  0.00  0.00    +0.044 A 
ATOM      7  C   UNL     1       4.689  -3.266   9.374  0.00  0.00    +0.095 A 
ATOM      8  N   UNL     1       4.765  -3.628  10.688  0.00  0.00    -0.360 N 
ATOM      9  H   UNL     1       5.745  -3.822  11.149  0.00  0.00    +0.165 HD
ATOM     10  C   UNL     1       3.503  -3.689  11.238  0.00  0.00    +0.047 A 
ATOM     11  C   UNL     1       2.587  -3.346  10.229  0.00  0.00    +0.010 A 
ATOM     12  C   UNL     1       1.221  -3.331  10.504  0.00  0.00    +0.011 A 
ATOM     13  C   UNL     1       0.776  -3.643  11.769  0.00  0.00    +0.001 A 
ATOM     14  C   UNL     1       1.680  -3.977  12.767  0.00  0.00    +0.002 A 
ATOM     15  C   UNL     1       3.033  -4.002  12.510  0.00  0.00    +0.026 A 
ENDBRANCH   4   6
BRANCH   5  16
ATOM     16  C   UNL     1       5.100  -2.227   6.533  0.00  0.00    +0.091 C 
ATOM     17  C   UNL     1       5.704  -1.446   5.364  0.00  0.00    +0.027 C 
ATOM     18  C   UNL     1       5.793  -2.974   5.391  0.00  0.00    +0.027 C 
ENDBRANCH   5  16
BRANCH   1  19
ATOM     19  S   UNL     1       3.127  -1.496   3.980  0.00  0.00    -0.077 S 
BRANCH  19  20
ATOM     20  C   UNL     1       1.458  -1.356   3.294  0.00  0.00    +0.173 C 
BRANCH  20  22
ATOM     21  N   UNL     1       0.413  -0.723   1.143  0.00  0.00    -0.297 N 
ATOM     22  C   UNL     1       1.541  -0.898   1.860  0.00  0.00    +0.226 C 
ATOM     23  O   UNL     1       2.622  -0.688   1.353  0.00  0.00    -0.275 OA
BRANCH  21  25
ATOM     24  C   UNL     1      -1.284  -2.440   1.535  0.00  0.00    +0.024 C 
ATOM     25  C   UNL     1      -0.892  -0.978   1.756  0.00  0.00    +0.105 C 
ENDBRANCH  21  25
BRANCH  21  26
ATOM     26  C   UNL     1       0.494  -0.278  -0.251  0.00  0.00    +0.142 C 
BRANCH  26  27
ATOM     27  C   UNL     1       0.459   1.227  -0.300  0.00  0.00    -0.030 A 
ATOM     28  C   UNL     1      -0.751   1.888  -0.407  0.00  0.00    +0.005 A 
ATOM     29  C   UNL     1      -0.783   3.269  -0.447  0.00  0.00    +0.000 A 
ATOM     30  C   UNL     1       0.395   3.990  -0.391  0.00  0.00    +0.000 A 
ATOM     31  C   UNL     1       1.605   3.329  -0.290  0.00  0.00    +0.000 A 
ATOM     32  C   UNL     1       1.637   1.948  -0.244  0.00  0.00    +0.005 A 
ENDBRANCH  26  27
ENDBRANCH  21  26
ENDBRANCH  20  22
ENDBRANCH  19  20
ENDBRANCH   1  19
TORSDOF 8
