REMARK  Name = ZINC09293006
REMARK  10 active torsions:
REMARK  status: ('A' for Active; 'I' for Inactive)
REMARK    1  A    between atoms: C_4  and  C_7
REMARK    2  A    between atoms: C_7  and  O_8
REMARK    3  A    between atoms: O_8  and  C_9
REMARK    4  A    between atoms: C_12  and  C_15
REMARK    5  A    between atoms: C_22  and  N_39
REMARK    6  A    between atoms: C_23  and  C_37
REMARK    7  A    between atoms: C_24  and  C_26
REMARK    8  A    between atoms: C_29  and  O_32
REMARK    9  A    between atoms: O_32  and  C_33
REMARK   10  A    between atoms: C_33  and  C_34
REMARK                            x       y       z     vdW  Elec       q    Type
REMARK                         _______ _______ _______ _____ _____    ______ ____
ROOT
ATOM      1  C   UNL     1       9.005  -3.667   1.975  0.00  0.00    +0.100 A 
ATOM      2  C   UNL     1       9.933  -3.452   2.998  0.00  0.00    +0.054 A 
ATOM      3  C   UNL     1      10.976  -4.312   2.809  0.00  0.00    +0.223 A 
ATOM      4  N   UNL     1      10.713  -5.040   1.704  0.00  0.00    -0.246 N 
ATOM      5  H   UNL     1      11.280  -5.731   1.328  0.00  0.00    +0.192 HD
ATOM      6  N   UNL     1       9.471  -4.626   1.198  0.00  0.00    -0.171 NA
ATOM      7  O   UNL     1      12.048  -4.357   3.640  0.00  0.00    -0.423 OA
ATOM      8  C   UNL     1      11.946  -3.722   4.825  0.00  0.00    +0.200 C 
ATOM      9  C   UNL     1      10.966  -2.840   5.125  0.00  0.00    +0.098 C 
ATOM     10  C   UNL     1       9.881  -2.474   4.144  0.00  0.00    +0.102 C 
ENDROOT
BRANCH   1  14
ATOM     11  C   UNL     1       5.319  -1.605   1.466  0.00  0.00    +0.121 A 
ATOM     12  C   UNL     1       6.047  -2.006   0.355  0.00  0.00    +0.046 A 
ATOM     13  C   UNL     1       7.242  -2.675   0.517  0.00  0.00    +0.013 A 
ATOM     14  C   UNL     1       7.719  -2.947   1.798  0.00  0.00    +0.003 A 
ATOM     15  C   UNL     1       6.986  -2.542   2.912  0.00  0.00    +0.013 A 
ATOM     16  C   UNL     1       5.794  -1.870   2.744  0.00  0.00    +0.046 A 
BRANCH  11  17
ATOM     17  O   UNL     1       4.141  -0.946   1.304  0.00  0.00    -0.487 OA
BRANCH  17  18
ATOM     18  C   UNL     1       3.711  -0.707  -0.038  0.00  0.00    +0.264 C 
BRANCH  18  22
ATOM     19  C   UNL     1      -0.017   1.378   0.010  0.00  0.00    +0.000 A 
ATOM     20  C   UNL     1       1.171   2.086   0.002  0.00  0.00    +0.000 A 
ATOM     21  C   UNL     1       2.377   1.411  -0.013  0.00  0.00    +0.007 A 
ATOM     22  C   UNL     1       2.396   0.029  -0.020  0.00  0.00    -0.010 A 
ATOM     23  C   UNL     1       1.208  -0.679  -0.012  0.00  0.00    +0.007 A 
ATOM     24  C   UNL     1       0.002  -0.004   0.002  0.00  0.00    +0.000 A 
ENDBRANCH  18  22
ENDBRANCH  17  18
ENDBRANCH  11  17
ENDBRANCH   1  14
BRANCH  10  25
ATOM     25  C   UNL     1      10.110  -1.076   3.629  0.00  0.00    -0.034 A 
ATOM     26  C   UNL     1      11.288  -0.765   2.976  0.00  0.00    +0.008 A 
ATOM     27  C   UNL     1      11.501   0.515   2.504  0.00  0.00    +0.046 A 
ATOM     28  C   UNL     1      10.531   1.490   2.686  0.00  0.00    +0.121 A 
ATOM     29  C   UNL     1       9.349   1.176   3.341  0.00  0.00    +0.046 A 
ATOM     30  C   UNL     1       9.139  -0.108   3.807  0.00  0.00    +0.008 A 
BRANCH  28  31
ATOM     31  O   UNL     1      10.738   2.751   2.223  0.00  0.00    -0.483 OA
BRANCH  31  32
ATOM     32  C   UNL     1       9.695   3.703   2.446  0.00  0.00    +0.324 C 
BRANCH  32  33
ATOM     33  C   UNL     1      10.100   5.035   1.868  0.00  0.00    +0.248 C 
ATOM     34  O   UNL     1      11.175   5.157   1.320  0.00  0.00    -0.272 OA
ATOM     35  N   UNL     1       9.267   6.090   1.961  0.00  0.00    -0.327 N 
ATOM     36  H   UNL     1       8.407   5.993   2.400  0.00  0.00    +0.145 HD
ATOM     37  H   UNL     1       9.527   6.948   1.589  0.00  0.00    +0.145 HD
ENDBRANCH  32  33
ENDBRANCH  31  32
ENDBRANCH  28  31
ENDBRANCH  10  25
BRANCH   8  38
ATOM     38  N   UNL     1      12.893  -3.987   5.784  0.00  0.00    -0.328 N 
ATOM     39  H   UNL     1      13.608  -4.615   5.598  0.00  0.00    +0.145 HD
ATOM     40  H   UNL     1      12.846  -3.546   6.646  0.00  0.00    +0.145 HD
ENDBRANCH   8  38
BRANCH   9  41
ATOM     41  C   UNL     1      10.959  -2.232   6.421  0.00  0.00    +0.101 C 
ATOM     42  N   UNL     1      10.952  -1.749   7.449  0.00  0.00    -0.191 NA
ENDBRANCH   9  41
TORSDOF 10
