REMARK  Name = ZINC15770019
REMARK  5 active torsions:
REMARK  status: ('A' for Active; 'I' for Inactive)
REMARK    1  A    between atoms: C_4  and  C_7
REMARK    2  A    between atoms: C_9  and  C_26
REMARK    3  A    between atoms: C_16  and  N_17
REMARK    4  A    between atoms: N_17  and  C_18
REMARK    5  A    between atoms: N_17  and  O_25
REMARK                            x       y       z     vdW  Elec       q    Type
REMARK                         _______ _______ _______ _____ _____    ______ ____
ROOT
ATOM      1  C   UNL     1       1.746   1.443  -4.202  0.00  0.00    -0.011 A 
ATOM      2  C   UNL     1       2.166   0.154  -4.540  0.00  0.00    +0.037 A 
ATOM      3  C   UNL     1       3.068  -0.505  -3.710  0.00  0.00    +0.072 A 
ATOM      4  N   UNL     1       3.529   0.074  -2.609  0.00  0.00    -0.245 NA
ATOM      5  C   UNL     1       3.153   1.295  -2.255  0.00  0.00    +0.094 A 
ATOM      6  C   UNL     1       2.253   2.016  -3.037  0.00  0.00    -0.012 A 
ATOM      7  C   UNL     1       1.841   3.400  -2.617  0.00  0.00    +0.042 C 
ATOM      8  C   UNL     1       1.771   3.482  -1.093  0.00  0.00    +0.034 C 
ATOM      9  C   UNL     1       3.035   2.950  -0.476  0.00  0.00    +0.004 C 
ATOM     10  C   UNL     1       3.683   1.919  -1.018  0.00  0.00    +0.092 C 
ENDROOT
BRANCH   1  14
ATOM     11  C   UNL     1      -0.994   3.564  -6.667  0.00  0.00    +0.000 A 
ATOM     12  C   UNL     1       0.125   2.976  -7.228  0.00  0.00    +0.001 A 
ATOM     13  C   UNL     1       1.018   2.287  -6.432  0.00  0.00    +0.008 A 
ATOM     14  C   UNL     1       0.790   2.183  -5.062  0.00  0.00    -0.017 A 
ATOM     15  C   UNL     1      -0.342   2.773  -4.502  0.00  0.00    +0.008 A 
ATOM     16  C   UNL     1      -1.226   3.465  -5.306  0.00  0.00    +0.001 A 
ENDBRANCH   1  14
BRANCH   3  17
ATOM     17  C   UNL     1       3.521  -1.874  -4.061  0.00  0.00    +0.000 A 
ATOM     18  C   UNL     1       3.039  -2.495  -5.211  0.00  0.00    +0.010 A 
ATOM     19  C   UNL     1       3.467  -3.767  -5.535  0.00  0.00    +0.001 A 
ATOM     20  C   UNL     1       4.363  -4.428  -4.715  0.00  0.00    +0.000 A 
ATOM     21  C   UNL     1       4.840  -3.818  -3.569  0.00  0.00    +0.001 A 
ATOM     22  C   UNL     1       4.423  -2.544  -3.238  0.00  0.00    +0.010 A 
ENDBRANCH   3  17
BRANCH  10  23
ATOM     23  N   UNL     1       4.850   1.431  -0.428  0.00  0.00    -0.222 N 
BRANCH  23  24
ATOM     24  C   UNL     1       6.041   2.155  -0.532  0.00  0.00    +0.070 A 
ATOM     25  C   UNL     1       6.084   3.486  -0.138  0.00  0.00    +0.029 A 
ATOM     26  C   UNL     1       7.263   4.197  -0.237  0.00  0.00    +0.022 A 
ATOM     27  C   UNL     1       8.400   3.588  -0.739  0.00  0.00    +0.041 A 
ATOM     28  C   UNL     1       8.359   2.263  -1.138  0.00  0.00    +0.022 A 
ATOM     29  C   UNL     1       7.184   1.546  -1.035  0.00  0.00    +0.029 A 
ATOM     30 CL   UNL     1       9.879   4.486  -0.869  0.00  0.00    -0.084 Cl
ENDBRANCH  23  24
BRANCH  23  31
ATOM     31  O   UNL     1       4.827   0.203   0.277  0.00  0.00    -0.282 OA
ATOM     32  H   UNL     1       5.681  -0.052   0.651  0.00  0.00    +0.245 HD
ENDBRANCH  23  31
ENDBRANCH  10  23
TORSDOF 5
