REMARK  Name = ZINC29189200
REMARK  8 active torsions:
REMARK  status: ('A' for Active; 'I' for Inactive)
REMARK    1  A    between atoms: C_1  and  C_2
REMARK    2  A    between atoms: C_2  and  O_3
REMARK    3  A    between atoms: O_3  and  C_4
REMARK    4  A    between atoms: C_7  and  C_10
REMARK    5  A    between atoms: N_15  and  C_16
REMARK    6  A    between atoms: C_16  and  C_17
REMARK    7  A    between atoms: C_19  and  O_20
REMARK    8  A    between atoms: C_29  and  C_31
REMARK                            x       y       z     vdW  Elec       q    Type
REMARK                         _______ _______ _______ _____ _____    ______ ____
ROOT
ATOM      1  C   UNL     1       4.799  -7.097  -1.812  0.00  0.00    -0.047 A 
ATOM      2  C   UNL     1       5.088  -8.256  -2.503  0.00  0.00    +0.090 A 
ATOM      3  C   UNL     1       6.296  -8.378  -3.176  0.00  0.00    +0.285 A 
ATOM      4  O   UNL     1       7.197  -7.390  -3.173  0.00  0.00    -0.425 OA
ATOM      5  C   UNL     1       6.966  -6.236  -2.513  0.00  0.00    +0.141 A 
ATOM      6  C   UNL     1       5.751  -6.055  -1.815  0.00  0.00    +0.019 A 
ATOM      7  C   UNL     1       5.504  -4.852  -1.131  0.00  0.00    +0.013 A 
ATOM      8  C   UNL     1       6.433  -3.860  -1.146  0.00  0.00    +0.024 A 
ATOM      9  C   UNL     1       7.642  -4.029  -1.843  0.00  0.00    +0.037 A 
ATOM     10  C   UNL     1       7.907  -5.222  -2.517  0.00  0.00    +0.070 A 
ATOM     11  N   UNL     1       8.565  -3.028  -1.850  0.00  0.00    -0.286 N 
ATOM     12  C   UNL     1       9.541  -3.038  -2.736  0.00  0.00    +0.214 C 
ATOM     13  O   UNL     1       9.550  -3.872  -3.624  0.00  0.00    -0.276 OA
ATOM     14  C   UNL     1      10.646  -2.016  -2.652  0.00  0.00    +0.109 C 
ATOM     15  H   UNL     1       8.504  -2.308  -1.203  0.00  0.00    +0.155 HD
ENDROOT
BRANCH   3  16
ATOM     16  O   UNL     1       6.565  -9.514  -3.847  0.00  0.00    -0.480 OA
ATOM     17  H   UNL     1       7.426  -9.516  -4.287  0.00  0.00    +0.295 HD
ENDBRANCH   3  16
BRANCH   1  18
ATOM     18  C   UNL     1       3.494  -6.945  -1.075  0.00  0.00    -0.041 C 
BRANCH  18  23
ATOM     19  C   UNL     1       1.205  -6.215  -1.265  0.00  0.00    -0.037 C 
ATOM     20  C   UNL     1       0.072  -6.650  -2.228  0.00  0.00    -0.013 C 
ATOM     21  C   UNL     1       0.698  -7.899  -2.903  0.00  0.00    -0.020 C 
ATOM     22  C   UNL     1       2.190  -7.523  -3.017  0.00  0.00    -0.078 C 
ATOM     23  N   UNL     1       2.457  -6.480  -2.006  0.00  0.00    +0.387 N 
ATOM     24  H   UNL     1       2.766  -5.636  -2.463  0.00  0.00    -0.080 HD
BRANCH  19  28
ATOM     25  C   UNL     1       0.869  -2.052  -0.357  0.00  0.00    +0.121 A 
ATOM     26  C   UNL     1       0.461  -3.001   0.569  0.00  0.00    +0.046 A 
ATOM     27  C   UNL     1       0.570  -4.346   0.273  0.00  0.00    +0.005 A 
ATOM     28  C   UNL     1       1.087  -4.747  -0.945  0.00  0.00    -0.061 A 
ATOM     29  C   UNL     1       1.495  -3.804  -1.870  0.00  0.00    +0.005 A 
ATOM     30  C   UNL     1       1.382  -2.457  -1.581  0.00  0.00    +0.046 A 
BRANCH  25  31
ATOM     31  O   UNL     1       0.762  -0.729  -0.069  0.00  0.00    -0.492 OA
BRANCH  31  33
ATOM     32  C   UNL     1       0.183   1.138   1.353  0.00  0.00    +0.048 C 
ATOM     33  C   UNL     1       0.226  -0.385   1.210  0.00  0.00    +0.225 C 
ENDBRANCH  31  33
ENDBRANCH  25  31
ENDBRANCH  19  28
ENDBRANCH  18  23
ENDBRANCH   1  18
TORSDOF 6
