REMARK  Name = ZINC40360480
REMARK  17 active torsions:
REMARK  status: ('A' for Active; 'I' for Inactive)
REMARK    1  A    between atoms: C_1  and  C_2
REMARK    2  A    between atoms: C_2  and  C_3
REMARK    3  A    between atoms: C_3  and  C_4
REMARK    4  A    between atoms: C_4  and  C_5
REMARK    5  A    between atoms: C_5  and  C_7
REMARK    6  A    between atoms: C_5  and  C_9
REMARK    7  A    between atoms: C_7  and  C_8
REMARK    8  A    between atoms: N_11  and  C_12
REMARK    9  A    between atoms: N_11  and  C_17
REMARK   10  A    between atoms: C_12  and  C_13
REMARK   11  A    between atoms: C_13  and  N_14
REMARK   12  A    between atoms: N_14  and  C_15
REMARK   13  A    between atoms: N_14  and  C_16
REMARK   14  A    between atoms: C_17  and  C_19
REMARK   15  A    between atoms: C_17  and  C_20
REMARK   16  A    between atoms: N_30  and  C_31
REMARK   17  A    between atoms: C_36  and  C_37
REMARK                            x       y       z     vdW  Elec       q    Type
REMARK                         _______ _______ _______ _____ _____    ______ ____
ROOT
ATOM      1  C   UNL     1       2.959  -7.185  -3.431  0.00  0.00    +0.138 A 
ATOM      2  N   UNL     1       3.602  -6.920  -4.528  0.00  0.00    -0.231 NA
ATOM      3  C   UNL     1       4.736  -7.583  -4.866  0.00  0.00    +0.078 A 
ATOM      4  C   UNL     1       5.428  -7.298  -6.045  0.00  0.00    +0.028 A 
ATOM      5  C   UNL     1       6.575  -7.996  -6.348  0.00  0.00    +0.002 A 
ATOM      6  C   UNL     1       7.054  -8.982  -5.496  0.00  0.00    +0.001 A 
ATOM      7  C   UNL     1       6.389  -9.282  -4.327  0.00  0.00    +0.015 A 
ATOM      8  C   UNL     1       5.226  -8.587  -4.001  0.00  0.00    +0.065 A 
ATOM      9  C   UNL     1       4.476  -8.863  -2.768  0.00  0.00    +0.266 A 
ATOM     10  O   UNL     1       4.845  -9.715  -1.981  0.00  0.00    -0.267 OA
ATOM     11  N   UNL     1       3.361  -8.130  -2.539  0.00  0.00    -0.263 N 
ENDROOT
BRANCH  11  12
ATOM     12  C   UNL     1       2.612  -8.350  -1.376  0.00  0.00    +0.054 A 
ATOM     13  C   UNL     1       1.589  -9.289  -1.375  0.00  0.00    +0.028 A 
ATOM     14  C   UNL     1       0.852  -9.504  -0.227  0.00  0.00    +0.022 A 
ATOM     15  C   UNL     1       1.132  -8.784   0.921  0.00  0.00    +0.041 A 
ATOM     16  C   UNL     1       2.150  -7.848   0.923  0.00  0.00    +0.025 A 
ATOM     17  C   UNL     1       2.894  -7.633  -0.221  0.00  0.00    -0.025 A 
ATOM     18  C   UNL     1       4.008  -6.618  -0.217  0.00  0.00    +0.046 C 
ATOM     19 CL   UNL     1       0.203  -9.057   2.362  0.00  0.00    -0.084 Cl
ENDBRANCH  11  12
BRANCH   1  20
ATOM     20  C   UNL     1       1.708  -6.402  -3.129  0.00  0.00    +0.139 C 
ATOM     21  C   UNL     1       0.513  -7.061  -3.821  0.00  0.00    +0.036 C 
BRANCH  20  24
ATOM     22  C   UNL     1       1.909  -4.004  -2.746  0.00  0.00    +0.219 C 
ATOM     23  O   UNL     1       1.923  -4.223  -1.553  0.00  0.00    -0.275 OA
ATOM     24  N   UNL     1       1.860  -5.030  -3.619  0.00  0.00    -0.293 N 
BRANCH  22  25
ATOM     25  C   UNL     1       1.948  -2.585  -3.252  0.00  0.00    +0.075 C 
BRANCH  25  26
ATOM     26  C   UNL     1       2.959  -1.779  -2.433  0.00  0.00    +0.009 C 
ATOM     27  C   UNL     1       4.366  -2.327  -2.678  0.00  0.00    +0.004 C 
ENDBRANCH  25  26
BRANCH  25  28
ATOM     28  C   UNL     1       0.561  -1.956  -3.112  0.00  0.00    +0.013 C 
BRANCH  28  29
ATOM     29  C   UNL     1       0.560  -0.573  -3.768  0.00  0.00    +0.000 C 
BRANCH  29  31
ATOM     30  C   UNL     1      -0.829   1.439  -4.284  0.00  0.00    +0.004 C 
ATOM     31  C   UNL     1      -0.828   0.057  -3.628  0.00  0.00    -0.003 C 
ENDBRANCH  29  31
ENDBRANCH  28  29
ENDBRANCH  25  28
ENDBRANCH  22  25
BRANCH  24  32
ATOM     32  C   UNL     1       1.958  -4.772  -5.058  0.00  0.00    +0.090 C 
BRANCH  32  33
ATOM     33  C   UNL     1       0.578  -4.399  -5.604  0.00  0.00    -0.060 C 
BRANCH  33  34
ATOM     34  N   UNL     1       0.659  -4.226  -7.061  0.00  0.00    +0.377 N 
ATOM     35  C   UNL     1      -0.688  -4.011  -7.604  0.00  0.00    -0.097 C 
ATOM     36  C   UNL     1       1.503  -3.063  -7.369  0.00  0.00    -0.097 C 
ATOM     37  H   UNL     1       1.062  -5.053  -7.476  0.00  0.00    -0.083 HD
ENDBRANCH  33  34
ENDBRANCH  32  33
ENDBRANCH  24  32
ENDBRANCH  20  24
ENDBRANCH   1  20
TORSDOF 11
