REMARK  Name = ZINC24217337
REMARK  5 active torsions:
REMARK  status: ('A' for Active; 'I' for Inactive)
REMARK    1  A    between atoms: C_8  and  C_11
REMARK    2  A    between atoms: N_13  and  C_14
REMARK    3  A    between atoms: C_16  and  S_26
REMARK    4  A    between atoms: C_19  and  N_20
REMARK    5  A    between atoms: S_26  and  N_29
REMARK                            x       y       z     vdW  Elec       q    Type
REMARK                         _______ _______ _______ _____ _____    ______ ____
ROOT
ATOM      1  C   UNL     1       0.138   6.607  -0.210  0.00  0.00    +0.057 A 
ATOM      2  C   UNL     1       0.361   5.339  -0.725  0.00  0.00    +0.053 A 
ATOM      3  C   UNL     1       1.562   4.698  -0.488  0.00  0.00    +0.107 A 
ATOM      4  C   UNL     1       2.550   5.322   0.252  0.00  0.00    +0.030 A 
ATOM      5  C   UNL     1       2.339   6.589   0.764  0.00  0.00    +0.027 A 
ATOM      6  C   UNL     1       1.133   7.237   0.537  0.00  0.00    +0.051 A 
ENDROOT
BRANCH   6   7
ATOM      7  N   UNL     1       0.917   8.518   1.055  0.00  0.00    -0.328 N 
ATOM      8  C   UNL     1       1.843   9.490   0.459  0.00  0.00    +0.105 C 
ATOM      9  C   UNL     1       1.484  10.898   0.938  0.00  0.00    +0.019 C 
ATOM     10  C   UNL     1       1.573  10.951   2.466  0.00  0.00    +0.003 C 
ATOM     11  C   UNL     1       0.635   9.896   3.061  0.00  0.00    +0.019 C 
ATOM     12  C   UNL     1       1.019   8.517   2.520  0.00  0.00    +0.105 C 
ENDBRANCH   6   7
BRANCH   1  15
ATOM     13  C   UNL     1      -1.727   7.080  -1.613  0.00  0.00    +0.258 C 
ATOM     14  O   UNL     1      -1.293   6.297  -2.432  0.00  0.00    -0.271 OA
ATOM     15  N   UNL     1      -1.082   7.256  -0.443  0.00  0.00    -0.281 N 
ATOM     16  H   UNL     1      -1.514   7.910   0.329  0.00  0.00    +0.155 HD
BRANCH  13  24
ATOM     17  C   UNL     1      -7.587   7.614  -2.693  0.00  0.00    +0.000 A 
ATOM     18  C   UNL     1      -7.115   7.710  -3.990  0.00  0.00    +0.004 A 
ATOM     19  C   UNL     1      -5.759   7.692  -4.241  0.00  0.00    +0.046 A 
ATOM     20  C   UNL     1      -4.852   7.577  -3.190  0.00  0.00    +0.125 A 
ATOM     21  C   UNL     1      -5.338   7.490  -1.892  0.00  0.00    -0.002 A 
ATOM     22  C   UNL     1      -6.692   7.504  -1.643  0.00  0.00    +0.007 A 
ATOM     23  C   UNL     1      -4.134   7.406  -0.969  0.00  0.00    +0.093 C 
ATOM     24  C   UNL     1      -2.986   7.854  -1.905  0.00  0.00    +0.263 C 
ATOM     25  O   UNL     1      -3.491   7.532  -3.211  0.00  0.00    -0.479 OA
ENDBRANCH  13  24
ENDBRANCH   1  15
BRANCH   3  26
ATOM     26  S   UNL     1       1.840   3.084  -1.138  0.00  0.00    +0.061 S 
ATOM     27  O   UNL     1       3.248   2.925  -1.244  0.00  0.00    -0.153 OA
ATOM     28  O   UNL     1       0.971   2.940  -2.253  0.00  0.00    -0.153 OA
BRANCH  26  29
ATOM     29  N   UNL     1       1.326   2.001   0.005  0.00  0.00    -0.177 NA
ATOM     30  C   UNL     1      -0.062   1.520   0.009  0.00  0.00    +0.109 C 
ATOM     31  C   UNL     1      -0.053  -0.012  -0.001  0.00  0.00    +0.017 C 
ATOM     32  C   UNL     1       0.793  -0.520   1.169  0.00  0.00    +0.003 C 
ATOM     33  C   UNL     1       2.233  -0.027   1.013  0.00  0.00    +0.017 C 
ATOM     34  C   UNL     1       2.249   1.504   1.034  0.00  0.00    +0.109 C 
ENDBRANCH  26  29
ENDBRANCH   3  26
TORSDOF 5
