REMARK  Name = ZINC02964466
REMARK  8 active torsions:
REMARK  status: ('A' for Active; 'I' for Inactive)
REMARK    1  A    between atoms: C_1  and  C_2
REMARK    2  A    between atoms: C_2  and  C_3
REMARK    3  A    between atoms: C_6  and  N_9
REMARK    4  A    between atoms: C_10  and  C_12
REMARK    5  A    between atoms: C_12  and  S_13
REMARK    6  A    between atoms: S_13  and  C_14
REMARK    7  A    between atoms: C_24  and  C_29
REMARK    8  A    between atoms: C_29  and  C_30
REMARK                            x       y       z     vdW  Elec       q    Type
REMARK                         _______ _______ _______ _____ _____    ______ ____
ROOT
ATOM      1  C   UNL     1      -5.070   7.006  -2.271  0.00  0.00    +0.169 C 
ATOM      2  N   UNL     1      -4.732   8.120  -2.863  0.00  0.00    -0.225 NA
ATOM      3  C   UNL     1      -3.459   8.370  -3.258  0.00  0.00    +0.077 A 
ATOM      4  C   UNL     1      -3.119   9.569  -3.891  0.00  0.00    +0.028 A 
ATOM      5  C   UNL     1      -1.815   9.790  -4.278  0.00  0.00    +0.002 A 
ATOM      6  C   UNL     1      -0.835   8.835  -4.049  0.00  0.00    +0.001 A 
ATOM      7  C   UNL     1      -1.148   7.645  -3.426  0.00  0.00    +0.013 A 
ATOM      8  C   UNL     1      -2.458   7.404  -3.027  0.00  0.00    +0.041 A 
ATOM      9  C   UNL     1      -2.843   6.143  -2.356  0.00  0.00    +0.139 C 
ATOM     10  N   UNL     1      -2.121   5.104  -2.031  0.00  0.00    -0.255 NA
ATOM     11  C   UNL     1      -3.010   4.129  -1.382  0.00  0.00    +0.198 C 
ATOM     12  C   UNL     1      -4.367   4.799  -1.397  0.00  0.00    +0.252 C 
ATOM     13  O   UNL     1      -5.409   4.356  -0.964  0.00  0.00    -0.272 OA
ATOM     14  N   UNL     1      -4.172   5.996  -1.997  0.00  0.00    -0.200 N 
ENDROOT
BRANCH   1  15
ATOM     15  S   UNL     1      -6.754   6.784  -1.800  0.00  0.00    -0.080 S 
BRANCH  15  16
ATOM     16  C   UNL     1      -7.452   8.351  -2.377  0.00  0.00    +0.173 C 
BRANCH  16  18
ATOM     17  N   UNL     1      -9.660   9.464  -2.414  0.00  0.00    -0.285 N 
ATOM     18  C   UNL     1      -8.927   8.386  -2.072  0.00  0.00    +0.227 C 
ATOM     19  O   UNL     1      -9.455   7.445  -1.519  0.00  0.00    -0.275 OA
ATOM     20  H   UNL     1      -9.169  10.349  -2.846  0.00  0.00    +0.155 HD
BRANCH  17  24
ATOM     21  C   UNL     1     -13.786   9.447  -1.834  0.00  0.00    -0.048 A 
ATOM     22  C   UNL     1     -12.959   8.802  -0.932  0.00  0.00    +0.005 A 
ATOM     23  C   UNL     1     -11.591   8.806  -1.121  0.00  0.00    +0.023 A 
ATOM     24  C   UNL     1     -11.046   9.459  -2.219  0.00  0.00    +0.033 A 
ATOM     25  C   UNL     1     -11.878  10.111  -3.119  0.00  0.00    +0.023 A 
ATOM     26  C   UNL     1     -13.245  10.099  -2.927  0.00  0.00    +0.005 A 
BRANCH  21  28
ATOM     27  C   UNL     1     -15.679  10.652  -0.779  0.00  0.00    +0.009 C 
ATOM     28  C   UNL     1     -15.278   9.441  -1.624  0.00  0.00    +0.032 C 
ENDBRANCH  21  28
ENDBRANCH  17  24
ENDBRANCH  16  18
ENDBRANCH  15  16
ENDBRANCH   1  15
BRANCH  11  29
ATOM     29  C   UNL     1      -2.558   3.866   0.056  0.00  0.00    +0.071 C 
BRANCH  29  30
ATOM     30  C   UNL     1      -1.241   3.133   0.043  0.00  0.00    -0.045 A 
ATOM     31  C   UNL     1      -1.220   1.751   0.023  0.00  0.00    +0.004 A 
ATOM     32  C   UNL     1      -0.013   1.078   0.016  0.00  0.00    +0.000 A 
ATOM     33  C   UNL     1       1.174   1.787   0.018  0.00  0.00    +0.000 A 
ATOM     34  C   UNL     1       1.153   3.169   0.033  0.00  0.00    +0.000 A 
ATOM     35  C   UNL     1      -0.055   3.842   0.044  0.00  0.00    +0.004 A 
ENDBRANCH  29  30
ENDBRANCH  11  29
TORSDOF 7
