REMARK  Name = ZINC04047967
REMARK  6 active torsions:
REMARK  status: ('A' for Active; 'I' for Inactive)
REMARK    1  A    between atoms: C_4  and  C_7
REMARK    2  A    between atoms: C_7  and  O_8
REMARK    3  A    between atoms: O_8  and  C_9
REMARK    4  A    between atoms: C_12  and  C_16
REMARK    5  A    between atoms: N_17  and  N_18
REMARK    6  A    between atoms: C_22  and  N_25
REMARK                            x       y       z     vdW  Elec       q    Type
REMARK                         _______ _______ _______ _____ _____    ______ ____
ROOT
ATOM      1  C   UNL     1      -5.765  10.393   0.089  0.00  0.00    +0.149 A 
ATOM      2  C   UNL     1      -6.989   9.735   0.092  0.00  0.00    +0.061 A 
ATOM      3  C   UNL     1      -7.033   8.357   0.084  0.00  0.00    +0.028 A 
ATOM      4  C   UNL     1      -5.845   7.622   0.074  0.00  0.00    -0.003 A 
ATOM      5  C   UNL     1      -4.617   8.287   0.078  0.00  0.00    +0.028 A 
ATOM      6  C   UNL     1      -4.581   9.666   0.080  0.00  0.00    +0.061 A 
ATOM      7 BR   UNL     1      -2.919  10.567   0.076  0.00  0.00    -0.046 Br
ATOM      8 BR   UNL     1      -8.596  10.732   0.106  0.00  0.00    -0.046 Br
ENDROOT
BRANCH   4   9
ATOM      9  C   UNL     1      -5.888   6.148   0.066  0.00  0.00    +0.138 C 
ATOM     10  N   UNL     1      -4.783   5.467   0.056  0.00  0.00    -0.189 NA
BRANCH  10  11
ATOM     11  N   UNL     1      -4.824   4.066   0.049  0.00  0.00    -0.221 N 
ATOM     12  C   UNL     1      -3.641   3.337   0.038  0.00  0.00    +0.138 A 
ATOM     13  C   UNL     1      -3.689   1.946   0.031  0.00  0.00    +0.047 A 
ATOM     14  C   UNL     1      -2.504   1.233   0.021  0.00  0.00    +0.037 A 
ATOM     15  C   UNL     1      -1.306   1.937   0.019  0.00  0.00    +0.144 A 
ATOM     16  C   UNL     1      -1.333   3.317   0.032  0.00  0.00    +0.145 A 
ATOM     17  N   UNL     1      -2.479   3.972   0.036  0.00  0.00    -0.237 NA
ATOM     18  H   UNL     1      -5.678   3.606   0.050  0.00  0.00    +0.176 HD
BRANCH  15  19
ATOM     19  N   UNL     1      -0.014   1.214   0.009  0.00  0.00    +0.058 N 
ATOM     20  O   UNL     1       0.002  -0.004   0.002  0.00  0.00    -0.126 OA
ATOM     21  O   UNL     1       1.032   1.837   0.002  0.00  0.00    -0.126 OA
ENDBRANCH  15  19
ENDBRANCH  10  11
ENDBRANCH   4   9
BRANCH   1  22
ATOM     22  O   UNL     1      -5.726  11.751   0.096  0.00  0.00    -0.485 OA
BRANCH  22  23
ATOM     23  C   UNL     1      -5.700  12.393   1.373  0.00  0.00    +0.264 C 
BRANCH  23  27
ATOM     24  C   UNL     1      -5.580  16.629   0.836  0.00  0.00    +0.000 A 
ATOM     25  C   UNL     1      -6.796  15.978   0.929  0.00  0.00    +0.000 A 
ATOM     26  C   UNL     1      -6.835  14.607   1.103  0.00  0.00    +0.007 A 
ATOM     27  C   UNL     1      -5.658  13.887   1.183  0.00  0.00    -0.010 A 
ATOM     28  C   UNL     1      -4.442  14.539   1.096  0.00  0.00    +0.007 A 
ATOM     29  C   UNL     1      -4.403  15.909   0.916  0.00  0.00    +0.000 A 
ENDBRANCH  23  27
ENDBRANCH  22  23
ENDBRANCH   1  22
TORSDOF 6
