REMARK  Name = ZINC11592350
REMARK  6 active torsions:
REMARK  status: ('A' for Active; 'I' for Inactive)
REMARK    1  A    between atoms: C_1  and  C_2
REMARK    2  A    between atoms: C_2  and  C_4
REMARK    3  A    between atoms: C_2  and  S_16
REMARK    4  A    between atoms: S_16  and  C_17
REMARK    5  A    between atoms: C_20  and  C_23
REMARK    6  A    between atoms: N_21  and  N_22
REMARK                            x       y       z     vdW  Elec       q    Type
REMARK                         _______ _______ _______ _____ _____    ______ ____
ROOT
ATOM      1  C   UNL     1       2.310   9.620   1.433  0.00  0.00    +0.027 C 
ATOM      2  C   UNL     1       2.730   9.583  -0.038  0.00  0.00    +0.117 C 
ENDROOT
BRANCH   2   3
ATOM      3  C   UNL     1       3.694  10.708  -0.314  0.00  0.00    +0.124 A 
ATOM      4  N   UNL     1       3.202  11.871  -0.814  0.00  0.00    -0.309 N 
ATOM      5  H   UNL     1       2.251  11.957  -0.984  0.00  0.00    +0.170 HD
ATOM      6  C   UNL     1       4.026  12.913  -1.073  0.00  0.00    +0.259 A 
ATOM      7  O   UNL     1       3.598  13.962  -1.518  0.00  0.00    -0.267 OA
ATOM      8  C   UNL     1       5.459  12.726  -0.803  0.00  0.00    +0.065 A 
ATOM      9  C   UNL     1       6.392  13.734  -1.040  0.00  0.00    +0.015 A 
ATOM     10  C   UNL     1       7.723  13.504  -0.769  0.00  0.00    +0.001 A 
ATOM     11  C   UNL     1       8.140  12.280  -0.263  0.00  0.00    +0.002 A 
ATOM     12  C   UNL     1       7.234  11.272  -0.021  0.00  0.00    +0.028 A 
ATOM     13  C   UNL     1       5.880  11.480  -0.288  0.00  0.00    +0.078 A 
ATOM     14  N   UNL     1       4.954  10.514  -0.065  0.00  0.00    -0.233 NA
ENDBRANCH   2   3
BRANCH   2  15
ATOM     15  S   UNL     1       3.530   8.000  -0.397  0.00  0.00    -0.074 S 
BRANCH  15  16
ATOM     16  C   UNL     1       2.172   6.906  -0.144  0.00  0.00    +0.209 A 
ATOM     17  N   UNL     1       0.953   7.247   0.208  0.00  0.00    -0.121 NA
ATOM     18  N   UNL     1       0.212   6.201   0.304  0.00  0.00    -0.126 NA
ATOM     19  C   UNL     1       0.914   5.126   0.019  0.00  0.00    +0.188 A 
ATOM     20  N   UNL     1       2.193   5.545  -0.272  0.00  0.00    -0.223 N 
BRANCH  19  21
ATOM     21  C   UNL     1       0.426   3.737   0.017  0.00  0.00    +0.058 A 
ATOM     22  C   UNL     1      -0.866   3.275   0.026  0.00  0.00    +0.019 A 
ATOM     23  C   UNL     1      -1.081   1.915   0.017  0.00  0.00    +0.008 A 
ATOM     24  C   UNL     1      -0.013   1.076   0.008  0.00  0.00    +0.046 A 
ATOM     25  S   UNL     1       1.361   2.216   0.001  0.00  0.00    -0.093 S 
ENDBRANCH  19  21
BRANCH  20  26
ATOM     26  N   UNL     1       3.259   4.764  -0.618  0.00  0.00    -0.295 N 
ATOM     27  H   UNL     1       3.308   4.641  -1.618  0.00  0.00    +0.163 HD
ATOM     28  H   UNL     1       4.120   5.149  -0.259  0.00  0.00    +0.163 HD
ENDBRANCH  20  26
ENDBRANCH  15  16
ENDBRANCH   2  15
TORSDOF 5
