REMARK  Name = ZINC16953249
REMARK  6 active torsions:
REMARK  status: ('A' for Active; 'I' for Inactive)
REMARK    1  A    between atoms: C_1  and  C_2
REMARK    2  A    between atoms: C_2  and  O_4
REMARK    3  A    between atoms: O_4  and  C_5
REMARK    4  A    between atoms: C_11  and  C_29
REMARK    5  A    between atoms: N_23  and  O_24
REMARK    6  A    between atoms: C_27  and  C_28
REMARK                            x       y       z     vdW  Elec       q    Type
REMARK                         _______ _______ _______ _____ _____    ______ ____
ROOT
ATOM      1  C   UNL     1      -6.445   0.605   1.113  0.00  0.00    +0.183 C 
ATOM      2  C   UNL     1      -6.867   1.489   2.317  0.00  0.00    +0.045 C 
ATOM      3  C   UNL     1      -5.588   2.243   2.782  0.00  0.00    +0.008 C 
ATOM      4  C   UNL     1      -4.467   1.401   2.156  0.00  0.00    +0.002 C 
ATOM      5  C   UNL     1      -5.034   1.106   0.757  0.00  0.00    +0.008 C 
ATOM      6  C   UNL     1      -4.136   0.109   0.061  0.00  0.00    +0.011 C 
ATOM      7  C   UNL     1      -2.729   0.731  -0.059  0.00  0.00    +0.005 C 
ATOM      8  C   UNL     1      -2.168   1.091   1.302  0.00  0.00    +0.002 C 
ATOM      9  C   UNL     1      -3.080   1.987   2.132  0.00  0.00    -0.003 C 
ATOM     10  C   UNL     1      -3.058   3.459   1.780  0.00  0.00    +0.008 C 
ATOM     11  C   UNL     1      -1.937   3.810   0.804  0.00  0.00    +0.031 C 
ATOM     12  C   UNL     1      -0.700   3.088   1.281  0.00  0.00    -0.062 C 
ATOM     13  C   UNL     1       0.349   3.752   1.734  0.00  0.00    +0.026 C 
ATOM     14  C   UNL     1       1.510   3.044   2.288  0.00  0.00    +0.080 C 
ATOM     15  N   UNL     1       2.571   3.710   2.623  0.00  0.00    -0.092 NA
ATOM     16  C   UNL     1       1.472   1.548   2.469  0.00  0.00    +0.059 C 
ATOM     17  C   UNL     1       0.021   1.065   2.502  0.00  0.00    +0.017 C 
ATOM     18  C   UNL     1      -0.729   1.579   1.266  0.00  0.00    -0.007 C 
ATOM     19  C   UNL     1      -0.013   1.086   0.008  0.00  0.00    +0.016 C 
ATOM     20  C   UNL     1      -5.205   2.344  -0.118  0.00  0.00    +0.015 C 
ENDROOT
BRANCH  15  21
ATOM     21  O   UNL     1       2.607   5.116   2.455  0.00  0.00    -0.409 OA
ATOM     22  H   UNL     1       3.507   5.681   2.739  0.00  0.00    +0.328 HD
ENDBRANCH  15  21
BRANCH   1  23
ATOM     23  O   UNL     1      -6.396  -0.791   1.497  0.00  0.00    -0.461 OA
BRANCH  23  25
ATOM     24  C   UNL     1      -7.539  -2.970   1.698  0.00  0.00    +0.136 C 
ATOM     25  C   UNL     1      -7.515  -1.511   1.321  0.00  0.00    +0.304 C 
ATOM     26  O   UNL     1      -8.502  -0.990   0.860  0.00  0.00    -0.251 OA
ENDBRANCH  23  25
ENDBRANCH   1  23
TORSDOF 3
