REMARK  Name = ZINC20527956
REMARK  10 active torsions:
REMARK  status: ('A' for Active; 'I' for Inactive)
REMARK    1  A    between atoms: C_1  and  C_2
REMARK    2  A    between atoms: C_2  and  O_3
REMARK    3  A    between atoms: O_3  and  C_4
REMARK    4  A    between atoms: C_7  and  C_10
REMARK    5  A    between atoms: N_11  and  N_12
REMARK    6  A    between atoms: C_16  and  S_19
REMARK    7  A    between atoms: N_17  and  N_18
REMARK    8  A    between atoms: S_19  and  C_20
REMARK    9  A    between atoms: C_20  and  C_21
REMARK   10  A    between atoms: N_23  and  C_24
REMARK                            x       y       z     vdW  Elec       q    Type
REMARK                         _______ _______ _______ _____ _____    ______ ____
ROOT
ATOM      1  N   UNL     1      -0.013   1.383   0.073  0.00  0.00    -0.204 N 
ATOM      2  C   UNL     1       0.005  -0.004   0.056  0.00  0.00    +0.254 A 
ATOM      3  N   UNL     1      -1.045  -0.789   0.065  0.00  0.00    -0.109 NA
ATOM      4  N   UNL     1      -0.595  -2.115   0.037  0.00  0.00    -0.119 NA
ATOM      5  C   UNL     1       0.717  -2.098   0.021  0.00  0.00    +0.210 A 
ATOM      6  N   UNL     1       1.122  -0.793   0.032  0.00  0.00    -0.211 N 
ATOM      7  H   UNL     1       0.932   1.945   0.072  0.00  0.00    +0.177 HD
ENDROOT
BRANCH   6   8
ATOM      8  N   UNL     1       2.415  -0.354   0.020  0.00  0.00    -0.294 N 
ATOM      9  H   UNL     1       3.242  -1.079   0.001  0.00  0.00    +0.163 HD
ATOM     10  H   UNL     1       2.630   0.725   0.030  0.00  0.00    +0.163 HD
ENDBRANCH   6   8
BRANCH   1  12
ATOM     11  C   UNL     1      -1.252   3.366   0.108  0.00  0.00    +0.138 C 
ATOM     12  N   UNL     1      -1.235   2.067   0.092  0.00  0.00    -0.188 NA
BRANCH  11  16
ATOM     13  C   UNL     1      -4.956   5.439   0.164  0.00  0.00    +0.121 A 
ATOM     14  C   UNL     1      -3.764   6.152   0.163  0.00  0.00    +0.046 A 
ATOM     15  C   UNL     1      -2.559   5.483   0.145  0.00  0.00    +0.013 A 
ATOM     16  C   UNL     1      -2.538   4.086   0.127  0.00  0.00    -0.005 A 
ATOM     17  C   UNL     1      -3.740   3.373   0.122  0.00  0.00    +0.013 A 
ATOM     18  C   UNL     1      -4.941   4.051   0.146  0.00  0.00    +0.046 A 
BRANCH  13  19
ATOM     19  O   UNL     1      -6.142   6.103   0.181  0.00  0.00    -0.492 OA
BRANCH  19  21
ATOM     20  C   UNL     1      -8.555   6.225   0.202  0.00  0.00    +0.048 C 
ATOM     21  C   UNL     1      -7.330   5.309   0.181  0.00  0.00    +0.225 C 
ENDBRANCH  19  21
ENDBRANCH  13  19
ENDBRANCH  11  16
ENDBRANCH   1  12
BRANCH   5  22
ATOM     22  S   UNL     1       1.771  -3.509  -0.010  0.00  0.00    -0.075 S 
BRANCH  22  23
ATOM     23  C   UNL     1       0.624  -4.914  -0.012  0.00  0.00    +0.173 C 
BRANCH  23  24
ATOM     24  C   UNL     1       1.406  -6.202  -0.038  0.00  0.00    +0.228 C 
ATOM     25  O   UNL     1       2.619  -6.174  -0.053  0.00  0.00    -0.275 OA
ATOM     26  N   UNL     1       0.759  -7.384  -0.044  0.00  0.00    -0.284 N 
ATOM     27  H   UNL     1      -0.337  -7.411   0.044  0.00  0.00    +0.155 HD
BRANCH  26  28
ATOM     28  C   UNL     1       1.481  -8.577  -0.163  0.00  0.00    +0.047 A 
ATOM     29  C   UNL     1       2.738  -8.690   0.416  0.00  0.00    +0.024 A 
ATOM     30  C   UNL     1       3.447  -9.869   0.301  0.00  0.00    +0.002 A 
ATOM     31  C   UNL     1       2.910 -10.935  -0.398  0.00  0.00    +0.001 A 
ATOM     32  C   UNL     1       1.661 -10.825  -0.981  0.00  0.00    +0.017 A 
ATOM     33  C   UNL     1       0.945  -9.649  -0.865  0.00  0.00    +0.039 A 
ATOM     34 BR   UNL     1      -0.763  -9.498  -1.663  0.00  0.00    -0.048 Br
ENDBRANCH  26  28
ENDBRANCH  23  24
ENDBRANCH  22  23
ENDBRANCH   5  22
TORSDOF 9
