REMARK  Name = ZINC35024702
REMARK  21 active torsions:
REMARK  status: ('A' for Active; 'I' for Inactive)
REMARK    1  A    between atoms: C_1  and  C_2
REMARK    2  A    between atoms: C_2  and  C_3
REMARK    3  A    between atoms: C_3  and  O_4
REMARK    4  A    between atoms: O_4  and  C_5
REMARK    5  A    between atoms: C_8  and  C_12
REMARK    6  A    between atoms: C_10  and  C_11
REMARK    7  A    between atoms: C_12  and  C_13
REMARK    8  A    between atoms: C_14  and  C_26
REMARK    9  A    between atoms: N_16  and  C_21
REMARK   10  A    between atoms: C_21  and  C_22
REMARK   11  A    between atoms: C_22  and  N_23
REMARK   12  A    between atoms: N_23  and  C_24
REMARK   13  A    between atoms: N_23  and  C_25
REMARK   14  A    between atoms: C_29  and  O_34
REMARK   15  A    between atoms: C_30  and  O_32
REMARK   16  A    between atoms: O_32  and  C_33
REMARK   17  A    between atoms: O_34  and  C_35
REMARK   18  A    between atoms: C_35  and  C_36
REMARK   19  A    between atoms: C_36  and  C_37
REMARK   20  A    between atoms: C_37  and  C_38
REMARK   21  A    between atoms: C_37  and  C_39
REMARK                            x       y       z     vdW  Elec       q    Type
REMARK                         _______ _______ _______ _____ _____    ______ ____
ROOT
ATOM      1  C   UNL     1       4.126  -3.954   6.937  0.00  0.00    +0.076 C 
ATOM      2  C   UNL     1       4.013  -2.469   6.685  0.00  0.00    +0.145 C 
ATOM      3  N   UNL     1       4.760  -1.812   7.764  0.00  0.00    -0.285 N 
ATOM      4  C   UNL     1       5.259  -2.772   8.564  0.00  0.00    +0.288 C 
ATOM      5  O   UNL     1       5.931  -2.572   9.557  0.00  0.00    -0.266 OA
ATOM      6  C   UNL     1       4.866  -4.104   8.060  0.00  0.00    +0.249 C 
ATOM      7  O   UNL     1       5.195  -5.286   8.630  0.00  0.00    -0.282 OA
ENDROOT
BRANCH   2   8
ATOM      8  C   UNL     1       2.567  -2.046   6.723  0.00  0.00    -0.019 A 
ATOM      9  C   UNL     1       1.884  -2.031   7.926  0.00  0.00    +0.009 A 
ATOM     10  C   UNL     1       0.558  -1.643   7.966  0.00  0.00    +0.050 A 
ATOM     11  C   UNL     1      -0.090  -1.268   6.800  0.00  0.00    +0.162 A 
ATOM     12  C   UNL     1       0.597  -1.283   5.590  0.00  0.00    +0.162 A 
ATOM     13  C   UNL     1       1.927  -1.668   5.557  0.00  0.00    +0.055 A 
BRANCH  12  14
ATOM     14  O   UNL     1      -0.035  -0.916   4.443  0.00  0.00    -0.491 OA
ATOM     15  C   UNL     1       0.699  -1.055   3.225  0.00  0.00    +0.277 C 
ENDBRANCH  12  14
BRANCH  11  16
ATOM     16  O   UNL     1      -1.395  -0.887   6.838  0.00  0.00    -0.488 OA
BRANCH  16  17
ATOM     17  C   UNL     1      -2.037  -0.897   8.115  0.00  0.00    +0.229 C 
BRANCH  17  18
ATOM     18  C   UNL     1      -3.489  -0.442   7.960  0.00  0.00    +0.044 C 
BRANCH  18  19
ATOM     19  C   UNL     1      -4.176  -0.453   9.326  0.00  0.00    -0.014 C 
ATOM     20  C   UNL     1      -3.521   0.590  10.235  0.00  0.00    +0.007 C 
ATOM     21  C   UNL     1      -5.660  -0.119   9.155  0.00  0.00    +0.007 C 
ENDBRANCH  18  19
ENDBRANCH  17  18
ENDBRANCH  16  17
ENDBRANCH  11  16
ENDBRANCH   2   8
BRANCH   1  22
ATOM     22  C   UNL     1       3.542  -5.026   6.125  0.00  0.00    +0.195 C 
ATOM     23  O   UNL     1       2.753  -5.807   6.625  0.00  0.00    -0.287 OA
BRANCH  22  27
ATOM     24  C   UNL     1       4.603  -5.408   2.030  0.00  0.00    +0.123 A 
ATOM     25  C   UNL     1       5.242  -4.464   2.828  0.00  0.00    +0.046 A 
ATOM     26  C   UNL     1       4.901  -4.337   4.155  0.00  0.00    +0.015 A 
ATOM     27  C   UNL     1       3.910  -5.159   4.702  0.00  0.00    +0.023 A 
ATOM     28  C   UNL     1       3.271  -6.106   3.897  0.00  0.00    +0.018 A 
ATOM     29  C   UNL     1       3.614  -6.223   2.569  0.00  0.00    -0.008 A 
ATOM     30  C   UNL     1       2.921  -7.239   1.699  0.00  0.00    +0.047 C 
BRANCH  24  31
ATOM     31  O   UNL     1       4.942  -5.529   0.722  0.00  0.00    -0.492 OA
BRANCH  31  32
ATOM     32  C   UNL     1       6.040  -4.740   0.260  0.00  0.00    +0.229 C 
BRANCH  32  34
ATOM     33  C   UNL     1       7.525  -4.253  -1.689  0.00  0.00    +0.007 C 
ATOM     34  C   UNL     1       6.350  -5.099  -1.194  0.00  0.00    +0.038 C 
ENDBRANCH  32  34
ENDBRANCH  31  32
ENDBRANCH  24  31
ENDBRANCH  22  27
ENDBRANCH   1  22
BRANCH   3  35
ATOM     35  C   UNL     1       4.931  -0.368   7.939  0.00  0.00    +0.090 C 
BRANCH  35  36
ATOM     36  C   UNL     1       3.792   0.180   8.802  0.00  0.00    -0.060 C 
BRANCH  36  37
ATOM     37  N   UNL     1       3.964   1.628   8.978  0.00  0.00    +0.377 N 
ATOM     38  C   UNL     1       3.825   2.299   7.678  0.00  0.00    -0.097 C 
ATOM     39  C   UNL     1       2.941   2.135   9.902  0.00  0.00    -0.097 C 
ATOM     40  H   UNL     1       4.881   1.815   9.356  0.00  0.00    -0.083 HD
ENDBRANCH  36  37
ENDBRANCH  35  36
ENDBRANCH   3  35
TORSDOF 14
