REMARK  Name = ZINC63385589
REMARK  9 active torsions:
REMARK  status: ('A' for Active; 'I' for Inactive)
REMARK    1  A    between atoms: C_1  and  O_2
REMARK    2  A    between atoms: O_2  and  C_3
REMARK    3  A    between atoms: C_5  and  N_11
REMARK    4  A    between atoms: C_7  and  O_9
REMARK    5  A    between atoms: O_9  and  C_10
REMARK    6  A    between atoms: C_12  and  C_14
REMARK    7  A    between atoms: N_25  and  C_27
REMARK    8  A    between atoms: C_27  and  C_28
REMARK    9  A    between atoms: C_28  and  C_29
REMARK                            x       y       z     vdW  Elec       q    Type
REMARK                         _______ _______ _______ _____ _____    ______ ____
ROOT
ATOM      1  C   UNL     1       1.782  -6.102  -3.510  0.00  0.00    +0.123 C 
ATOM      2  C   UNL     1       2.663  -6.795  -2.400  0.00  0.00    +0.155 C 
ATOM      3  C   UNL     1       2.114  -8.227  -2.398  0.00  0.00    +0.004 C 
ATOM      4  C   UNL     1       2.551  -8.764  -3.527  0.00  0.00    +0.008 C 
ATOM      5  C   UNL     1       3.409  -7.698  -4.185  0.00  0.00    +0.116 C 
ATOM      6  C   UNL     1       2.473  -6.559  -4.769  0.00  0.00    +0.127 C 
ATOM      7  C   UNL     1       1.870  -7.290  -5.898  0.00  0.00    +0.223 C 
ATOM      8  O   UNL     1       0.737  -7.168  -6.315  0.00  0.00    -0.275 OA
ATOM      9  N   UNL     1       2.835  -8.135  -6.389  0.00  0.00    -0.298 N 
ATOM     10  C   UNL     1       4.000  -8.148  -5.485  0.00  0.00    +0.147 C 
ATOM     11  O   UNL     1       3.967  -6.964  -3.098  0.00  0.00    -0.359 OA
ENDROOT
BRANCH   1  13
ATOM     12  N   UNL     1       1.322  -4.003  -2.284  0.00  0.00    -0.285 N 
ATOM     13  C   UNL     1       1.830  -4.601  -3.380  0.00  0.00    +0.224 C 
ATOM     14  O   UNL     1       2.325  -3.932  -4.262  0.00  0.00    -0.275 OA
ATOM     15  H   UNL     1       0.995  -4.540  -1.546  0.00  0.00    +0.155 HD
BRANCH  12  18
ATOM     16  C   UNL     1       0.995  -0.476  -3.290  0.00  0.00    +0.125 A 
ATOM     17  C   UNL     1       1.050  -1.860  -3.362  0.00  0.00    +0.069 A 
ATOM     18  C   UNL     1       1.266  -2.607  -2.212  0.00  0.00    +0.040 A 
ATOM     19  C   UNL     1       1.426  -1.968  -0.990  0.00  0.00    +0.069 A 
ATOM     20  C   UNL     1       1.370  -0.584  -0.919  0.00  0.00    +0.125 A 
ATOM     21  C   UNL     1       1.160   0.162  -2.070  0.00  0.00    +0.091 A 
BRANCH  16  23
ATOM     22  C   UNL     1       0.745   1.676  -4.269  0.00  0.00    +0.277 C 
ATOM     23  O   UNL     1       0.784   0.255  -4.416  0.00  0.00    -0.495 OA
ENDBRANCH  16  23
BRANCH  20  24
ATOM     24  O   UNL     1       1.526   0.042   0.277  0.00  0.00    -0.495 OA
ATOM     25  C   UNL     1       1.457   1.469   0.276  0.00  0.00    +0.277 C 
ENDBRANCH  20  24
ENDBRANCH  12  18
ENDBRANCH   1  13
BRANCH   9  26
ATOM     26  C   UNL     1       2.713  -8.940  -7.607  0.00  0.00    +0.112 C 
BRANCH  26  27
ATOM     27  C   UNL     1       3.228  -8.136  -8.803  0.00  0.00    +0.052 C 
BRANCH  27  28
ATOM     28  C   UNL     1       3.102  -8.963 -10.056  0.00  0.00    -0.040 C 
ATOM     29  C   UNL     1       2.084  -8.941 -10.947  0.00  0.00    -0.001 A 
ATOM     30  C   UNL     1       0.837  -8.170 -11.012  0.00  0.00    +0.010 A 
ATOM     31  C   UNL     1      -0.005  -8.371 -12.050  0.00  0.00    +0.001 A 
ATOM     32  C   UNL     1       0.282  -9.296 -13.064  0.00  0.00    +0.002 A 
ATOM     33  C   UNL     1       1.407 -10.041 -13.073  0.00  0.00    +0.026 A 
ATOM     34  C   UNL     1       2.365  -9.911 -12.029  0.00  0.00    +0.043 A 
ATOM     35  N   UNL     1       3.511 -10.509 -11.817  0.00  0.00    -0.380 N 
ATOM     36  C   UNL     1       4.091  -9.982 -10.576  0.00  0.00    +0.144 C 
ATOM     37  H   UNL     1       3.911 -11.185 -12.386  0.00  0.00    +0.160 HD
ENDBRANCH  27  28
ENDBRANCH  26  27
ENDBRANCH   9  26
TORSDOF 7
