REMARK  Name = ZINC24873202
REMARK  11 active torsions:
REMARK  status: ('A' for Active; 'I' for Inactive)
REMARK    1  A    between atoms: C_1  and  O_2
REMARK    2  A    between atoms: O_2  and  C_3
REMARK    3  A    between atoms: C_3  and  C_4
REMARK    4  A    between atoms: C_4  and  N_5
REMARK    5  A    between atoms: N_5  and  C_6
REMARK    6  A    between atoms: N_5  and  S_23
REMARK    7  A    between atoms: N_9  and  C_12
REMARK    8  A    between atoms: C_12  and  C_13
REMARK    9  A    between atoms: C_18  and  O_19
REMARK   10  A    between atoms: O_19  and  C_20
REMARK   11  A    between atoms: S_23  and  C_26
REMARK                            x       y       z     vdW  Elec       q    Type
REMARK                         _______ _______ _______ _____ _____    ______ ____
ROOT
ATOM      1  N   UNL     1       2.863  -0.453   2.587  0.00  0.00    -0.171 NA
ENDROOT
BRANCH   1   2
ATOM      2  C   UNL     1       2.216  -0.151   1.308  0.00  0.00    +0.076 C 
ATOM      3  C   UNL     1       0.790  -0.710   1.311  0.00  0.00    +0.002 C 
ATOM      4  C   UNL     1       0.099  -0.339  -0.003  0.00  0.00    -0.077 C 
ATOM      5  N   UNL     1       0.071   1.122  -0.147  0.00  0.00    +0.383 N 
ATOM      6  C   UNL     1       1.430   1.676  -0.201  0.00  0.00    -0.077 C 
ATOM      7  C   UNL     1       2.161   1.366   1.107  0.00  0.00    +0.002 C 
ATOM      8  H   UNL     1      -0.425   1.538   0.742  0.00  0.00    -0.081 HD
BRANCH   5   9
ATOM      9  C   UNL     1      -0.706   1.520  -1.329  0.00  0.00    -0.039 C 
BRANCH   9  10
ATOM     10  C   UNL     1      -0.920   3.011  -1.311  0.00  0.00    -0.022 A 
ATOM     11  C   UNL     1      -2.126   3.531  -0.879  0.00  0.00    +0.005 A 
ATOM     12  C   UNL     1      -2.321   4.900  -0.858  0.00  0.00    +0.000 A 
ATOM     13  C   UNL     1      -1.315   5.751  -1.278  0.00  0.00    +0.004 A 
ATOM     14  C   UNL     1      -0.111   5.235  -1.716  0.00  0.00    +0.046 A 
ATOM     15  C   UNL     1       0.090   3.863  -1.733  0.00  0.00    +0.128 A 
BRANCH  15  16
ATOM     16  O   UNL     1       1.274   3.353  -2.163  0.00  0.00    -0.434 OA
BRANCH  16  17
ATOM     17  C   UNL     1       2.269   4.289  -2.583  0.00  0.00    +0.541 C 
ATOM     18  F   UNL     1       1.776   5.047  -3.650  0.00  0.00    -0.166 F 
ATOM     19  F   UNL     1       2.590   5.138  -1.518  0.00  0.00    -0.166 F 
ENDBRANCH  16  17
ENDBRANCH  15  16
ENDBRANCH   9  10
ENDBRANCH   5   9
ENDBRANCH   1   2
BRANCH   1  20
ATOM     20  S   UNL     1       4.235  -1.380   2.622  0.00  0.00    +0.063 S 
ATOM     21  O   UNL     1       4.303  -1.955   3.920  0.00  0.00    -0.153 OA
ATOM     22  O   UNL     1       4.224  -2.167   1.440  0.00  0.00    -0.153 OA
BRANCH  20  23
ATOM     23  C   UNL     1       5.608  -0.284   2.484  0.00  0.00    +0.131 A 
ATOM     24  C   UNL     1       6.483  -0.151   3.519  0.00  0.00    +0.031 A 
ATOM     25  C   UNL     1       7.578   0.706   3.429  0.00  0.00    +0.003 A 
ATOM     26  C   UNL     1       7.797   1.443   2.305  0.00  0.00    +0.010 A 
ATOM     27  C   UNL     1       6.912   1.336   1.221  0.00  0.00    +0.002 A 
ATOM     28  C   UNL     1       5.801   0.461   1.308  0.00  0.00    +0.097 A 
ATOM     29  N   UNL     1       4.956   0.354   0.278  0.00  0.00    -0.253 NA
ATOM     30  C   UNL     1       5.131   1.046  -0.822  0.00  0.00    +0.111 A 
ATOM     31  C   UNL     1       6.202   1.924  -0.973  0.00  0.00    +0.020 A 
ATOM     32  C   UNL     1       7.104   2.080   0.041  0.00  0.00    +0.011 A 
ENDBRANCH  20  23
ENDBRANCH   1  20
BRANCH   1  33
ATOM     33  C   UNL     1       2.297   0.066   3.834  0.00  0.00    +0.138 C 
BRANCH  33  34
ATOM     34  C   UNL     1       1.239  -0.908   4.357  0.00  0.00    +0.176 C 
BRANCH  34  36
ATOM     35  C   UNL     1       0.959  -3.122   5.231  0.00  0.00    +0.194 C 
ATOM     36  O   UNL     1       1.864  -2.138   4.727  0.00  0.00    -0.382 OA
ENDBRANCH  34  36
ENDBRANCH  33  34
ENDBRANCH   1  33
TORSDOF 10
