REMARK  Name = ZINC12877870
REMARK  14 active torsions:
REMARK  status: ('A' for Active; 'I' for Inactive)
REMARK    1  A    between atoms: C_1  and  C_2
REMARK    2  A    between atoms: C_13  and  O_15
REMARK    3  A    between atoms: O_15  and  C_16
REMARK    4  A    between atoms: C_16  and  C_18
REMARK    5  A    between atoms: C_18  and  C_19
REMARK    6  A    between atoms: C_19  and  C_20
REMARK    7  A    between atoms: N_22  and  C_23
REMARK    8  A    between atoms: C_23  and  C_24
REMARK    9  A    between atoms: C_24  and  C_25
REMARK   10  A    between atoms: C_24  and  C_26
REMARK   11  A    between atoms: C_24  and  C_27
REMARK   12  A    between atoms: C_27  and  C_29
REMARK   13  A    between atoms: C_27  and  O_31
REMARK   14  A    between atoms: C_40  and  C_41
REMARK                            x       y       z     vdW  Elec       q    Type
REMARK                         _______ _______ _______ _____ _____    ______ ____
ROOT
ATOM      1  C   UNL     1       5.692  -2.267  -2.325  0.00  0.00    +0.015 C 
ATOM      2  C   UNL     1       4.844  -2.120  -3.590  0.00  0.00    +0.008 C 
ATOM      3  C   UNL     1       4.674  -0.652  -3.928  0.00  0.00    +0.011 C 
ATOM      4  C   UNL     1       4.101   0.037  -2.679  0.00  0.00    +0.005 C 
ATOM      5  C   UNL     1       2.784  -0.595  -2.240  0.00  0.00    +0.002 C 
ATOM      6  C   UNL     1       2.930  -2.111  -2.040  0.00  0.00    -0.003 C 
ATOM      7  C   UNL     1       3.425  -2.701  -3.347  0.00  0.00    +0.002 C 
ATOM      8  C   UNL     1       3.705  -4.208  -3.333  0.00  0.00    +0.008 C 
ATOM      9  C   UNL     1       4.714  -4.386  -4.500  0.00  0.00    +0.045 C 
ATOM     10  C   UNL     1       5.404  -3.012  -4.693  0.00  0.00    +0.183 C 
ATOM     11  C   UNL     1       1.559  -2.705  -1.705  0.00  0.00    +0.008 C 
ATOM     12  C   UNL     1       1.067  -2.147  -0.368  0.00  0.00    +0.032 C 
ATOM     13  C   UNL     1       1.093  -0.630  -0.423  0.00  0.00    -0.060 C 
ATOM     14  C   UNL     1       0.012   0.025  -0.002  0.00  0.00    +0.046 C 
ATOM     15  C   UNL     1      -0.002   1.492   0.003  0.00  0.00    +0.156 C 
ATOM     16  O   UNL     1      -1.039   2.121   0.010  0.00  0.00    -0.293 OA
ATOM     17  C   UNL     1       1.349   2.182  -0.009  0.00  0.00    +0.080 C 
ATOM     18  C   UNL     1       2.172   1.543  -1.142  0.00  0.00    +0.019 C 
ATOM     19  C   UNL     1       2.331   0.049  -0.924  0.00  0.00    -0.007 C 
ATOM     20  C   UNL     1       3.438  -0.164   0.110  0.00  0.00    +0.016 C 
ENDROOT
BRANCH  10  21
ATOM     21  O   UNL     1       5.079  -2.463  -5.997  0.00  0.00    -0.461 OA
BRANCH  21  22
ATOM     22  C   UNL     1       5.943  -2.709  -6.995  0.00  0.00    +0.308 C 
ATOM     23  O   UNL     1       6.938  -3.362  -6.785  0.00  0.00    -0.251 OA
BRANCH  22  24
ATOM     24  C   UNL     1       5.672  -2.172  -8.376  0.00  0.00    +0.130 C 
BRANCH  24  25
ATOM     25  C   UNL     1       6.802  -2.592  -9.318  0.00  0.00    +0.107 C 
BRANCH  25  26
ATOM     26  C   UNL     1       6.531  -2.055 -10.700  0.00  0.00    +0.214 C 
ATOM     27  O   UNL     1       5.532  -1.400 -10.910  0.00  0.00    -0.276 OA
ATOM     28  N   UNL     1       7.398  -2.302 -11.701  0.00  0.00    -0.315 N 
ATOM     29  H   UNL     1       8.197  -2.826 -11.533  0.00  0.00    +0.149 HD
BRANCH  28  30
ATOM     30  C   UNL     1       7.135  -1.779 -13.044  0.00  0.00    +0.113 C 
BRANCH  30  31
ATOM     31  C   UNL     1       8.264  -2.200 -13.986  0.00  0.00    +0.017 C 
ATOM     32  C   UNL     1       9.592  -1.640 -13.472  0.00  0.00    +0.015 C 
ATOM     33  C   UNL     1       8.342  -3.727 -14.039  0.00  0.00    +0.015 C 
BRANCH  31  34
ATOM     34  C   UNL     1       7.989  -1.654 -15.389  0.00  0.00    +0.234 C 
BRANCH  34  35
ATOM     35  C   UNL     1       9.102  -2.069 -16.316  0.00  0.00    +0.384 C 
ATOM     36  O   UNL     1       8.874  -2.817 -17.237  0.00  0.00    -0.243 OA
ATOM     37  O   UNL     1      10.347  -1.607 -16.119  0.00  0.00    -0.243 OA
ENDBRANCH  34  35
BRANCH  34  38
ATOM     38  O   UNL     1       6.749  -2.178 -15.869  0.00  0.00    -0.380 OA
ATOM     39  H   UNL     1       6.726  -3.143 -15.928  0.00  0.00    +0.211 HD
ENDBRANCH  34  38
ENDBRANCH  31  34
ENDBRANCH  30  31
ENDBRANCH  28  30
ENDBRANCH  25  26
ENDBRANCH  24  25
ENDBRANCH  22  24
ENDBRANCH  21  22
ENDBRANCH  10  21
TORSDOF 10
