REMARK  Name = ZINC39661316
REMARK  6 active torsions:
REMARK  status: ('A' for Active; 'I' for Inactive)
REMARK    1  A    between atoms: C_1  and  C_2
REMARK    2  A    between atoms: C_2  and  N_3
REMARK    3  A    between atoms: C_4  and  C_10
REMARK    4  A    between atoms: C_6  and  C_8
REMARK    5  A    between atoms: C_14  and  C_23
REMARK    6  A    between atoms: N_25  and  C_26
REMARK                            x       y       z     vdW  Elec       q    Type
REMARK                         _______ _______ _______ _____ _____    ______ ____
ROOT
ATOM      1  C   UNL     1      -1.442  -0.453  -2.910  0.00  0.00    +0.266 C 
ATOM      2  O   UNL     1      -1.793  -0.772  -4.031  0.00  0.00    -0.268 OA
ATOM      3  N   UNL     1      -2.330   0.095  -2.057  0.00  0.00    -0.295 N 
ATOM      4  C   UNL     1      -2.120   0.452  -0.634  0.00  0.00    +0.121 C 
ATOM      5  C   UNL     1      -2.871   1.790  -0.453  0.00  0.00    +0.100 C 
ATOM      6  C   UNL     1      -3.931   1.800  -1.567  0.00  0.00    -0.004 C 
ATOM      7  C   UNL     1      -3.734   0.482  -2.331  0.00  0.00    +0.115 C 
ATOM      8  C   UNL     1      -3.704   2.984  -2.502  0.00  0.00    -0.010 C 
ATOM      9  C   UNL     1      -4.804   3.005  -3.568  0.00  0.00    -0.082 C 
ATOM     10  N   UNL     1      -6.116   3.112  -2.918  0.00  0.00    +0.379 N 
ATOM     11  C   UNL     1      -6.365   1.924  -2.092  0.00  0.00    -0.082 C 
ATOM     12  C   UNL     1      -5.331   1.858  -0.965  0.00  0.00    -0.010 C 
ATOM     13  H   UNL     1      -6.134   3.935  -2.334  0.00  0.00    -0.086 HD
ATOM     14  H   UNL     1      -6.834   3.187  -3.623  0.00  0.00    -0.086 HD
ENDROOT
BRANCH   1  16
ATOM     15  N   UNL     1       0.950   0.266  -2.457  0.00  0.00    -0.258 N 
ATOM     16  C   UNL     1      -0.050  -0.666  -2.487  0.00  0.00    +0.138 A 
ATOM     17  C   UNL     1       0.512  -1.850  -2.039  0.00  0.00    +0.071 A 
ATOM     18  C   UNL     1       1.847  -1.544  -1.762  0.00  0.00    +0.075 A 
ATOM     19  N   UNL     1       2.034  -0.279  -2.036  0.00  0.00    -0.175 NA
ATOM     20  C   UNL     1       2.888  -2.503  -1.243  0.00  0.00    +0.069 C 
ATOM     21 BR   UNL     1      -0.346  -3.524  -1.844  0.00  0.00    -0.046 Br
BRANCH  15  23
ATOM     22  C   UNL     1       0.998   1.798  -4.363  0.00  0.00    +0.029 C 
ATOM     23  C   UNL     1       0.808   1.670  -2.850  0.00  0.00    +0.141 C 
ENDBRANCH  15  23
ENDBRANCH   1  16
BRANCH   5  24
ATOM     24  C   UNL     1      -3.530   1.843   0.901  0.00  0.00    +0.219 C 
ATOM     25  O   UNL     1      -3.837   0.816   1.467  0.00  0.00    -0.275 OA
ATOM     26  N   UNL     1      -3.776   3.033   1.485  0.00  0.00    -0.304 N 
ATOM     27  H   UNL     1      -3.601   3.856   1.002  0.00  0.00    +0.149 HD
BRANCH  26  28
ATOM     28  C   UNL     1      -4.310   3.084   2.848  0.00  0.00    +0.151 C 
ATOM     29  C   UNL     1      -5.103   4.381   3.024  0.00  0.00    +0.042 C 
ATOM     30  C   UNL     1      -5.152   4.700   4.537  0.00  0.00    +0.079 C 
ATOM     31  S   UNL     1      -3.579   3.963   5.125  0.00  0.00    -0.086 S 
ATOM     32  C   UNL     1      -3.165   2.985   3.828  0.00  0.00    +0.209 C 
ATOM     33  O   UNL     1      -2.151   2.330   3.703  0.00  0.00    -0.283 OA
ENDBRANCH  26  28
ENDBRANCH   5  24
TORSDOF 4
