REMARK  Name = ZINC21297789
REMARK  7 active torsions:
REMARK  status: ('A' for Active; 'I' for Inactive)
REMARK    1  A    between atoms: C_1  and  C_2
REMARK    2  A    between atoms: C_2  and  C_3
REMARK    3  A    between atoms: C_2  and  C_6
REMARK    4  A    between atoms: C_2  and  O_12
REMARK    5  A    between atoms: C_6  and  C_7
REMARK    6  A    between atoms: C_6  and  C_8
REMARK    7  A    between atoms: C_6  and  O_11
REMARK                            x       y       z     vdW  Elec       q    Type
REMARK                         _______ _______ _______ _____ _____    ______ ____
ROOT
ATOM      1  C   UNL     1      -0.019   1.526   0.010  0.00  0.00    +0.057 C 
ATOM      2  C   UNL     1       0.002  -0.004   0.002  0.00  0.00    +0.203 C 
ENDROOT
BRANCH   2   3
ATOM      3  C   UNL     1       0.731  -0.503   1.223  0.00  0.00    +0.390 C 
ATOM      4  O   UNL     1       1.907  -0.774   1.156  0.00  0.00    -0.243 OA
ATOM      5  O   UNL     1       0.074  -0.647   2.385  0.00  0.00    -0.243 OA
ENDBRANCH   2   3
BRANCH   2   6
ATOM      6  C   UNL     1       0.718  -0.497  -1.257  0.00  0.00    +0.203 C 
ATOM      7  C   UNL     1       0.739  -2.027  -1.265  0.00  0.00    +0.057 C 
BRANCH   6   8
ATOM      8  C   UNL     1      -0.011   0.002  -2.478  0.00  0.00    +0.390 C 
ATOM      9  O   UNL     1      -1.186   0.273  -2.411  0.00  0.00    -0.243 OA
ATOM     10  O   UNL     1       0.646   0.145  -3.639  0.00  0.00    -0.243 OA
ENDBRANCH   6   8
BRANCH   6  11
ATOM     11  O   UNL     1       2.059  -0.003  -1.267  0.00  0.00    -0.375 OA
ATOM     12  H   UNL     1       2.732  -0.255  -2.100  0.00  0.00    +0.211 HD
ENDBRANCH   6  11
ENDBRANCH   2   6
BRANCH   2  13
ATOM     13  O   UNL     1      -1.339  -0.499   0.012  0.00  0.00    -0.375 OA
ATOM     14  H   UNL     1      -1.525  -1.583   0.008  0.00  0.00    +0.211 HD
ENDBRANCH   2  13
TORSDOF 5
