REMARK  Name = ZINC63374570
REMARK  7 active torsions:
REMARK  status: ('A' for Active; 'I' for Inactive)
REMARK    1  A    between atoms: C_1  and  C_2
REMARK    2  A    between atoms: C_13  and  C_32
REMARK    3  A    between atoms: N_20  and  C_23
REMARK    4  A    between atoms: C_23  and  C_24
REMARK    5  A    between atoms: C_24  and  C_25
REMARK    6  A    between atoms: C_37  and  O_38
REMARK    7  A    between atoms: O_38  and  C_39
REMARK                            x       y       z     vdW  Elec       q    Type
REMARK                         _______ _______ _______ _____ _____    ______ ____
ROOT
ATOM      1  C   UNL     1       0.249   1.565   0.878  0.00  0.00    +0.044 C 
ATOM      2  C   UNL     1       0.177   0.049   0.684  0.00  0.00    +0.135 C 
ATOM      3  C   UNL     1       0.378  -0.172  -0.781  0.00  0.00    +0.139 C 
ATOM      4  C   UNL     1       1.405  -1.271  -0.994  0.00  0.00    -0.027 C 
ATOM      5  C   UNL     1       0.870  -2.130  -1.849  0.00  0.00    -0.000 A 
ATOM      6  C   UNL     1       1.405  -3.339  -2.495  0.00  0.00    +0.010 A 
ATOM      7  C   UNL     1       0.557  -4.000  -3.327  0.00  0.00    +0.001 A 
ATOM      8  C   UNL     1      -0.754  -3.585  -3.578  0.00  0.00    +0.002 A 
ATOM      9  C   UNL     1      -1.327  -2.483  -3.032  0.00  0.00    +0.026 A 
ATOM     10  C   UNL     1      -0.533  -1.702  -2.144  0.00  0.00    +0.043 A 
ATOM     11  N   UNL     1      -0.813  -0.623  -1.500  0.00  0.00    -0.375 N 
ATOM     12  C   UNL     1       2.705  -1.279  -0.227  0.00  0.00    +0.068 C 
ATOM     13  C   UNL     1       2.324  -1.321   1.255  0.00  0.00    +0.121 C 
ATOM     14  N   UNL     1       1.178  -0.495   1.584  0.00  0.00    -0.283 N 
ATOM     15  C   UNL     1       0.969  -0.221   2.915  0.00  0.00    +0.234 C 
ATOM     16  O   UNL     1       1.783  -0.524   3.762  0.00  0.00    -0.274 OA
ATOM     17  C   UNL     1      -0.326   0.477   3.273  0.00  0.00    +0.203 C 
ATOM     18  N   UNL     1      -1.423  -0.137   2.502  0.00  0.00    -0.291 N 
ATOM     19  C   UNL     1      -1.195  -0.339   1.169  0.00  0.00    +0.242 C 
ATOM     20  O   UNL     1      -2.040  -0.796   0.428  0.00  0.00    -0.273 OA
ATOM     21  H   UNL     1      -1.678  -0.183  -1.499  0.00  0.00    +0.160 HD
ENDROOT
BRANCH  12  22
ATOM     22  C   UNL     1       3.490  -0.028  -0.527  0.00  0.00    +0.003 A 
ATOM     23  C   UNL     1       2.889   1.211  -0.410  0.00  0.00    +0.008 A 
ATOM     24  C   UNL     1       3.610   2.358  -0.686  0.00  0.00    +0.001 A 
ATOM     25  C   UNL     1       4.933   2.269  -1.078  0.00  0.00    +0.004 A 
ATOM     26  C   UNL     1       5.538   1.034  -1.196  0.00  0.00    +0.046 A 
ATOM     27  C   UNL     1       4.819  -0.119  -0.915  0.00  0.00    +0.124 A 
BRANCH  27  28
ATOM     28  O   UNL     1       5.414  -1.336  -1.025  0.00  0.00    -0.495 OA
ATOM     29  C   UNL     1       6.784  -1.354  -1.429  0.00  0.00    +0.277 C 
ENDBRANCH  27  28
ENDBRANCH  12  22
BRANCH  18  30
ATOM     30  C   UNL     1      -2.690  -0.513   3.133  0.00  0.00    +0.113 C 
BRANCH  30  31
ATOM     31  C   UNL     1      -3.663   0.666   3.064  0.00  0.00    +0.054 C 
BRANCH  31  32
ATOM     32  C   UNL     1      -4.967   0.280   3.712  0.00  0.00    -0.043 A 
ATOM     33  C   UNL     1      -5.970  -0.300   2.957  0.00  0.00    +0.004 A 
ATOM     34  C   UNL     1      -7.167  -0.655   3.551  0.00  0.00    +0.003 A 
ATOM     35  C   UNL     1      -7.363  -0.430   4.900  0.00  0.00    +0.038 A 
ATOM     36  C   UNL     1      -6.360   0.150   5.658  0.00  0.00    +0.124 A 
ATOM     37  C   UNL     1      -5.159   0.500   5.063  0.00  0.00    +0.042 A 
ATOM     38  F   UNL     1      -6.550   0.370   6.977  0.00  0.00    -0.205 F 
ENDBRANCH  31  32
ENDBRANCH  30  31
ENDBRANCH  18  30
TORSDOF 5
