REMARK  Name = ZINC63375537
REMARK  9 active torsions:
REMARK  status: ('A' for Active; 'I' for Inactive)
REMARK    1  A    between atoms: C_1  and  C_2
REMARK    2  A    between atoms: C_2  and  C_3
REMARK    3  A    between atoms: C_3  and  C_4
REMARK    4  A    between atoms: C_4  and  C_5
REMARK    5  A    between atoms: C_5  and  C_6
REMARK    6  A    between atoms: C_6  and  N_7
REMARK    7  A    between atoms: C_8  and  C_10
REMARK    8  A    between atoms: C_15  and  N_16
REMARK    9  A    between atoms: C_32  and  C_37
REMARK                            x       y       z     vdW  Elec       q    Type
REMARK                         _______ _______ _______ _____ _____    ______ ____
ROOT
ATOM      1  N   UNL     1       2.945  -8.683   3.728  0.00  0.00    -0.192 N 
ATOM      2  C   UNL     1       3.390  -9.188   2.559  0.00  0.00    +0.248 C 
ATOM      3  O   UNL     1       4.423  -8.913   1.988  0.00  0.00    -0.273 OA
ATOM      4  C   UNL     1       2.332 -10.171   2.109  0.00  0.00    +0.169 C 
ATOM      5  C   UNL     1       1.788  -9.764   0.729  0.00  0.00    +0.065 C 
ATOM      6  C   UNL     1       0.409 -10.370   0.619  0.00  0.00    -0.034 C 
ATOM      7  C   UNL     1      -0.117 -11.161  -0.311  0.00  0.00    -0.001 A 
ATOM      8  C   UNL     1       0.410 -11.644  -1.597  0.00  0.00    +0.010 A 
ATOM      9  C   UNL     1      -0.403 -12.473  -2.305  0.00  0.00    +0.001 A 
ATOM     10  C   UNL     1      -1.673 -12.863  -1.868  0.00  0.00    +0.002 A 
ATOM     11  C   UNL     1      -2.240 -12.460  -0.703  0.00  0.00    +0.026 A 
ATOM     12  C   UNL     1      -1.484 -11.580   0.126  0.00  0.00    +0.043 A 
ATOM     13  N   UNL     1      -1.784 -11.033   1.266  0.00  0.00    -0.375 N 
ATOM     14  C   UNL     1      -0.678 -10.161   1.665  0.00  0.00    +0.131 C 
ATOM     15  C   UNL     1      -0.085 -10.584   3.017  0.00  0.00    +0.135 C 
ATOM     16  N   UNL     1       1.263 -10.001   3.115  0.00  0.00    -0.264 N 
ATOM     17  C   UNL     1       1.744  -9.179   4.056  0.00  0.00    +0.317 C 
ATOM     18  O   UNL     1       1.158  -8.910   5.086  0.00  0.00    -0.252 OA
ATOM     19  H   UNL     1      -2.602 -11.177   1.766  0.00  0.00    +0.160 HD
ENDROOT
BRANCH   1  25
ATOM     20  C   UNL     1       3.471  -6.385   4.301  0.00  0.00    +0.059 A 
ATOM     21  C   UNL     1       4.179  -5.473   5.087  0.00  0.00    +0.015 A 
ATOM     22  C   UNL     1       5.053  -5.929   6.050  0.00  0.00    +0.001 A 
ATOM     23  C   UNL     1       5.234  -7.289   6.242  0.00  0.00    +0.002 A 
ATOM     24  C   UNL     1       4.541  -8.202   5.473  0.00  0.00    +0.025 A 
ATOM     25  C   UNL     1       3.652  -7.761   4.503  0.00  0.00    +0.058 A 
BRANCH  20  27
ATOM     26  N   UNL     1       2.361  -4.581   3.078  0.00  0.00    -0.311 N 
ATOM     27  C   UNL     1       2.532  -5.904   3.269  0.00  0.00    +0.246 C 
ATOM     28  O   UNL     1       1.914  -6.701   2.591  0.00  0.00    -0.270 OA
ATOM     29  H   UNL     1       2.855  -3.945   3.619  0.00  0.00    +0.149 HD
BRANCH  26  30
ATOM     30  C   UNL     1       1.430  -4.103   2.053  0.00  0.00    +0.104 C 
BRANCH  30  31
ATOM     31  C   UNL     1       1.423  -2.573   2.043  0.00  0.00    +0.019 C 
BRANCH  31  32
ATOM     32  C   UNL     1       0.451  -2.074   0.973  0.00  0.00    +0.002 C 
BRANCH  32  33
ATOM     33  C   UNL     1       0.444  -0.544   0.963  0.00  0.00    -0.000 C 
BRANCH  33  35
ATOM     34  C   UNL     1      -0.535   1.485  -0.117  0.00  0.00    +0.004 C 
ATOM     35  C   UNL     1      -0.528  -0.045  -0.107  0.00  0.00    -0.003 C 
ENDBRANCH  33  35
ENDBRANCH  32  33
ENDBRANCH  31  32
ENDBRANCH  30  31
ENDBRANCH  26  30
ENDBRANCH  20  27
ENDBRANCH   1  25
BRANCH  15  36
ATOM     36  C   UNL     1       0.015 -12.086   3.087  0.00  0.00    -0.025 A 
ATOM     37  C   UNL     1       0.895 -12.759   2.260  0.00  0.00    +0.005 A 
ATOM     38  C   UNL     1       0.988 -14.137   2.324  0.00  0.00    +0.000 A 
ATOM     39  C   UNL     1       0.200 -14.842   3.215  0.00  0.00    +0.000 A 
ATOM     40  C   UNL     1      -0.679 -14.169   4.042  0.00  0.00    +0.000 A 
ATOM     41  C   UNL     1      -0.768 -12.791   3.981  0.00  0.00    +0.005 A 
ENDBRANCH  15  36
TORSDOF 8
