REMARK  Name = ZINC06443928
REMARK  9 active torsions:
REMARK  status: ('A' for Active; 'I' for Inactive)
REMARK    1  A    between atoms: C_1  and  C_2
REMARK    2  A    between atoms: C_12  and  C_14
REMARK    3  A    between atoms: C_14  and  C_16
REMARK    4  A    between atoms: C_14  and  N_70
REMARK    5  A    between atoms: N_20  and  C_21
REMARK    6  A    between atoms: C_26  and  C_27
REMARK    7  A    between atoms: C_26  and  N_70
REMARK    8  A    between atoms: C_33  and  C_34
REMARK    9  A    between atoms: C_33  and  N_70
REMARK                            x       y       z     vdW  Elec       q    Type
REMARK                         _______ _______ _______ _____ _____    ______ ____
ROOT
ATOM      1  C   UNL     1       2.225   5.226  -0.072  0.00  0.00    +0.040 C 
ENDROOT
BRANCH   1  13
ATOM      2  C   UNL     1       1.851  -1.298   0.638  0.00  0.00    +0.046 C 
ATOM      3  C   UNL     1       0.779  -0.252   0.472  0.00  0.00    -0.026 A 
ATOM      4  C   UNL     1      -0.549  -0.620   0.450  0.00  0.00    +0.005 A 
ATOM      5  C   UNL     1      -1.546   0.334   0.297  0.00  0.00    +0.001 A 
ATOM      6  C   UNL     1      -1.229   1.656   0.164  0.00  0.00    +0.010 A 
ATOM      7  C   UNL     1       0.112   2.053   0.183  0.00  0.00    -0.001 A 
ATOM      8  C   UNL     1       1.126   1.088   0.339  0.00  0.00    +0.052 A 
ATOM      9  N   UNL     1       2.446   1.484   0.357  0.00  0.00    -0.322 N 
ATOM     10  H   UNL     1       3.144   0.819   0.464  0.00  0.00    +0.169 HD
ATOM     11  C   UNL     1       2.781   2.780   0.228  0.00  0.00    +0.251 A 
ATOM     12  O   UNL     1       3.959   3.094   0.248  0.00  0.00    -0.268 OA
ATOM     13  C   UNL     1       1.804   3.786   0.070  0.00  0.00    +0.011 A 
ATOM     14  C   UNL     1       0.488   3.461   0.044  0.00  0.00    +0.017 A 
ENDBRANCH   1  13
BRANCH   1  15
ATOM     15  C   UNL     1       3.013   5.396  -1.345  0.00  0.00    +0.143 A 
ATOM     16  N   UNL     1       4.291   5.156  -1.512  0.00  0.00    -0.115 NA
ATOM     17  N   UNL     1       4.588   5.420  -2.737  0.00  0.00    -0.023 NA
ATOM     18  N   UNL     1       3.536   5.831  -3.354  0.00  0.00    -0.044 NA
ATOM     19  N   UNL     1       2.543   5.830  -2.529  0.00  0.00    -0.227 N 
BRANCH  19  20
ATOM     20  C   UNL     1       1.165   6.227  -2.826  0.00  0.00    +0.111 C 
ATOM     21  C   UNL     1       0.604   5.369  -3.979  0.00  0.00    +0.027 C 
ATOM     22  C   UNL     1      -0.270   6.354  -4.795  0.00  0.00    +0.002 C 
ATOM     23  C   UNL     1       0.548   7.668  -4.736  0.00  0.00    +0.002 C 
ATOM     24  C   UNL     1       1.129   7.688  -3.307  0.00  0.00    +0.027 C 
ENDBRANCH  19  20
ENDBRANCH   1  15
BRANCH   1  25
ATOM     25  N   UNL     1       3.085   5.596   1.072  0.00  0.00    +0.395 N 
ATOM     26  H   UNL     1       4.018   5.192   0.931  0.00  0.00    -0.079 HD
BRANCH  25  27
ATOM     27  C   UNL     1       3.206   7.067   1.157  0.00  0.00    -0.041 C 
BRANCH  27  28
ATOM     28  C   UNL     1       4.200   7.530   0.123  0.00  0.00    -0.064 A 
ATOM     29  C   UNL     1       5.554   7.484   0.397  0.00  0.00    +0.002 A 
ATOM     30  C   UNL     1       6.467   7.904  -0.553  0.00  0.00    +0.000 A 
ATOM     31  C   UNL     1       6.024   8.379  -1.774  0.00  0.00    +0.000 A 
ATOM     32  C   UNL     1       4.670   8.430  -2.045  0.00  0.00    +0.000 A 
ATOM     33  C   UNL     1       3.758   8.005  -1.097  0.00  0.00    +0.002 A 
ENDBRANCH  27  28
ENDBRANCH  25  27
BRANCH  25  34
ATOM     34  C   UNL     1       2.514   5.063   2.326  0.00  0.00    -0.041 C 
BRANCH  34  35
ATOM     35  C   UNL     1       3.495   5.298   3.446  0.00  0.00    -0.064 A 
ATOM     36  C   UNL     1       4.535   4.411   3.651  0.00  0.00    +0.004 A 
ATOM     37  C   UNL     1       5.438   4.628   4.674  0.00  0.00    +0.038 A 
ATOM     38  C   UNL     1       5.295   5.730   5.501  0.00  0.00    +0.123 A 
ATOM     39  C   UNL     1       4.250   6.615   5.298  0.00  0.00    +0.038 A 
ATOM     40  C   UNL     1       3.351   6.399   4.271  0.00  0.00    +0.004 A 
ATOM     41  F   UNL     1       6.175   5.941   6.504  0.00  0.00    -0.205 F 
ENDBRANCH  34  35
ENDBRANCH  25  34
ENDBRANCH   1  25
TORSDOF 8
