REMARK  Name = ZINC24894574
REMARK  8 active torsions:
REMARK  status: ('A' for Active; 'I' for Inactive)
REMARK    1  A    between atoms: C_1  and  C_2
REMARK    2  A    between atoms: C_5  and  C_8
REMARK    3  A    between atoms: N_21  and  C_24
REMARK    4  A    between atoms: C_24  and  C_25
REMARK    5  A    between atoms: C_25  and  C_27
REMARK    6  A    between atoms: C_25  and  O_35
REMARK    7  A    between atoms: C_27  and  O_28
REMARK    8  A    between atoms: O_28  and  C_29
REMARK                            x       y       z     vdW  Elec       q    Type
REMARK                         _______ _______ _______ _____ _____    ______ ____
ROOT
ATOM      1  C   UNL     1       6.866  -2.045   5.213  0.00  0.00    +0.006 A 
ATOM      2  C   UNL     1       7.486  -2.668   6.283  0.00  0.00    +0.010 A 
ATOM      3  C   UNL     1       7.054  -2.441   7.584  0.00  0.00    +0.001 A 
ATOM      4  C   UNL     1       6.011  -1.601   7.842  0.00  0.00    +0.010 A 
ATOM      5  C   UNL     1       5.356  -0.950   6.785  0.00  0.00    -0.001 A 
ATOM      6  C   UNL     1       5.781  -1.168   5.453  0.00  0.00    +0.056 A 
ATOM      7  N   UNL     1       5.160  -0.552   4.444  0.00  0.00    -0.342 N 
ATOM      8  C   UNL     1       4.148   0.265   4.661  0.00  0.00    +0.099 A 
ATOM      9  C   UNL     1       3.683   0.527   5.957  0.00  0.00    +0.042 A 
ATOM     10  C   UNL     1       4.274  -0.077   7.025  0.00  0.00    +0.013 A 
ATOM     11  N   UNL     1       3.534   0.883   3.582  0.00  0.00    -0.314 N 
ATOM     12  C   UNL     1       4.167   0.486   2.317  0.00  0.00    +0.122 C 
ATOM     13  C   UNL     1       3.514   1.249   1.162  0.00  0.00    +0.103 C 
ATOM     14  N   UNL     1       2.073   0.960   1.140  0.00  0.00    -0.297 NA
ATOM     15  C   UNL     1       1.440   1.357   2.405  0.00  0.00    +0.103 C 
ATOM     16  C   UNL     1       2.093   0.595   3.560  0.00  0.00    +0.122 C 
ATOM     17  H   UNL     1       5.490  -0.722   3.409  0.00  0.00    +0.167 HD
ENDROOT
BRANCH   1  22
ATOM     18  C   UNL     1       8.683  -3.014  -0.163  0.00  0.00    +0.044 C 
ATOM     19  C   UNL     1       8.207  -2.760   1.244  0.00  0.00    -0.050 A 
ATOM     20  C   UNL     1       9.118  -2.416   2.228  0.00  0.00    +0.004 A 
ATOM     21  C   UNL     1       8.688  -2.182   3.518  0.00  0.00    +0.009 A 
ATOM     22  C   UNL     1       7.333  -2.294   3.830  0.00  0.00    -0.016 A 
ATOM     23  C   UNL     1       6.421  -2.647   2.836  0.00  0.00    +0.009 A 
ATOM     24  C   UNL     1       6.862  -2.872   1.548  0.00  0.00    +0.004 A 
ENDBRANCH   1  22
BRANCH  14  25
ATOM     25  C   UNL     1       1.423   1.615  -0.003  0.00  0.00    +0.119 C 
BRANCH  25  26
ATOM     26  C   UNL     1       1.746   0.845  -1.285  0.00  0.00    +0.166 C 
BRANCH  26  27
ATOM     27  O   UNL     1       1.256  -0.493  -1.173  0.00  0.00    -0.387 OA
ATOM     28  H   UNL     1       1.397  -1.201  -2.003  0.00  0.00    +0.210 HD
ENDBRANCH  26  27
BRANCH  26  29
ATOM     29  C   UNL     1       1.079   1.535  -2.476  0.00  0.00    +0.261 C 
BRANCH  29  30
ATOM     30  O   UNL     1       1.475   0.885  -3.686  0.00  0.00    -0.489 OA
BRANCH  30  31
ATOM     31  C   UNL     1       0.968   1.378  -4.846  0.00  0.00    +0.121 A 
ATOM     32  C   UNL     1       0.102   2.461  -4.820  0.00  0.00    +0.045 A 
ATOM     33  C   UNL     1      -0.408   2.965  -6.002  0.00  0.00    +0.004 A 
ATOM     34  C   UNL     1      -0.065   2.382  -7.208  0.00  0.00    +0.000 A 
ATOM     35  C   UNL     1       0.793   1.298  -7.235  0.00  0.00    +0.004 A 
ATOM     36  C   UNL     1       1.310   0.795  -6.057  0.00  0.00    +0.045 A 
ENDBRANCH  30  31
ENDBRANCH  29  30
ENDBRANCH  26  29
ENDBRANCH  25  26
ENDBRANCH  14  25
TORSDOF 7
