REMARK  Name = ZINC06198101
REMARK  9 active torsions:
REMARK  status: ('A' for Active; 'I' for Inactive)
REMARK    1  A    between atoms: C_1  and  C_2
REMARK    2  A    between atoms: C_2  and  C_3
REMARK    3  A    between atoms: C_10  and  C_15
REMARK    4  A    between atoms: C_15  and  C_17
REMARK    5  A    between atoms: C_15  and  N_73
REMARK    6  A    between atoms: N_21  and  C_22
REMARK    7  A    between atoms: C_22  and  C_23
REMARK    8  A    between atoms: C_31  and  C_34
REMARK    9  A    between atoms: C_34  and  C_35
REMARK                            x       y       z     vdW  Elec       q    Type
REMARK                         _______ _______ _______ _____ _____    ______ ____
ROOT
ATOM      1  C   UNL     1       1.783  -1.450  -1.740  0.00  0.00    +0.039 C 
ENDROOT
BRANCH   1   9
ATOM      2  C   UNL     1       7.106  -4.541  -1.111  0.00  0.00    -0.047 A 
ATOM      3  C   UNL     1       6.542  -5.739  -0.693  0.00  0.00    +0.005 A 
ATOM      4  C   UNL     1       5.176  -5.865  -0.561  0.00  0.00    +0.026 A 
ATOM      5  C   UNL     1       4.352  -4.782  -0.850  0.00  0.00    +0.049 A 
ATOM      6  C   UNL     1       4.928  -3.569  -1.274  0.00  0.00    -0.001 A 
ATOM      7  C   UNL     1       6.317  -3.464  -1.400  0.00  0.00    +0.013 A 
ATOM      8  C   UNL     1       4.051  -2.437  -1.581  0.00  0.00    +0.017 A 
ATOM      9  C   UNL     1       2.712  -2.597  -1.436  0.00  0.00    +0.011 A 
ATOM     10  C   UNL     1       2.186  -3.834  -1.008  0.00  0.00    +0.251 A 
ATOM     11  O   UNL     1       0.979  -3.957  -0.888  0.00  0.00    -0.268 OA
ATOM     12  N   UNL     1       2.983  -4.881  -0.728  0.00  0.00    -0.322 N 
ATOM     13  H   UNL     1       2.575  -5.743  -0.426  0.00  0.00    +0.169 HD
BRANCH   2  15
ATOM     14  C   UNL     1       9.201  -3.953   0.079  0.00  0.00    +0.009 C 
ATOM     15  C   UNL     1       8.603  -4.427  -1.247  0.00  0.00    +0.032 C 
ENDBRANCH   2  15
ENDBRANCH   1   9
BRANCH   1  21
ATOM     16  C   UNL     1       1.580  -2.284  -4.003  0.00  0.00    -0.077 C 
ATOM     17  C   UNL     1       0.587  -2.821  -5.036  0.00  0.00    -0.015 C 
ATOM     18  C   UNL     1      -0.411  -1.718  -5.400  0.00  0.00    -0.010 C 
ATOM     19  C   UNL     1      -1.120  -1.243  -4.128  0.00  0.00    -0.015 C 
ATOM     20  C   UNL     1      -0.078  -0.752  -3.122  0.00  0.00    -0.077 C 
ATOM     21  N   UNL     1       0.837  -1.866  -2.795  0.00  0.00    +0.389 N 
ATOM     22  H   UNL     1       0.284  -2.661  -2.453  0.00  0.00    -0.080 HD
BRANCH  18  23
ATOM     23  C   UNL     1      -1.443  -2.265  -6.387  0.00  0.00    +0.038 C 
BRANCH  23  24
ATOM     24  C   UNL     1      -0.761  -2.618  -7.684  0.00  0.00    -0.047 A 
ATOM     25  C   UNL     1      -0.652  -1.673  -8.687  0.00  0.00    +0.003 A 
ATOM     26  C   UNL     1      -0.022  -1.996  -9.874  0.00  0.00    +0.000 A 
ATOM     27  C   UNL     1       0.491  -3.266 -10.062  0.00  0.00    +0.000 A 
ATOM     28  C   UNL     1       0.378  -4.212  -9.061  0.00  0.00    +0.000 A 
ATOM     29  C   UNL     1      -0.248  -3.888  -7.872  0.00  0.00    +0.003 A 
ENDBRANCH  23  24
ENDBRANCH  18  23
ENDBRANCH   1  21
BRANCH   1  30
ATOM     30  C   UNL     1       2.587  -0.257  -2.189  0.00  0.00    +0.143 A 
ATOM     31  N   UNL     1       3.158  -0.093  -3.357  0.00  0.00    -0.115 NA
ATOM     32  N   UNL     1       3.753   1.050  -3.352  0.00  0.00    -0.023 NA
ATOM     33  N   UNL     1       3.571   1.621  -2.213  0.00  0.00    -0.044 NA
ATOM     34  N   UNL     1       2.854   0.849  -1.469  0.00  0.00    -0.226 N 
BRANCH  34  35
ATOM     35  C   UNL     1       2.418   1.121  -0.098  0.00  0.00    +0.182 C 
BRANCH  35  36
ATOM     36  C   UNL     1       1.089   1.830  -0.124  0.00  0.00    -0.026 A 
ATOM     37  C   UNL     1      -0.085   1.100  -0.106  0.00  0.00    +0.005 A 
ATOM     38  C   UNL     1      -1.304   1.750  -0.136  0.00  0.00    +0.000 A 
ATOM     39  C   UNL     1      -1.350   3.131  -0.174  0.00  0.00    +0.000 A 
ATOM     40  C   UNL     1      -0.176   3.862  -0.191  0.00  0.00    +0.000 A 
ATOM     41  C   UNL     1       1.043   3.211  -0.166  0.00  0.00    +0.005 A 
ENDBRANCH  35  36
ENDBRANCH  34  35
ENDBRANCH   1  30
TORSDOF 8
