REMARK  Name = ZINC13065267
REMARK  12 active torsions:
REMARK  status: ('A' for Active; 'I' for Inactive)
REMARK    1  A    between atoms: C_1  and  C_2
REMARK    2  A    between atoms: C_2  and  C_3
REMARK    3  A    between atoms: C_3  and  C_5
REMARK    4  A    between atoms: C_3  and  N_69
REMARK    5  A    between atoms: N_9  and  C_10
REMARK    6  A    between atoms: C_10  and  C_11
REMARK    7  A    between atoms: C_18  and  C_19
REMARK    8  A    between atoms: C_18  and  N_69
REMARK    9  A    between atoms: C_25  and  C_26
REMARK   10  A    between atoms: C_25  and  N_69
REMARK   11  A    between atoms: C_29  and  C_39
REMARK   12  A    between atoms: C_32  and  C_38
REMARK                            x       y       z     vdW  Elec       q    Type
REMARK                         _______ _______ _______ _____ _____    ______ ____
ROOT
ATOM      1  N   UNL     1      -1.084   1.997   1.685  0.00  0.00    +0.392 N 
ATOM      2  H   UNL     1      -1.999   1.713   2.052  0.00  0.00    -0.080 HD
ENDROOT
BRANCH   1   3
ATOM      3  C   UNL     1      -1.026   3.473   1.626  0.00  0.00    +0.003 C 
BRANCH   3   4
ATOM      4  C   UNL     1      -2.398   3.994   1.282  0.00  0.00    +0.138 A 
ATOM      5  N   UNL     1      -3.195   3.541   0.345  0.00  0.00    -0.115 NA
ATOM      6  N   UNL     1      -4.273   4.246   0.364  0.00  0.00    -0.023 NA
ATOM      7  N   UNL     1      -4.184   5.137   1.289  0.00  0.00    -0.044 NA
ATOM      8  N   UNL     1      -3.045   5.011   1.881  0.00  0.00    -0.226 N 
BRANCH   8   9
ATOM      9  C   UNL     1      -2.547   5.823   2.994  0.00  0.00    +0.182 C 
BRANCH   9  10
ATOM     10  C   UNL     1      -1.800   7.014   2.451  0.00  0.00    -0.026 A 
ATOM     11  C   UNL     1      -0.440   6.927   2.217  0.00  0.00    +0.008 A 
ATOM     12  C   UNL     1       0.246   8.017   1.715  0.00  0.00    +0.038 A 
ATOM     13  C   UNL     1      -0.427   9.199   1.457  0.00  0.00    +0.123 A 
ATOM     14  C   UNL     1      -1.788   9.286   1.697  0.00  0.00    +0.038 A 
ATOM     15  C   UNL     1      -2.473   8.194   2.194  0.00  0.00    +0.008 A 
ATOM     16  F   UNL     1       0.244  10.266   0.970  0.00  0.00    -0.205 F 
ENDBRANCH   9  10
ENDBRANCH   8   9
ENDBRANCH   3   4
BRANCH   3  18
ATOM     17  C   UNL     1       1.387   3.518   0.980  0.00  0.00    +0.002 C 
ATOM     18  C   UNL     1      -0.027   3.926   0.560  0.00  0.00    -0.011 C 
ENDBRANCH   3  18
ENDBRANCH   1   3
BRANCH   1  19
ATOM     19  C   UNL     1      -0.027   1.486   2.583  0.00  0.00    -0.042 C 
BRANCH  19  20
ATOM     20  C   UNL     1      -0.383   1.842   4.003  0.00  0.00    -0.064 A 
ATOM     21  C   UNL     1       0.144   2.980   4.584  0.00  0.00    +0.002 A 
ATOM     22  C   UNL     1      -0.187   3.309   5.885  0.00  0.00    +0.000 A 
ATOM     23  C   UNL     1      -1.037   2.494   6.609  0.00  0.00    +0.000 A 
ATOM     24  C   UNL     1      -1.560   1.353   6.030  0.00  0.00    +0.000 A 
ATOM     25  C   UNL     1      -1.233   1.027   4.727  0.00  0.00    +0.002 A 
ENDBRANCH  19  20
ENDBRANCH   1  19
BRANCH   1  26
ATOM     26  C   UNL     1      -0.913   1.431   0.330  0.00  0.00    -0.036 C 
BRANCH  26  27
ATOM     27  C   UNL     1      -1.307  -0.024   0.360  0.00  0.00    +0.001 A 
ATOM     28  C   UNL     1      -2.572  -0.388   0.034  0.00  0.00    +0.017 A 
ATOM     29  C   UNL     1      -2.921  -1.809   0.068  0.00  0.00    +0.002 A 
ATOM     30  C   UNL     1      -4.208  -2.246  -0.264  0.00  0.00    -0.041 A 
ATOM     31  C   UNL     1      -4.503  -3.579  -0.218  0.00  0.00    +0.004 A 
ATOM     32  C   UNL     1      -3.538  -4.504   0.156  0.00  0.00    +0.005 A 
ATOM     33  C   UNL     1      -2.264  -4.096   0.488  0.00  0.00    -0.026 A 
ATOM     34  C   UNL     1      -1.940  -2.744   0.448  0.00  0.00    +0.052 A 
ATOM     35  N   UNL     1      -0.673  -2.308   0.773  0.00  0.00    -0.322 N 
ATOM     36  H   UNL     1       0.002  -2.954   1.034  0.00  0.00    +0.169 HD
ATOM     37  C   UNL     1      -0.360  -1.001   0.734  0.00  0.00    +0.251 A 
ATOM     38  O   UNL     1       0.770  -0.652   1.029  0.00  0.00    -0.268 OA
ATOM     39  C   UNL     1      -1.226  -5.111   0.892  0.00  0.00    +0.046 C 
ATOM     40  C   UNL     1      -5.263  -1.251  -0.672  0.00  0.00    +0.044 C 
ENDBRANCH  26  27
ENDBRANCH   1  26
TORSDOF 9
