REMARK  Name = ZINC38926309
REMARK  5 active torsions:
REMARK  status: ('A' for Active; 'I' for Inactive)
REMARK    1  A    between atoms: C_1  and  C_2
REMARK    2  A    between atoms: C_5  and  N_8
REMARK    3  A    between atoms: C_9  and  C_20
REMARK    4  A    between atoms: C_21  and  C_22
REMARK    5  A    between atoms: C_30  and  C_32
REMARK                            x       y       z     vdW  Elec       q    Type
REMARK                         _______ _______ _______ _____ _____    ______ ____
ROOT
ATOM      1  N   UNL     1       0.478  -4.132  -0.040  0.00  0.00    -0.261 N 
ATOM      2  C   UNL     1       0.376  -4.823   1.144  0.00  0.00    +0.141 A 
ATOM      3  N   UNL     1       0.189  -6.121   1.198  0.00  0.00    -0.229 NA
ATOM      4  C   UNL     1       0.083  -6.868   0.085  0.00  0.00    +0.079 A 
ATOM      5  C   UNL     1      -0.117  -8.252   0.149  0.00  0.00    +0.029 A 
ATOM      6  C   UNL     1      -0.220  -8.977  -1.004  0.00  0.00    +0.016 A 
ATOM      7  C   UNL     1      -0.129  -8.362  -2.246  0.00  0.00    +0.014 A 
ATOM      8  C   UNL     1       0.069  -6.999  -2.342  0.00  0.00    +0.029 A 
ATOM      9  C   UNL     1       0.176  -6.240  -1.180  0.00  0.00    +0.066 A 
ATOM     10  C   UNL     1       0.381  -4.784  -1.222  0.00  0.00    +0.267 A 
ATOM     11  O   UNL     1       0.463  -4.188  -2.280  0.00  0.00    -0.267 OA
ATOM     12  I   UNL     1      -0.291  -9.513  -3.989  0.00  0.00    -0.044 I 
ENDROOT
BRANCH   1  17
ATOM     13  C   UNL     1       1.288   1.483   0.031  0.00  0.00    +0.044 C 
ATOM     14  C   UNL     1       1.073  -0.009   0.012  0.00  0.00    -0.050 A 
ATOM     15  C   UNL     1      -0.153  -0.524  -0.369  0.00  0.00    +0.005 A 
ATOM     16  C   UNL     1      -0.353  -1.891  -0.387  0.00  0.00    +0.026 A 
ATOM     17  C   UNL     1       0.678  -2.747  -0.023  0.00  0.00    +0.051 A 
ATOM     18  C   UNL     1       1.907  -2.226   0.359  0.00  0.00    +0.026 A 
ATOM     19  C   UNL     1       2.103  -0.859   0.370  0.00  0.00    +0.005 A 
ENDBRANCH   1  17
BRANCH   2  20
ATOM     20  C   UNL     1       0.482  -4.079   2.399  0.00  0.00    +0.047 C 
ATOM     21  C   UNL     1       0.486  -4.745   3.586  0.00  0.00    +0.010 C 
BRANCH  21  22
ATOM     22  C   UNL     1       0.477  -4.028   4.791  0.00  0.00    -0.016 C 
ATOM     23  C   UNL     1       0.582  -4.545   6.079  0.00  0.00    +0.003 A 
ATOM     24  C   UNL     1       0.723  -5.862   6.571  0.00  0.00    +0.010 A 
ATOM     25  C   UNL     1       0.802  -6.076   7.908  0.00  0.00    +0.001 A 
ATOM     26  C   UNL     1       0.749  -5.020   8.825  0.00  0.00    +0.002 A 
ATOM     27  C   UNL     1       0.615  -3.733   8.427  0.00  0.00    +0.026 A 
ATOM     28  C   UNL     1       0.525  -3.428   7.041  0.00  0.00    +0.043 A 
ATOM     29  N   UNL     1       0.394  -2.284   6.409  0.00  0.00    -0.378 N 
ATOM     30  C   UNL     1       0.356  -2.530   4.964  0.00  0.00    +0.107 C 
ATOM     31  C   UNL     1      -0.971  -2.038   4.383  0.00  0.00    +0.035 C 
ATOM     32  H   UNL     1       0.335  -1.413   6.832  0.00  0.00    +0.160 HD
ENDBRANCH  21  22
ENDBRANCH   2  20
TORSDOF 3
