REMARK  Name = ZINC06089436
REMARK  13 active torsions:
REMARK  status: ('A' for Active; 'I' for Inactive)
REMARK    1  A    between atoms: C_1  and  C_2
REMARK    2  A    between atoms: C_2  and  O_3
REMARK    3  A    between atoms: O_3  and  C_4
REMARK    4  A    between atoms: C_4  and  C_6
REMARK    5  A    between atoms: C_7  and  C_34
REMARK    6  A    between atoms: C_8  and  C_32
REMARK    7  A    between atoms: C_9  and  N_11
REMARK    8  A    between atoms: C_12  and  C_14
REMARK    9  A    between atoms: C_14  and  S_15
REMARK   10  A    between atoms: S_15  and  C_16
REMARK   11  A    between atoms: C_22  and  C_31
REMARK   12  A    between atoms: C_23  and  C_30
REMARK   13  A    between atoms: C_28  and  C_29
REMARK                            x       y       z     vdW  Elec       q    Type
REMARK                         _______ _______ _______ _____ _____    ______ ____
ROOT
ATOM      1  C   UNL     1      -5.142   1.822   0.738  0.00  0.00    +0.173 C 
ENDROOT
BRANCH   1   3
ATOM      2  N   UNL     1      -2.725   1.466   1.124  0.00  0.00    -0.278 N 
ATOM      3  C   UNL     1      -3.749   2.333   0.998  0.00  0.00    +0.228 C 
ATOM      4  O   UNL     1      -3.549   3.525   1.095  0.00  0.00    -0.275 OA
ATOM      5  H   UNL     1      -2.885   0.512   1.047  0.00  0.00    +0.155 HD
BRANCH   2   9
ATOM      6  C   UNL     1       0.821   3.280   1.809  0.00  0.00    +0.102 A 
ATOM      7  C   UNL     1       0.905   1.903   1.750  0.00  0.00    -0.010 A 
ATOM      8  C   UNL     1      -0.268   1.202   1.522  0.00  0.00    +0.084 A 
ATOM      9  C   UNL     1      -1.447   1.935   1.363  0.00  0.00    +0.090 A 
ATOM     10  S   UNL     1      -0.917   3.575   1.542  0.00  0.00    -0.065 S 
ATOM     11  C   UNL     1       2.221   1.191   1.927  0.00  0.00    +0.046 C 
BRANCH   6  12
ATOM     12  C   UNL     1       1.889   4.252   2.034  0.00  0.00    +0.346 C 
ATOM     13  O   UNL     1       3.033   3.871   2.199  0.00  0.00    -0.244 OA
BRANCH  12  14
ATOM     14  O   UNL     1       1.607   5.571   2.058  0.00  0.00    -0.461 OA
BRANCH  14  16
ATOM     15  C   UNL     1       2.189   7.906   2.276  0.00  0.00    +0.048 C 
ATOM     16  C   UNL     1       2.699   6.464   2.282  0.00  0.00    +0.229 C 
ENDBRANCH  14  16
ENDBRANCH  12  14
ENDBRANCH   6  12
BRANCH   8  17
ATOM     17  C   UNL     1      -0.271  -0.228   1.446  0.00  0.00    +0.102 C 
ATOM     18  N   UNL     1      -0.273  -1.362   1.386  0.00  0.00    -0.191 NA
ENDBRANCH   8  17
ENDBRANCH   2   9
ENDBRANCH   1   3
BRANCH   1  19
ATOM     19  S   UNL     1      -6.286   3.220   0.620  0.00  0.00    -0.076 S 
BRANCH  19  20
ATOM     20  C   UNL     1      -7.794   2.357   0.321  0.00  0.00    +0.197 A 
ATOM     21  N   UNL     1      -7.894   1.042   0.235  0.00  0.00    -0.122 NA
ATOM     22  N   UNL     1      -9.124   0.702   0.138  0.00  0.00    -0.128 NA
ATOM     23  C   UNL     1      -9.881   1.780   0.206  0.00  0.00    +0.165 A 
ATOM     24  N   UNL     1      -9.033   2.873   0.110  0.00  0.00    -0.270 N 
ATOM     25  C   UNL     1      -9.576   4.113  -0.187  0.00  0.00    +0.061 A 
ATOM     26  C   UNL     1      -8.852   5.166  -0.720  0.00  0.00    -0.023 A 
ATOM     27  C   UNL     1      -9.379   6.445  -0.722  0.00  0.00    -0.046 A 
ATOM     28  C   UNL     1     -10.664   6.686  -0.264  0.00  0.00    +0.004 A 
ATOM     29  C   UNL     1     -11.454   5.632   0.137  0.00  0.00    +0.010 A 
ATOM     30  C   UNL     1     -10.937   4.334   0.114  0.00  0.00    -0.000 A 
ATOM     31  C   UNL     1     -11.803   3.190   0.417  0.00  0.00    +0.017 A 
ATOM     32  C   UNL     1     -11.276   1.949   0.352  0.00  0.00    -0.005 A 
ATOM     33  C   UNL     1     -12.176   0.743   0.435  0.00  0.00    +0.047 C 
ATOM     34  C   UNL     1      -8.540   7.589  -1.230  0.00  0.00    +0.044 C 
ATOM     35  C   UNL     1      -7.522   4.959  -1.399  0.00  0.00    +0.046 C 
ENDBRANCH  19  20
ENDBRANCH   1  19
TORSDOF 8
