REMARK  Name = ZINC12711282
REMARK  10 active torsions:
REMARK  status: ('A' for Active; 'I' for Inactive)
REMARK    1  A    between atoms: C_1  and  C_2
REMARK    2  A    between atoms: C_7  and  C_15
REMARK    3  A    between atoms: C_13  and  C_14
REMARK    4  A    between atoms: C_15  and  C_17
REMARK    5  A    between atoms: C_15  and  N_67
REMARK    6  A    between atoms: N_21  and  C_22
REMARK    7  A    between atoms: C_22  and  C_23
REMARK    8  A    between atoms: C_26  and  O_29
REMARK    9  A    between atoms: O_29  and  C_30
REMARK   10  A    between atoms: C_34  and  C_37
REMARK                            x       y       z     vdW  Elec       q    Type
REMARK                         _______ _______ _______ _____ _____    ______ ____
ROOT
ATOM      1  C   UNL     1      -0.961  -0.838  -0.322  0.00  0.00    +0.039 C 
ENDROOT
BRANCH   1   8
ATOM      2  C   UNL     1       5.423   3.821  -1.398  0.00  0.00    +0.044 C 
ATOM      3  C   UNL     1       4.101   3.139  -1.157  0.00  0.00    -0.046 A 
ATOM      4  C   UNL     1       2.977   3.903  -0.869  0.00  0.00    +0.004 A 
ATOM      5  C   UNL     1       1.769   3.305  -0.648  0.00  0.00    +0.010 A 
ATOM      6  C   UNL     1       1.662   1.912  -0.712  0.00  0.00    -0.001 A 
ATOM      7  C   UNL     1       0.383   1.239  -0.480  0.00  0.00    +0.017 A 
ATOM      8  C   UNL     1       0.340  -0.114  -0.555  0.00  0.00    +0.011 A 
ATOM      9  C   UNL     1       1.509  -0.847  -0.852  0.00  0.00    +0.251 A 
ATOM     10  O   UNL     1       1.448  -2.063  -0.915  0.00  0.00    -0.268 OA
ATOM     11  N   UNL     1       2.688  -0.238  -1.066  0.00  0.00    -0.322 N 
ATOM     12  H   UNL     1       3.472  -0.772  -1.267  0.00  0.00    +0.169 HD
ATOM     13  C   UNL     1       2.799   1.135  -1.004  0.00  0.00    +0.052 A 
ATOM     14  C   UNL     1       4.019   1.766  -1.225  0.00  0.00    -0.024 A 
ATOM     15  C   UNL     1       5.246   0.949  -1.538  0.00  0.00    +0.046 C 
ENDBRANCH   1   8
BRANCH   1  22
ATOM     16  C   UNL     1      -0.135  -1.288   1.909  0.00  0.00    -0.077 C 
ATOM     17  C   UNL     1       0.176  -2.405   2.908  0.00  0.00    -0.018 C 
ATOM     18  C   UNL     1      -1.125  -3.115   3.294  0.00  0.00    -0.001 C 
ATOM     19  C   UNL     1      -1.794  -3.659   2.029  0.00  0.00    -0.031 C 
ATOM     20  C   UNL     1      -2.048  -2.506   1.055  0.00  0.00    -0.074 C 
ATOM     21  C   UNL     1      -3.125  -4.319   2.397  0.00  0.00    +0.005 C 
ATOM     22  N   UNL     1      -0.756  -1.881   0.704  0.00  0.00    +0.389 N 
ATOM     23  H   UNL     1      -0.129  -2.601   0.327  0.00  0.00    -0.080 HD
ENDBRANCH   1  22
BRANCH   1  24
ATOM     24  C   UNL     1      -1.405  -1.498  -1.602  0.00  0.00    +0.143 A 
ATOM     25  N   UNL     1      -0.968  -2.634  -2.089  0.00  0.00    -0.115 NA
ATOM     26  N   UNL     1      -1.590  -2.857  -3.196  0.00  0.00    -0.023 NA
ATOM     27  N   UNL     1      -2.412  -1.894  -3.426  0.00  0.00    -0.044 NA
ATOM     28  N   UNL     1      -2.332  -1.039  -2.464  0.00  0.00    -0.226 N 
BRANCH  28  29
ATOM     29  C   UNL     1      -3.101   0.201  -2.335  0.00  0.00    +0.182 C 
BRANCH  29  30
ATOM     30  C   UNL     1      -4.431  -0.098  -1.692  0.00  0.00    -0.026 A 
ATOM     31  C   UNL     1      -5.517  -0.436  -2.477  0.00  0.00    +0.009 A 
ATOM     32  C   UNL     1      -6.736  -0.716  -1.890  0.00  0.00    +0.046 A 
ATOM     33  C   UNL     1      -6.872  -0.646  -0.511  0.00  0.00    +0.120 A 
ATOM     34  C   UNL     1      -5.782  -0.300   0.275  0.00  0.00    +0.046 A 
ATOM     35  C   UNL     1      -4.564  -0.027  -0.317  0.00  0.00    +0.009 A 
BRANCH  33  36
ATOM     36  O   UNL     1      -8.071  -0.915   0.069  0.00  0.00    -0.495 OA
ATOM     37  C   UNL     1      -9.149  -1.264  -0.802  0.00  0.00    +0.277 C 
ENDBRANCH  33  36
ENDBRANCH  29  30
ENDBRANCH  28  29
ENDBRANCH   1  24
TORSDOF 6
