REMARK  Name = ZINC04954304
REMARK  12 active torsions:
REMARK  status: ('A' for Active; 'I' for Inactive)
REMARK    1  A    between atoms: C_1  and  C_2
REMARK    2  A    between atoms: C_5  and  C_29
REMARK    3  A    between atoms: C_6  and  C_8
REMARK    4  A    between atoms: C_8  and  C_10
REMARK    5  A    between atoms: C_11  and  O_28
REMARK    6  A    between atoms: N_14  and  C_24
REMARK    7  A    between atoms: C_15  and  C_17
REMARK    8  A    between atoms: C_20  and  O_23
REMARK    9  A    between atoms: C_24  and  C_25
REMARK   10  A    between atoms: C_25  and  N_55
REMARK   11  A    between atoms: C_26  and  N_55
REMARK   12  A    between atoms: C_27  and  N_55
REMARK                            x       y       z     vdW  Elec       q    Type
REMARK                         _______ _______ _______ _____ _____    ______ ____
ROOT
ATOM      1  C   UNL     1      -1.434   1.937  -0.031  0.00  0.00    +0.071 C 
ATOM      2  C   UNL     1      -2.696   1.450   0.006  0.00  0.00    +0.188 C 
ATOM      3  C   UNL     1      -3.650   2.556  -0.222  0.00  0.00    +0.282 C 
ATOM      4  O   UNL     1      -4.859   2.440  -0.247  0.00  0.00    -0.267 OA
ATOM      5  N   UNL     1      -2.981   3.710  -0.398  0.00  0.00    -0.285 N 
ATOM      6  C   UNL     1      -1.547   3.421  -0.287  0.00  0.00    +0.144 C 
ENDROOT
BRANCH   6   7
ATOM      7  C   UNL     1      -0.947   4.192   0.861  0.00  0.00    -0.022 A 
ATOM      8  C   UNL     1      -1.568   4.184   2.096  0.00  0.00    +0.009 A 
ATOM      9  C   UNL     1      -1.017   4.886   3.152  0.00  0.00    +0.046 A 
ATOM     10  C   UNL     1       0.154   5.607   2.968  0.00  0.00    +0.117 A 
ATOM     11  C   UNL     1       0.772   5.617   1.726  0.00  0.00    +0.046 A 
ATOM     12  C   UNL     1       0.220   4.910   0.675  0.00  0.00    +0.009 A 
BRANCH  10  13
ATOM     13  O   UNL     1       0.695   6.301   4.003  0.00  0.00    -0.507 OA
ATOM     14  H   UNL     1       0.378   7.212   4.074  0.00  0.00    +0.292 HD
ENDBRANCH  10  13
ENDBRANCH   6   7
BRANCH   1  15
ATOM     15  C   UNL     1      -0.196   1.172   0.149  0.00  0.00    +0.195 C 
ATOM     16  O   UNL     1      -0.243  -0.035   0.298  0.00  0.00    -0.287 OA
BRANCH  15  22
ATOM     17  C   UNL     1       3.753   2.966   2.616  0.00  0.00    +0.044 C 
ATOM     18  C   UNL     1       3.012   2.731   1.325  0.00  0.00    -0.050 A 
ATOM     19  C   UNL     1       3.554   3.167   0.129  0.00  0.00    +0.003 A 
ATOM     20  C   UNL     1       2.880   2.956  -1.061  0.00  0.00    +0.004 A 
ATOM     21  C   UNL     1       1.662   2.308  -1.062  0.00  0.00    -0.040 A 
ATOM     22  C   UNL     1       1.109   1.866   0.142  0.00  0.00    +0.025 A 
ATOM     23  C   UNL     1       1.792   2.087   1.340  0.00  0.00    +0.015 A 
ATOM     24  C   UNL     1       0.929   2.079  -2.359  0.00  0.00    +0.044 C 
ENDBRANCH  15  22
ENDBRANCH   1  15
BRANCH   2  25
ATOM     25  O   UNL     1      -3.032   0.157   0.219  0.00  0.00    -0.502 OA
ATOM     26  H   UNL     1      -4.028   0.063   0.198  0.00  0.00    +0.292 HD
ENDBRANCH   2  25
BRANCH   5  27
ATOM     27  C   UNL     1      -3.579   5.024  -0.649  0.00  0.00    +0.090 C 
BRANCH  27  28
ATOM     28  C   UNL     1      -3.841   5.729   0.683  0.00  0.00    -0.060 C 
BRANCH  28  31
ATOM     29  C   UNL     1      -5.778   6.910  -0.161  0.00  0.00    -0.097 C 
ATOM     30  C   UNL     1      -4.488   7.847   1.661  0.00  0.00    -0.097 C 
ATOM     31  N   UNL     1      -4.424   7.059   0.412  0.00  0.00    +0.377 N 
ATOM     32  H   UNL     1      -3.829   7.553  -0.263  0.00  0.00    -0.083 HD
ENDBRANCH  28  31
ENDBRANCH  27  28
ENDBRANCH   5  27
TORSDOF 8
