REMARK  Name = ZINC35456316
REMARK  9 active torsions:
REMARK  status: ('A' for Active; 'I' for Inactive)
REMARK    1  A    between atoms: C_1  and  C_2
REMARK    2  A    between atoms: C_2  and  C_3
REMARK    3  A    between atoms: C_8  and  N_9
REMARK    4  A    between atoms: C_10  and  C_12
REMARK    5  A    between atoms: C_12  and  N_13
REMARK    6  A    between atoms: C_19  and  C_20
REMARK    7  A    between atoms: C_23  and  C_26
REMARK    8  A    between atoms: N_28  and  C_31
REMARK    9  A    between atoms: C_31  and  C_32
REMARK                            x       y       z     vdW  Elec       q    Type
REMARK                         _______ _______ _______ _____ _____    ______ ____
ROOT
ATOM      1  N   UNL     1       6.366  -0.512   0.955  0.00  0.00    -0.284 N 
ATOM      2  C   UNL     1       6.825  -1.775   1.076  0.00  0.00    +0.258 A 
ATOM      3  O   UNL     1       6.073  -2.680   1.397  0.00  0.00    -0.267 OA
ATOM      4  C   UNL     1       8.190  -2.030   0.825  0.00  0.00    +0.035 A 
ATOM      5  C   UNL     1       9.000  -1.000   0.466  0.00  0.00    +0.035 A 
ATOM      6  N   UNL     1       8.495   0.233   0.362  0.00  0.00    -0.235 NA
ATOM      7  C   UNL     1       7.224   0.482   0.591  0.00  0.00    +0.144 A 
ATOM      8  C   UNL     1      10.463  -1.206   0.172  0.00  0.00    -0.021 C 
ATOM      9  N   UNL     1      10.932  -2.470   0.747  0.00  0.00    +0.386 N 
ATOM     10  C   UNL     1      10.066  -3.562   0.275  0.00  0.00    -0.073 C 
ATOM     11  C   UNL     1       8.707  -3.437   0.967  0.00  0.00    +0.024 C 
ATOM     12  H   UNL     1      10.892  -2.419   1.753  0.00  0.00    -0.081 HD
ENDROOT
BRANCH   7  13
ATOM     13  C   UNL     1       6.719   1.864   0.456  0.00  0.00    +0.018 A 
ATOM     14  C   UNL     1       6.038   2.468   1.515  0.00  0.00    +0.012 A 
ATOM     15  C   UNL     1       5.570   3.759   1.382  0.00  0.00    +0.004 A 
ATOM     16  C   UNL     1       5.772   4.454   0.203  0.00  0.00    -0.050 A 
ATOM     17  C   UNL     1       6.446   3.861  -0.850  0.00  0.00    +0.004 A 
ATOM     18  C   UNL     1       6.926   2.574  -0.729  0.00  0.00    +0.012 A 
ATOM     19  C   UNL     1       5.257   5.864   0.066  0.00  0.00    +0.044 C 
ENDBRANCH   7  13
BRANCH   1  20
ATOM     20  C   UNL     1       4.954  -0.212   1.207  0.00  0.00    +0.222 C 
BRANCH  20  22
ATOM     21  N   UNL     1       2.824  -0.257  -0.050  0.00  0.00    -0.284 N 
ATOM     22  C   UNL     1       4.155  -0.466  -0.045  0.00  0.00    +0.237 C 
ATOM     23  O   UNL     1       4.711  -0.858  -1.050  0.00  0.00    -0.274 OA
ATOM     24  H   UNL     1       2.389   0.115   0.734  0.00  0.00    +0.155 HD
BRANCH  21  30
ATOM     25  C   UNL     1       0.775  -1.060  -1.044  0.00  0.00    -0.026 A 
ATOM     26  C   UNL     1       0.030  -1.369  -2.166  0.00  0.00    +0.005 A 
ATOM     27  C   UNL     1       0.574  -1.202  -3.426  0.00  0.00    +0.000 A 
ATOM     28  C   UNL     1       1.865  -0.724  -3.568  0.00  0.00    +0.002 A 
ATOM     29  C   UNL     1       2.614  -0.413  -2.451  0.00  0.00    +0.023 A 
ATOM     30  C   UNL     1       2.069  -0.576  -1.184  0.00  0.00    +0.037 A 
BRANCH  25  32
ATOM     31  C   UNL     1      -0.420   0.081   0.804  0.00  0.00    +0.009 C 
ATOM     32  C   UNL     1       0.182  -1.243   0.329  0.00  0.00    +0.033 C 
ENDBRANCH  25  32
ENDBRANCH  21  30
ENDBRANCH  20  22
ENDBRANCH   1  20
BRANCH   9  33
ATOM     33  C   UNL     1      12.315  -2.720   0.319  0.00  0.00    -0.042 C 
BRANCH  33  34
ATOM     34  C   UNL     1      13.219  -1.661   0.896  0.00  0.00    -0.064 A 
ATOM     35  C   UNL     1      13.452  -0.494   0.193  0.00  0.00    +0.002 A 
ATOM     36  C   UNL     1      14.281   0.477   0.723  0.00  0.00    +0.000 A 
ATOM     37  C   UNL     1      14.876   0.282   1.955  0.00  0.00    +0.000 A 
ATOM     38  C   UNL     1      14.642  -0.885   2.658  0.00  0.00    +0.000 A 
ATOM     39  C   UNL     1      13.810  -1.855   2.131  0.00  0.00    +0.002 A 
ENDBRANCH  33  34
ENDBRANCH   9  33
TORSDOF 7
