REMARK  Name = ZINC15067882
REMARK  11 active torsions:
REMARK  status: ('A' for Active; 'I' for Inactive)
REMARK    1  A    between atoms: C_1  and  C_2
REMARK    2  A    between atoms: C_3  and  C_17
REMARK    3  A    between atoms: N_6  and  C_7
REMARK    4  A    between atoms: C_17  and  C_19
REMARK    5  A    between atoms: C_17  and  N_56
REMARK    6  A    between atoms: C_20  and  C_21
REMARK    7  A    between atoms: C_20  and  N_56
REMARK    8  A    between atoms: C_23  and  O_29
REMARK    9  A    between atoms: C_25  and  O_27
REMARK   10  A    between atoms: O_27  and  C_28
REMARK   11  A    between atoms: O_29  and  C_30
REMARK                            x       y       z     vdW  Elec       q    Type
REMARK                         _______ _______ _______ _____ _____    ______ ____
ROOT
ATOM      1  C   UNL     1       5.059   5.331  -0.252  0.00  0.00    +0.066 C 
ATOM      2  C   UNL     1       4.799   3.852  -0.125  0.00  0.00    +0.043 A 
ATOM      3  C   UNL     1       5.735   2.875  -0.098  0.00  0.00    -0.021 A 
ATOM      4  C   UNL     1       5.075   1.648   0.025  0.00  0.00    +0.137 A 
ATOM      5  N   UNL     1       3.787   1.876   0.076  0.00  0.00    -0.174 NA
ATOM      6  N   UNL     1       3.583   3.259  -0.012  0.00  0.00    -0.236 N 
ENDROOT
BRANCH   6   7
ATOM      7  C   UNL     1       2.346   3.912   0.005  0.00  0.00    +0.073 A 
ATOM      8  C   UNL     1       2.143   4.993   0.835  0.00  0.00    +0.028 A 
ATOM      9  C   UNL     1       0.915   5.650   0.861  0.00  0.00    +0.003 A 
ATOM     10  C   UNL     1      -0.115   5.245   0.069  0.00  0.00    +0.008 A 
ATOM     11  C   UNL     1       0.051   4.147  -0.792  0.00  0.00    -0.016 A 
ATOM     12  C   UNL     1       1.296   3.471  -0.827  0.00  0.00    +0.008 A 
ATOM     13  C   UNL     1       1.461   2.375  -1.689  0.00  0.00    +0.010 A 
ATOM     14  C   UNL     1       0.426   1.977  -2.479  0.00  0.00    +0.001 A 
ATOM     15  C   UNL     1      -0.796   2.645  -2.450  0.00  0.00    +0.001 A 
ATOM     16  C   UNL     1      -0.995   3.707  -1.622  0.00  0.00    +0.008 A 
ENDBRANCH   6   7
BRANCH   3  17
ATOM     17  C   UNL     1       7.226   3.074  -0.190  0.00  0.00    -0.040 C 
ATOM     18  C   UNL     1       7.789   3.369   1.202  0.00  0.00    -0.009 C 
BRANCH  17  19
ATOM     19  N   UNL     1       7.846   1.846  -0.722  0.00  0.00    +0.386 N 
ATOM     20  H   UNL     1       7.215   1.417  -1.408  0.00  0.00    -0.085 HD
ATOM     21  H   UNL     1       8.011   1.188   0.050  0.00  0.00    -0.085 HD
BRANCH  19  22
ATOM     22  C   UNL     1       9.131   2.162  -1.374  0.00  0.00    -0.046 C 
BRANCH  22  23
ATOM     23  C   UNL     1       9.741   0.890  -1.906  0.00  0.00    -0.057 A 
ATOM     24  C   UNL     1      10.592   0.148  -1.111  0.00  0.00    +0.047 A 
ATOM     25  C   UNL     1      11.150  -1.026  -1.597  0.00  0.00    +0.124 A 
ATOM     26  C   UNL     1      10.861  -1.448  -2.885  0.00  0.00    +0.091 A 
ATOM     27  C   UNL     1      10.010  -0.699  -3.683  0.00  0.00    +0.124 A 
ATOM     28  C   UNL     1       9.451   0.472  -3.191  0.00  0.00    +0.047 A 
BRANCH  27  29
ATOM     29  O   UNL     1       9.725  -1.110  -4.946  0.00  0.00    -0.495 OA
ATOM     30  C   UNL     1      10.336  -2.325  -5.387  0.00  0.00    +0.277 C 
ENDBRANCH  27  29
BRANCH  25  31
ATOM     31  O   UNL     1      11.983  -1.759  -0.812  0.00  0.00    -0.495 OA
ATOM     32  C   UNL     1      12.525  -2.954  -1.379  0.00  0.00    +0.277 C 
ENDBRANCH  25  31
ENDBRANCH  22  23
ENDBRANCH  19  22
ENDBRANCH  17  19
ENDBRANCH   3  17
TORSDOF 7
