REMARK  Name = ZINC15092265
REMARK  10 active torsions:
REMARK  status: ('A' for Active; 'I' for Inactive)
REMARK    1  A    between atoms: C_1  and  C_2
REMARK    2  A    between atoms: C_2  and  O_3
REMARK    3  A    between atoms: O_3  and  C_4
REMARK    4  A    between atoms: N_6  and  C_7
REMARK    5  A    between atoms: C_10  and  C_13
REMARK    6  A    between atoms: N_15  and  C_16
REMARK    7  A    between atoms: C_19  and  S_22
REMARK    8  A    between atoms: S_22  and  N_25
REMARK    9  A    between atoms: C_27  and  C_34
REMARK   10  A    between atoms: C_30  and  C_33
REMARK                            x       y       z     vdW  Elec       q    Type
REMARK                         _______ _______ _______ _____ _____    ______ ____
ROOT
ATOM      1  C   UNL     1      -4.280   3.769   0.583  0.00  0.00    +0.248 C 
ATOM      2  O   UNL     1      -5.300   3.390   1.125  0.00  0.00    -0.270 OA
ATOM      3  N   UNL     1      -4.255   4.959  -0.049  0.00  0.00    -0.282 N 
ATOM      4  H   UNL     1      -3.463   5.232  -0.539  0.00  0.00    +0.155 HD
ENDROOT
BRANCH   1   8
ATOM      5  C   UNL     1      -0.795   1.344   0.683  0.00  0.00    +0.036 A 
ATOM      6  C   UNL     1      -0.766   2.574   0.034  0.00  0.00    +0.024 A 
ATOM      7  C   UNL     1      -1.895   3.361  -0.005  0.00  0.00    +0.015 A 
ATOM      8  C   UNL     1      -3.069   2.927   0.618  0.00  0.00    +0.037 A 
ATOM      9  C   UNL     1      -3.093   1.693   1.274  0.00  0.00    +0.015 A 
ATOM     10  C   UNL     1      -1.962   0.909   1.304  0.00  0.00    +0.024 A 
BRANCH   5  13
ATOM     11  C   UNL     1       1.566   1.120   0.797  0.00  0.00    +0.405 C 
ATOM     12  O   UNL     1       1.672   2.330   0.763  0.00  0.00    -0.226 OA
ATOM     13  N   UNL     1       0.349   0.547   0.715  0.00  0.00    -0.251 N 
ATOM     14  H   UNL     1       0.269  -0.418   0.675  0.00  0.00    +0.158 HD
BRANCH  11  15
ATOM     15  O   UNL     1       2.665   0.351   0.916  0.00  0.00    -0.450 OA
BRANCH  15  17
ATOM     16  C   UNL     1       5.066   0.005   1.128  0.00  0.00    +0.048 C 
ATOM     17  C   UNL     1       3.943   1.036   0.998  0.00  0.00    +0.230 C 
ENDBRANCH  15  17
ENDBRANCH  11  15
ENDBRANCH   5  13
ENDBRANCH   1   8
BRANCH   3  18
ATOM     18  C   UNL     1      -5.371   5.801  -0.000  0.00  0.00    +0.034 A 
ATOM     19  C   UNL     1      -6.650   5.260   0.001  0.00  0.00    +0.025 A 
ATOM     20  C   UNL     1      -7.750   6.094   0.054  0.00  0.00    +0.030 A 
ATOM     21  C   UNL     1      -7.579   7.465   0.096  0.00  0.00    +0.106 A 
ATOM     22  C   UNL     1      -6.306   8.007   0.089  0.00  0.00    +0.030 A 
ATOM     23  C   UNL     1      -5.202   7.178   0.042  0.00  0.00    +0.025 A 
BRANCH  21  24
ATOM     24  S   UNL     1      -8.985   8.526   0.156  0.00  0.00    +0.061 S 
ATOM     25  O   UNL     1     -10.049   7.759   0.703  0.00  0.00    -0.153 OA
ATOM     26  O   UNL     1      -8.548   9.746   0.739  0.00  0.00    -0.153 OA
BRANCH  24  27
ATOM     27  N   UNL     1      -9.405   8.871  -1.408  0.00  0.00    -0.176 NA
ATOM     28  C   UNL     1      -8.838  10.040  -2.095  0.00  0.00    +0.112 C 
ATOM     29  C   UNL     1      -9.978  10.893  -2.649  0.00  0.00    +0.002 C 
ATOM     30  C   UNL     1     -10.880  10.024  -3.528  0.00  0.00    +0.009 C 
ATOM     31  C   UNL     1     -11.483   8.897  -2.686  0.00  0.00    +0.002 C 
ATOM     32  C   UNL     1     -10.357   8.019  -2.133  0.00  0.00    +0.112 C 
ATOM     33  C   UNL     1     -12.412   8.049  -3.557  0.00  0.00    +0.009 C 
ATOM     34  C   UNL     1      -9.402  12.038  -3.484  0.00  0.00    +0.009 C 
ENDBRANCH  24  27
ENDBRANCH  21  24
ENDBRANCH   3  18
TORSDOF 7
