REMARK  Name = ZINC36306625
REMARK  17 active torsions:
REMARK  status: ('A' for Active; 'I' for Inactive)
REMARK    1  A    between atoms: C_1  and  C_2
REMARK    2  A    between atoms: C_2  and  C_3
REMARK    3  A    between atoms: C_2  and  C_4
REMARK    4  A    between atoms: C_4  and  N_5
REMARK    5  A    between atoms: N_5  and  C_6
REMARK    6  A    between atoms: N_5  and  C_27
REMARK    7  A    between atoms: C_6  and  C_7
REMARK    8  A    between atoms: C_8  and  C_21
REMARK    9  A    between atoms: N_10  and  C_20
REMARK   10  A    between atoms: C_11  and  O_12
REMARK   11  A    between atoms: O_12  and  C_13
REMARK   12  A    between atoms: C_27  and  C_28
REMARK   13  A    between atoms: C_28  and  C_30
REMARK   14  A    between atoms: C_28  and  O_39
REMARK   15  A    between atoms: C_30  and  O_31
REMARK   16  A    between atoms: O_31  and  C_32
REMARK   17  A    between atoms: C_32  and  C_33
REMARK                            x       y       z     vdW  Elec       q    Type
REMARK                         _______ _______ _______ _____ _____    ______ ____
ROOT
ATOM      1  C   UNL     1      -1.205  -0.181   2.872  0.00  0.00    -0.035 C 
ENDROOT
BRANCH   1   2
ATOM      2  C   UNL     1      -1.907   0.169   4.159  0.00  0.00    +0.025 A 
ATOM      3  C   UNL     1      -1.698  -0.441   5.410  0.00  0.00    +0.098 A 
ATOM      4  N   UNL     1      -2.494   0.136   6.285  0.00  0.00    -0.168 NA
ATOM      5  N   UNL     1      -3.229   1.127   5.623  0.00  0.00    -0.235 N 
ATOM      6  C   UNL     1      -2.849   1.134   4.320  0.00  0.00    +0.221 A 
ATOM      7  C   UNL     1      -4.230   2.007   6.232  0.00  0.00    +0.176 C 
BRANCH   3   8
ATOM      8  C   UNL     1      -0.748  -1.545   5.693  0.00  0.00    +0.002 A 
ATOM      9  C   UNL     1      -0.638  -2.617   4.810  0.00  0.00    +0.010 A 
ATOM     10  C   UNL     1       0.249  -3.641   5.077  0.00  0.00    +0.001 A 
ATOM     11  C   UNL     1       1.026  -3.604   6.221  0.00  0.00    +0.000 A 
ATOM     12  C   UNL     1       0.921  -2.542   7.101  0.00  0.00    +0.001 A 
ATOM     13  C   UNL     1       0.043  -1.511   6.840  0.00  0.00    +0.010 A 
ENDBRANCH   3   8
BRANCH   6  14
ATOM     14  O   UNL     1      -3.326   1.956   3.350  0.00  0.00    -0.435 OA
BRANCH  14  15
ATOM     15  C   UNL     1      -4.460   1.584   2.700  0.00  0.00    +0.165 A 
ATOM     16  C   UNL     1      -5.153   0.452   3.103  0.00  0.00    +0.049 A 
ATOM     17  C   UNL     1      -6.306   0.076   2.441  0.00  0.00    +0.004 A 
ATOM     18  C   UNL     1      -6.770   0.827   1.377  0.00  0.00    +0.003 A 
ATOM     19  C   UNL     1      -6.083   1.956   0.972  0.00  0.00    +0.042 A 
ATOM     20  C   UNL     1      -4.931   2.341   1.635  0.00  0.00    +0.165 A 
ATOM     21  F   UNL     1      -4.262   3.447   1.242  0.00  0.00    -0.202 F 
ENDBRANCH  14  15
ENDBRANCH   6  14
ENDBRANCH   1   2
BRANCH   1  22
ATOM     22  N   UNL     1      -0.079   0.739   2.662  0.00  0.00    +0.384 N 
ATOM     23  H   UNL     1      -0.412   1.691   2.699  0.00  0.00    -0.081 HD
BRANCH  22  24
ATOM     24  C   UNL     1       0.525   0.482   1.348  0.00  0.00    -0.075 C 
BRANCH  24  26
ATOM     25  C   UNL     1      -0.869   2.251   0.265  0.00  0.00    +0.005 C 
ATOM     26  C   UNL     1      -0.503   0.765   0.251  0.00  0.00    -0.034 C 
ATOM     27  C   UNL     1       0.092   0.401  -1.111  0.00  0.00    +0.005 C 
ENDBRANCH  24  26
ENDBRANCH  22  24
BRANCH  22  28
ATOM     28  C   UNL     1       0.926   0.531   3.713  0.00  0.00    -0.044 C 
BRANCH  28  29
ATOM     29  C   UNL     1       2.009   1.606   3.603  0.00  0.00    +0.124 C 
BRANCH  29  30
ATOM     30  O   UNL     1       2.763   1.403   2.406  0.00  0.00    -0.391 OA
ATOM     31  H   UNL     1       3.207   0.545   2.362  0.00  0.00    +0.210 HD
ENDBRANCH  29  30
BRANCH  29  32
ATOM     32  C   UNL     1       2.941   1.517   4.813  0.00  0.00    +0.189 C 
BRANCH  32  33
ATOM     33  O   UNL     1       3.881   2.593   4.771  0.00  0.00    -0.373 OA
BRANCH  33  34
ATOM     34  C   UNL     1       4.803   2.602   5.863  0.00  0.00    +0.195 C 
BRANCH  34  35
ATOM     35  C   UNL     1       5.741   3.772   5.718  0.00  0.00    -0.022 A 
ATOM     36  C   UNL     1       6.923   3.626   5.016  0.00  0.00    +0.006 A 
ATOM     37  C   UNL     1       7.785   4.699   4.882  0.00  0.00    +0.000 A 
ATOM     38  C   UNL     1       7.464   5.918   5.450  0.00  0.00    +0.000 A 
ATOM     39  C   UNL     1       6.281   6.064   6.152  0.00  0.00    +0.000 A 
ATOM     40  C   UNL     1       5.418   4.992   6.282  0.00  0.00    +0.006 A 
ENDBRANCH  34  35
ENDBRANCH  33  34
ENDBRANCH  32  33
ENDBRANCH  29  32
ENDBRANCH  28  29
ENDBRANCH  22  28
ENDBRANCH   1  22
TORSDOF 14
