REMARK  Name = ZINC39436168
REMARK  11 active torsions:
REMARK  status: ('A' for Active; 'I' for Inactive)
REMARK    1  A    between atoms: C_1  and  C_2
REMARK    2  A    between atoms: C_2  and  O_3
REMARK    3  A    between atoms: O_3  and  C_4
REMARK    4  A    between atoms: C_6  and  C_22
REMARK    5  A    between atoms: C_9  and  O_10
REMARK    6  A    between atoms: O_10  and  C_11
REMARK    7  A    between atoms: C_11  and  C_12
REMARK    8  A    between atoms: C_16  and  N_18
REMARK    9  A    between atoms: C_23  and  C_24
REMARK   10  A    between atoms: C_23  and  C_26
REMARK   11  A    between atoms: C_32  and  C_36
REMARK                            x       y       z     vdW  Elec       q    Type
REMARK                         _______ _______ _______ _____ _____    ______ ____
ROOT
ATOM      1  C   UNL     1       0.616  -2.069   1.751  0.00  0.00    +0.164 A 
ATOM      2  C   UNL     1       0.229  -2.788   0.637  0.00  0.00    +0.057 A 
ATOM      3  C   UNL     1       0.212  -4.187   0.681  0.00  0.00    -0.019 A 
ATOM      4  C   UNL     1       0.588  -4.850   1.855  0.00  0.00    +0.032 A 
ATOM      5  C   UNL     1       0.973  -4.125   2.962  0.00  0.00    +0.087 A 
ATOM      6  C   UNL     1       0.994  -2.736   2.915  0.00  0.00    +0.181 A 
ATOM      7 CL   UNL     1       1.439  -4.948   4.418  0.00  0.00    -0.080 Cl
ENDROOT
BRANCH   3   8
ATOM      8  C   UNL     1      -0.199  -4.957  -0.502  0.00  0.00    +0.026 C 
ATOM      9  C   UNL     1       0.423  -6.117  -0.801  0.00  0.00    +0.072 C 
BRANCH   9  10
ATOM     10  C   UNL     1      -0.102  -6.988  -1.913  0.00  0.00    +0.216 C 
ATOM     11  N   UNL     1      -0.420  -8.326  -1.398  0.00  0.00    -0.359 N 
ATOM     12  C   UNL     1       0.327  -9.179  -2.036  0.00  0.00    +0.060 A 
ATOM     13  C   UNL     1       0.462 -10.640  -1.964  0.00  0.00    +0.027 A 
ATOM     14  C   UNL     1       1.343 -11.268  -2.768  0.00  0.00    +0.005 A 
ATOM     15  C   UNL     1       2.152 -10.579  -3.689  0.00  0.00    -0.048 A 
ATOM     16  C   UNL     1       2.108  -9.240  -3.836  0.00  0.00    +0.030 A 
ATOM     17  C   UNL     1       1.184  -8.450  -3.012  0.00  0.00    +0.061 A 
ATOM     18  N   UNL     1       0.932  -7.174  -2.939  0.00  0.00    -0.359 N 
ATOM     19  C   UNL     1       3.107 -11.370  -4.546  0.00  0.00    +0.044 C 
ATOM     20  H   UNL     1      -1.069  -8.536  -0.708  0.00  0.00    +0.162 HD
ATOM     21  H   UNL     1       1.350  -6.475  -3.466  0.00  0.00    +0.162 HD
ENDBRANCH   9  10
BRANCH   9  22
ATOM     22  C   UNL     1       1.582  -6.520  -0.062  0.00  0.00    +0.099 C 
ATOM     23  N   UNL     1       2.501  -6.840   0.524  0.00  0.00    -0.191 NA
ENDBRANCH   9  22
ENDBRANCH   3   8
BRANCH   1  24
ATOM     24  O   UNL     1       0.632  -0.710   1.711  0.00  0.00    -0.489 OA
BRANCH  24  26
ATOM     25  C   UNL     1       0.315   1.429   0.631  0.00  0.00    +0.048 C 
ATOM     26  C   UNL     1       0.232  -0.092   0.486  0.00  0.00    +0.226 C 
ENDBRANCH  24  26
ENDBRANCH   1  24
BRANCH   6  27
ATOM     27  O   UNL     1       1.379  -2.027   4.008  0.00  0.00    -0.482 OA
BRANCH  27  28
ATOM     28  C   UNL     1       0.357  -1.661   4.937  0.00  0.00    +0.264 C 
BRANCH  28  29
ATOM     29  C   UNL     1       0.968  -0.885   6.075  0.00  0.00    -0.008 A 
ATOM     30  C   UNL     1       1.433  -1.550   7.195  0.00  0.00    +0.007 A 
ATOM     31  C   UNL     1       1.993  -0.838   8.239  0.00  0.00    +0.003 A 
ATOM     32  C   UNL     1       2.089   0.539   8.164  0.00  0.00    +0.033 A 
ATOM     33  C   UNL     1       1.625   1.204   7.044  0.00  0.00    +0.127 A 
ATOM     34  C   UNL     1       1.069   0.492   5.998  0.00  0.00    +0.039 A 
BRANCH  33  35
ATOM     35  N   UNL     1       1.727   2.679   6.964  0.00  0.00    +0.056 N 
ATOM     36  O   UNL     1       2.216   3.301   7.878  0.00  0.00    -0.126 OA
ATOM     37  O   UNL     1       1.321   3.260   5.985  0.00  0.00    -0.126 OA
ENDBRANCH  33  35
ENDBRANCH  28  29
ENDBRANCH  27  28
ENDBRANCH   6  27
TORSDOF 9
