REMARK  Name = ZINC39543554
REMARK  8 active torsions:
REMARK  status: ('A' for Active; 'I' for Inactive)
REMARK    1  A    between atoms: C_1  and  C_2
REMARK    2  A    between atoms: C_2  and  C_3
REMARK    3  A    between atoms: C_2  and  S_4
REMARK    4  A    between atoms: S_4  and  N_7
REMARK    5  A    between atoms: N_7  and  C_8
REMARK    6  A    between atoms: C_9  and  C_11
REMARK    7  A    between atoms: C_14  and  C_25
REMARK    8  A    between atoms: C_30  and  O_31
REMARK                            x       y       z     vdW  Elec       q    Type
REMARK                         _______ _______ _______ _____ _____    ______ ____
ROOT
ATOM      1  C   UNL     1       1.320   2.082   2.548  0.00  0.00    +0.150 C 
ATOM      2  C   UNL     1       2.686   1.372   2.596  0.00  0.00    +0.069 C 
ATOM      3  C   UNL     1       3.571   2.323   3.370  0.00  0.00    -0.000 C 
ATOM      4  C   UNL     1       2.864   3.387   3.723  0.00  0.00    +0.079 C 
ATOM      5  N   UNL     1       3.343   4.504   4.422  0.00  0.00    -0.303 N 
ATOM      6  C   UNL     1       2.792   5.733   4.021  0.00  0.00    +0.037 A 
ATOM      7  C   UNL     1       3.276   6.915   4.562  0.00  0.00    +0.023 A 
ATOM      8  C   UNL     1       2.728   8.123   4.175  0.00  0.00    +0.002 A 
ATOM      9  C   UNL     1       1.700   8.146   3.250  0.00  0.00    +0.000 A 
ATOM     10  C   UNL     1       1.222   6.969   2.707  0.00  0.00    +0.007 A 
ATOM     11  C   UNL     1       1.768   5.754   3.085  0.00  0.00    -0.010 A 
ATOM     12  C   UNL     1       1.242   4.489   2.458  0.00  0.00    +0.124 C 
ATOM     13  N   UNL     1       1.526   3.327   3.303  0.00  0.00    -0.370 NA
ATOM     14  H   UNL     1       4.003   4.433   5.129  0.00  0.00    +0.153 HD
ATOM     15  H   UNL     1       0.916   3.342   4.107  0.00  0.00    +0.128 HD
ENDROOT
BRANCH   3  16
ATOM     16  C   UNL     1       4.996   2.101   3.684  0.00  0.00    +0.023 A 
ATOM     17  C   UNL     1       5.381   1.734   4.974  0.00  0.00    +0.012 A 
ATOM     18  C   UNL     1       6.715   1.528   5.261  0.00  0.00    +0.001 A 
ATOM     19  C   UNL     1       7.673   1.683   4.274  0.00  0.00    +0.004 A 
ATOM     20  C   UNL     1       7.303   2.047   2.992  0.00  0.00    +0.046 A 
ATOM     21  C   UNL     1       5.968   2.251   2.687  0.00  0.00    +0.124 A 
BRANCH  21  22
ATOM     22  O   UNL     1       5.603   2.602   1.425  0.00  0.00    -0.506 OA
ATOM     23  H   UNL     1       5.583   3.557   1.273  0.00  0.00    +0.292 HD
ENDBRANCH  21  22
ENDBRANCH   3  16
BRANCH   1  26
ATOM     24  N   UNL     1      -0.241   0.163   2.564  0.00  0.00    -0.178 N 
ATOM     25  C   UNL     1       0.327  -0.254   1.280  0.00  0.00    +0.160 C 
ATOM     26  C   UNL     1       0.263   1.234   3.208  0.00  0.00    +0.253 C 
ATOM     27  O   UNL     1      -0.134   1.516   4.319  0.00  0.00    -0.272 OA
BRANCH  24  28
ATOM     28  S   UNL     1      -1.503  -0.682   3.224  0.00  0.00    +0.050 S 
ATOM     29  O   UNL     1      -2.143  -1.302   2.118  0.00  0.00    -0.155 OA
ATOM     30  O   UNL     1      -2.196   0.267   4.023  0.00  0.00    -0.155 OA
BRANCH  28  32
ATOM     31  C   UNL     1       0.119  -1.246   5.353  0.00  0.00    +0.033 C 
ATOM     32  C   UNL     1      -0.724  -1.936   4.279  0.00  0.00    +0.145 C 
ATOM     33  C   UNL     1      -1.807  -2.785   4.947  0.00  0.00    +0.033 C 
ENDBRANCH  28  32
ENDBRANCH  24  28
ENDBRANCH   1  26
TORSDOF 5
