REMARK  Name = ZINC41598946
REMARK  3 active torsions:
REMARK  status: ('A' for Active; 'I' for Inactive)
REMARK    1  A    between atoms: C_3  and  C_6
REMARK    2  A    between atoms: C_6  and  C_7
REMARK    3  A    between atoms: N_14  and  C_15
REMARK                            x       y       z     vdW  Elec       q    Type
REMARK                         _______ _______ _______ _____ _____    ______ ____
ROOT
ATOM      1  C   UNL     1       4.134   0.805   1.387  0.00  0.00    +0.135 A 
ATOM      2  C   UNL     1       5.549   0.531   1.654  0.00  0.00    +0.297 A 
ATOM      3  O   UNL     1       6.330   0.369   0.729  0.00  0.00    -0.264 OA
ATOM      4  N   UNL     1       5.977   0.459   2.920  0.00  0.00    -0.174 NA
ATOM      5  C   UNL     1       5.138   0.633   3.922  0.00  0.00    +0.217 A 
ATOM      6  N   UNL     1       3.823   0.887   3.702  0.00  0.00    -0.248 N 
ATOM      7  N   UNL     1       3.324   0.978   2.396  0.00  0.00    -0.170 NA
ATOM      8  N   UNL     1       5.603   0.554   5.210  0.00  0.00    -0.282 N 
ATOM      9  H   UNL     1       4.980   0.591   5.952  0.00  0.00    +0.155 HD
ATOM     10  H   UNL     1       3.225   1.011   4.455  0.00  0.00    +0.192 HD
ENDROOT
BRANCH   8  11
ATOM     11  C   UNL     1       6.976   0.421   5.452  0.00  0.00    +0.069 A 
ATOM     12  C   UNL     1       7.894   1.001   4.587  0.00  0.00    +0.029 A 
ATOM     13  C   UNL     1       9.248   0.869   4.828  0.00  0.00    +0.040 A 
ATOM     14  C   UNL     1       9.691   0.159   5.932  0.00  0.00    +0.126 A 
ATOM     15  C   UNL     1       8.778  -0.420   6.797  0.00  0.00    +0.078 A 
ATOM     16  C   UNL     1       7.422  -0.286   6.563  0.00  0.00    +0.147 A 
ATOM     17  F   UNL     1       6.531  -0.847   7.410  0.00  0.00    -0.203 F 
ATOM     18  F   UNL     1      11.015   0.031   6.164  0.00  0.00    -0.205 F 
ENDBRANCH   8  11
BRANCH   1  19
ATOM     19  C   UNL     1       3.625   0.891  -0.029  0.00  0.00    +0.137 C 
BRANCH  19  22
ATOM     20  C   UNL     1       0.189   2.224   0.000  0.00  0.00    +0.041 A 
ATOM     21  C   UNL     1       1.590   2.412  -0.018  0.00  0.00    +0.045 A 
ATOM     22  C   UNL     1       2.147   1.187  -0.014  0.00  0.00    +0.111 A 
ATOM     23  O   UNL     1       1.163   0.273   0.005  0.00  0.00    -0.467 OA
ATOM     24  C   UNL     1      -0.026   0.896   0.014  0.00  0.00    +0.195 A 
ENDBRANCH  19  22
ENDBRANCH   1  19
TORSDOF 3
