REMARK  Name = ZINC38903674
REMARK  15 active torsions:
REMARK  status: ('A' for Active; 'I' for Inactive)
REMARK    1  A    between atoms: C_1  and  C_2
REMARK    2  A    between atoms: C_5  and  C_8
REMARK    3  A    between atoms: C_8  and  S_9
REMARK    4  A    between atoms: S_9  and  C_10
REMARK    5  A    between atoms: C_10  and  C_11
REMARK    6  A    between atoms: C_11  and  C_12
REMARK    7  A    between atoms: C_12  and  N_13
REMARK    8  A    between atoms: C_14  and  C_16
REMARK    9  A    between atoms: N_21  and  C_23
REMARK   10  A    between atoms: C_23  and  C_24
REMARK   11  A    between atoms: C_26  and  C_29
REMARK   12  A    between atoms: C_32  and  C_35
REMARK   13  A    between atoms: C_35  and  C_36
REMARK   14  A    between atoms: C_35  and  C_37
REMARK   15  A    between atoms: C_35  and  C_38
REMARK                            x       y       z     vdW  Elec       q    Type
REMARK                         _______ _______ _______ _____ _____    ______ ____
ROOT
ATOM      1  C   UNL     1       5.744 -11.377  -0.092  0.00  0.00    +0.058 C 
ATOM      2  C   UNL     1       6.498 -10.923  -1.345  0.00  0.00    +0.009 C 
ATOM      3  C   UNL     1       7.863 -11.617  -1.386  0.00  0.00    -0.018 C 
ATOM      4  C   UNL     1       7.659 -13.133  -1.349  0.00  0.00    -0.078 C 
ATOM      5  N   UNL     1       6.956 -13.506  -0.116  0.00  0.00    +0.386 N 
ATOM      6  C   UNL     1       5.619 -12.902  -0.101  0.00  0.00    -0.065 C 
ATOM      7  H   UNL     1       7.480 -13.178   0.681  0.00  0.00    -0.081 HD
ENDROOT
BRANCH   1   9
ATOM      8  N   UNL     1       4.233  -9.418  -0.073  0.00  0.00    -0.315 N 
ATOM      9  C   UNL     1       4.369 -10.759  -0.081  0.00  0.00    +0.214 C 
ATOM     10  O   UNL     1       3.386 -11.468  -0.079  0.00  0.00    -0.276 OA
ATOM     11  H   UNL     1       5.020  -8.851  -0.074  0.00  0.00    +0.149 HD
BRANCH   8  12
ATOM     12  C   UNL     1       2.897  -8.818  -0.062  0.00  0.00    +0.105 C 
BRANCH  12  13
ATOM     13  C   UNL     1       3.023  -7.293  -0.054  0.00  0.00    +0.029 C 
BRANCH  13  14
ATOM     14  C   UNL     1       1.628  -6.666  -0.043  0.00  0.00    +0.071 C 
BRANCH  14  15
ATOM     15  S   UNL     1       1.777  -4.858  -0.034  0.00  0.00    -0.156 S 
BRANCH  15  16
ATOM     16  C   UNL     1       0.059  -4.275  -0.021  0.00  0.00    +0.104 C 
BRANCH  16  21
ATOM     17  C   UNL     1      -0.018   1.503   0.010  0.00  0.00    +0.044 C 
ATOM     18  C   UNL     1       0.002  -0.004   0.002  0.00  0.00    -0.050 A 
ATOM     19  C   UNL     1       0.006  -0.689  -1.199  0.00  0.00    +0.003 A 
ATOM     20  C   UNL     1       0.025  -2.071  -1.206  0.00  0.00    +0.005 A 
ATOM     21  C   UNL     1       0.040  -2.768  -0.013  0.00  0.00    -0.038 A 
ATOM     22  C   UNL     1       0.037  -2.084   1.188  0.00  0.00    +0.005 A 
ATOM     23  C   UNL     1       0.023  -0.702   1.195  0.00  0.00    +0.003 A 
ENDBRANCH  16  21
ENDBRANCH  15  16
ENDBRANCH  14  15
ENDBRANCH  13  14
ENDBRANCH  12  13
ENDBRANCH   8  12
ENDBRANCH   1   9
BRANCH   5  24
ATOM     24  C   UNL     1       6.832 -14.968  -0.048  0.00  0.00    +0.022 C 
BRANCH  24  25
ATOM     25  C   UNL     1       8.202 -15.584   0.072  0.00  0.00    +0.211 A 
ATOM     26  N   UNL     1       8.825 -15.845   1.186  0.00  0.00    -0.193 NA
ATOM     27  C   UNL     1      10.026 -16.391   0.925  0.00  0.00    +0.202 A 
ATOM     28  N   UNL     1      10.172 -16.481  -0.374  0.00  0.00    -0.056 NA
ATOM     29  O   UNL     1       8.983 -15.960  -0.949  0.00  0.00    -0.340 OA
BRANCH  27  30
ATOM     30  C   UNL     1      11.020 -16.821   1.940  0.00  0.00    +0.022 A 
ATOM     31  C   UNL     1      10.741 -16.676   3.297  0.00  0.00    +0.012 A 
ATOM     32  C   UNL     1      11.670 -17.077   4.237  0.00  0.00    +0.005 A 
ATOM     33  C   UNL     1      12.875 -17.621   3.833  0.00  0.00    -0.042 A 
ATOM     34  C   UNL     1      13.157 -17.767   2.486  0.00  0.00    +0.005 A 
ATOM     35  C   UNL     1      12.234 -17.375   1.539  0.00  0.00    +0.012 A 
BRANCH  33  36
ATOM     36  C   UNL     1      13.885 -18.057   4.863  0.00  0.00    -0.013 C 
ATOM     37  C   UNL     1      13.271 -19.137   5.755  0.00  0.00    +0.015 C 
ATOM     38  C   UNL     1      15.122 -18.619   4.159  0.00  0.00    +0.015 C 
ATOM     39  C   UNL     1      14.289 -16.855   5.720  0.00  0.00    +0.015 C 
ENDBRANCH  33  36
ENDBRANCH  27  30
ENDBRANCH  24  25
ENDBRANCH   5  24
TORSDOF 11
