REMARK  Name = ZINC10985330
REMARK  9 active torsions:
REMARK  status: ('A' for Active; 'I' for Inactive)
REMARK    1  A    between atoms: C_1  and  C_2
REMARK    2  A    between atoms: C_9  and  C_14
REMARK    3  A    between atoms: C_14  and  O_16
REMARK    4  A    between atoms: O_16  and  C_17
REMARK    5  A    between atoms: C_17  and  C_19
REMARK    6  A    between atoms: C_17  and  C_20
REMARK    7  A    between atoms: N_22  and  C_23
REMARK    8  A    between atoms: C_23  and  C_24
REMARK    9  A    between atoms: N_26  and  C_27
REMARK                            x       y       z     vdW  Elec       q    Type
REMARK                         _______ _______ _______ _____ _____    ______ ____
ROOT
ATOM      1  C   UNL     1       5.308   8.025   0.516  0.00  0.00    +0.259 C 
ATOM      2  C   UNL     1       5.954   7.524   1.809  0.00  0.00    +0.062 C 
ENDROOT
BRANCH   1   3
ATOM      3  C   UNL     1       3.895   7.507   0.427  0.00  0.00    +0.254 C 
ATOM      4  O   UNL     1       2.962   8.281   0.459  0.00  0.00    -0.272 OA
ATOM      5  N   UNL     1       3.669   6.183   0.312  0.00  0.00    -0.304 N 
ATOM      6  H   UNL     1       4.416   5.564   0.286  0.00  0.00    +0.149 HD
BRANCH   5   7
ATOM      7  C   UNL     1       2.296   5.679   0.225  0.00  0.00    +0.200 C 
BRANCH   7   8
ATOM      8  C   UNL     1       2.319   4.177   0.104  0.00  0.00    +0.234 C 
ATOM      9  O   UNL     1       3.378   3.586   0.091  0.00  0.00    -0.274 OA
ATOM     10  N   UNL     1       1.163   3.491   0.009  0.00  0.00    -0.282 N 
ATOM     11  H   UNL     1       0.321   3.967  -0.061  0.00  0.00    +0.155 HD
BRANCH  10  12
ATOM     12  C   UNL     1       1.178   2.090   0.013  0.00  0.00    +0.072 A 
ATOM     13  C   UNL     1       2.230   1.407   0.608  0.00  0.00    +0.029 A 
ATOM     14  C   UNL     1       2.244   0.026   0.611  0.00  0.00    +0.043 A 
ATOM     15  C   UNL     1       1.210  -0.680   0.022  0.00  0.00    +0.161 A 
ATOM     16  C   UNL     1       0.156  -0.003  -0.574  0.00  0.00    +0.195 A 
ATOM     17  C   UNL     1       0.139   1.381  -0.579  0.00  0.00    +0.182 A 
ATOM     18  F   UNL     1      -0.884   2.043  -1.163  0.00  0.00    -0.200 F 
ATOM     19  F   UNL     1      -0.852  -0.694  -1.149  0.00  0.00    -0.199 F 
ATOM     20  F   UNL     1       1.226  -2.031   0.026  0.00  0.00    -0.202 F 
ENDBRANCH  10  12
ENDBRANCH   7   8
ENDBRANCH   5   7
ENDBRANCH   1   3
BRANCH   1  21
ATOM     21  O   UNL     1       5.291   9.477   0.514  0.00  0.00    -0.449 OA
BRANCH  21  22
ATOM     22  C   UNL     1       6.360  10.100  -0.020  0.00  0.00    +0.340 C 
ATOM     23  O   UNL     1       7.281   9.448  -0.472  0.00  0.00    -0.245 OA
BRANCH  22  31
ATOM     24  C   UNL     1       8.848  16.207   1.374  0.00  0.00    +0.029 C 
ATOM     25  C   UNL     1       8.368  16.424  -0.062  0.00  0.00    +0.134 C 
ATOM     26  C   UNL     1       9.085  15.474  -0.983  0.00  0.00    +0.230 C 
ATOM     27  O   UNL     1      10.083  15.868  -1.548  0.00  0.00    -0.274 OA
ATOM     28  N   UNL     1       8.685  14.226  -1.211  0.00  0.00    -0.284 N 
ATOM     29  C   UNL     1       7.575  13.601  -0.647  0.00  0.00    +0.048 A 
ATOM     30  C   UNL     1       7.522  12.217  -0.611  0.00  0.00    +0.039 A 
ATOM     31  C   UNL     1       6.413  11.572  -0.057  0.00  0.00    +0.061 A 
ATOM     32  C   UNL     1       5.350  12.322   0.458  0.00  0.00    +0.016 A 
ATOM     33  C   UNL     1       5.406  13.697   0.428  0.00  0.00    +0.017 A 
ATOM     34  C   UNL     1       6.508  14.338  -0.121  0.00  0.00    +0.030 A 
ATOM     35  S   UNL     1       6.582  16.101  -0.163  0.00  0.00    -0.111 S 
ATOM     36  H   UNL     1       9.217  13.702  -1.830  0.00  0.00    +0.155 HD
ENDBRANCH  22  31
ENDBRANCH  21  22
ENDBRANCH   1  21
TORSDOF 7
