REMARK  Name = ZINC36641321
REMARK  7 active torsions:
REMARK  status: ('A' for Active; 'I' for Inactive)
REMARK    1  A    between atoms: C_1  and  N_2
REMARK    2  A    between atoms: N_2  and  C_3
REMARK    3  A    between atoms: N_2  and  C_4
REMARK    4  A    between atoms: C_4  and  C_5
REMARK    5  A    between atoms: C_5  and  N_6
REMARK    6  A    between atoms: C_17  and  C_19
REMARK    7  A    between atoms: N_24  and  C_26
REMARK                            x       y       z     vdW  Elec       q    Type
REMARK                         _______ _______ _______ _____ _____    ______ ____
ROOT
ATOM      1  N   UNL     1      -2.894  -2.010   0.146  0.00  0.00    -0.252 N 
ATOM      2  C   UNL     1      -3.663  -1.857  -0.997  0.00  0.00    +0.168 A 
ATOM      3  N   UNL     1      -3.324  -1.340  -2.154  0.00  0.00    -0.224 NA
ATOM      4  C   UNL     1      -4.185  -1.255  -3.192  0.00  0.00    +0.080 A 
ATOM      5  C   UNL     1      -3.949  -0.724  -4.481  0.00  0.00    +0.030 A 
ATOM      6  C   UNL     1      -4.941  -0.713  -5.426  0.00  0.00    +0.017 A 
ATOM      7  C   UNL     1      -6.205  -1.219  -5.157  0.00  0.00    +0.019 A 
ATOM      8  C   UNL     1      -6.471  -1.746  -3.906  0.00  0.00    +0.032 A 
ATOM      9  C   UNL     1      -5.483  -1.760  -2.953  0.00  0.00    +0.042 A 
ATOM     10  S   UNL     1      -5.367  -2.322  -1.271  0.00  0.00    -0.052 S 
ATOM     11 BR   UNL     1      -7.550  -1.187  -6.486  0.00  0.00    -0.050 Br
ATOM     12  C   UNL     1      -3.465  -2.437   1.290  0.00  0.00    +0.226 C 
ATOM     13  O   UNL     1      -2.774  -2.685   2.256  0.00  0.00    -0.275 OA
ENDROOT
BRANCH  12  14
ATOM     14  C   UNL     1      -4.960  -2.606   1.369  0.00  0.00    +0.102 C 
ATOM     15  C   UNL     1      -5.376  -4.041   0.971  0.00  0.00    +0.110 C 
ATOM     16  C   UNL     1      -5.436  -4.788   2.285  0.00  0.00    +0.221 C 
ATOM     17  O   UNL     1      -5.451  -5.995   2.398  0.00  0.00    -0.275 OA
ATOM     18  N   UNL     1      -5.470  -3.919   3.310  0.00  0.00    -0.271 N 
ATOM     19  C   UNL     1      -5.448  -2.530   2.833  0.00  0.00    +0.127 C 
BRANCH  18  20
ATOM     20  C   UNL     1      -5.519  -4.290   4.660  0.00  0.00    +0.036 A 
ATOM     21  C   UNL     1      -5.516  -5.633   5.012  0.00  0.00    +0.026 A 
ATOM     22  C   UNL     1      -5.565  -5.996   6.343  0.00  0.00    +0.040 A 
ATOM     23  C   UNL     1      -5.617  -5.023   7.327  0.00  0.00    +0.124 A 
ATOM     24  C   UNL     1      -5.620  -3.683   6.977  0.00  0.00    +0.040 A 
ATOM     25  C   UNL     1      -5.565  -3.315   5.647  0.00  0.00    +0.026 A 
ATOM     26  F   UNL     1      -5.666  -5.381   8.628  0.00  0.00    -0.205 F 
ENDBRANCH  18  20
ENDBRANCH  12  14
BRANCH   1  27
ATOM     27  C   UNL     1      -1.461  -1.707   0.110  0.00  0.00    +0.097 C 
BRANCH  27  28
ATOM     28  C   UNL     1      -1.232  -0.268   0.575  0.00  0.00    -0.060 C 
BRANCH  28  30
ATOM     29  C   UNL     1       0.422   1.436   0.914  0.00  0.00    -0.097 C 
ATOM     30  N   UNL     1       0.208   0.021   0.584  0.00  0.00    +0.377 N 
ATOM     31  C   UNL     1       0.870  -0.822   1.589  0.00  0.00    -0.097 C 
ATOM     32  H   UNL     1       0.596  -0.175  -0.327  0.00  0.00    -0.083 HD
ENDBRANCH  28  30
ENDBRANCH  27  28
ENDBRANCH   1  27
TORSDOF 5
