REMARK  Name = ZINC40010943
REMARK  10 active torsions:
REMARK  status: ('A' for Active; 'I' for Inactive)
REMARK    1  A    between atoms: C_1  and  N_2
REMARK    2  A    between atoms: N_2  and  C_3
REMARK    3  A    between atoms: C_3  and  N_5
REMARK    4  A    between atoms: C_10  and  O_32
REMARK    5  A    between atoms: C_11  and  O_30
REMARK    6  A    between atoms: C_14  and  C_16
REMARK    7  A    between atoms: C_22  and  O_28
REMARK    8  A    between atoms: O_28  and  C_29
REMARK    9  A    between atoms: O_30  and  C_31
REMARK   10  A    between atoms: O_32  and  C_33
REMARK                            x       y       z     vdW  Elec       q    Type
REMARK                         _______ _______ _______ _____ _____    ______ ____
ROOT
ATOM      1  N   UNL     1       0.774  -1.981  -0.943  0.00  0.00    -0.304 N 
ATOM      2  C   UNL     1       0.168  -2.744   0.160  0.00  0.00    +0.112 C 
ATOM      3  C   UNL     1      -0.980  -3.571  -0.416  0.00  0.00    +0.054 C 
ATOM      4  C   UNL     1      -0.546  -4.294  -1.664  0.00  0.00    -0.037 A 
ATOM      5  C   UNL     1      -1.298  -5.394  -2.064  0.00  0.00    +0.053 A 
ATOM      6  C   UNL     1      -0.963  -6.098  -3.204  0.00  0.00    +0.162 A 
ATOM      7  C   UNL     1       0.137  -5.703  -3.960  0.00  0.00    +0.162 A 
ATOM      8  C   UNL     1       0.884  -4.612  -3.558  0.00  0.00    +0.055 A 
ATOM      9  C   UNL     1       0.546  -3.910  -2.408  0.00  0.00    -0.019 A 
ATOM     10  C   UNL     1       1.417  -2.746  -2.017  0.00  0.00    +0.121 C 
ENDROOT
BRANCH  10  11
ATOM     11  C   UNL     1       1.629  -1.840  -3.231  0.00  0.00    +0.123 C 
ATOM     12  C   UNL     1       0.308  -1.167  -3.546  0.00  0.00    -0.003 C 
ATOM     13  C   UNL     1      -0.211  -1.358  -4.789  0.00  0.00    -0.007 A 
ATOM     14  C   UNL     1      -1.484  -0.742  -5.171  0.00  0.00    +0.013 A 
ATOM     15  C   UNL     1      -1.970  -0.954  -6.418  0.00  0.00    +0.046 A 
ATOM     16  C   UNL     1      -1.278  -1.750  -7.344  0.00  0.00    +0.122 A 
ATOM     17  C   UNL     1      -0.078  -2.355  -7.042  0.00  0.00    +0.069 A 
ATOM     18  C   UNL     1       0.500  -2.191  -5.776  0.00  0.00    +0.044 A 
ATOM     19  N   UNL     1       1.664  -2.783  -5.495  0.00  0.00    -0.284 N 
ATOM     20  C   UNL     1       2.264  -2.670  -4.324  0.00  0.00    +0.226 C 
ATOM     21  O   UNL     1       3.325  -3.232  -4.126  0.00  0.00    -0.275 OA
ATOM     22  H   UNL     1       2.087  -3.320  -6.182  0.00  0.00    +0.155 HD
BRANCH  16  23
ATOM     23  O   UNL     1      -1.809  -1.929  -8.577  0.00  0.00    -0.495 OA
ATOM     24  C   UNL     1      -3.055  -1.283  -8.847  0.00  0.00    +0.277 C 
ENDBRANCH  16  23
ENDBRANCH  10  11
BRANCH   1  25
ATOM     25  C   UNL     1       0.736  -0.634  -0.969  0.00  0.00    +0.133 C 
ATOM     26  S   UNL     1       1.550   0.222  -2.208  0.00  0.00    -0.019 S 
BRANCH  25  28
ATOM     27  C   UNL     1       0.108   1.502   0.020  0.00  0.00    +0.127 C 
ATOM     28  N   UNL     1       0.057   0.039  -0.019  0.00  0.00    -0.329 N 
ATOM     29  H   UNL     1      -0.465  -0.446   0.640  0.00  0.00    +0.147 HD
ENDBRANCH  25  28
ENDBRANCH   1  25
BRANCH   7  30
ATOM     30  O   UNL     1       0.474  -6.386  -5.087  0.00  0.00    -0.491 OA
ATOM     31  C   UNL     1       1.615  -5.921  -5.810  0.00  0.00    +0.277 C 
ENDBRANCH   7  30
BRANCH   6  32
ATOM     32  O   UNL     1      -1.704  -7.173  -3.586  0.00  0.00    -0.491 OA
ATOM     33  C   UNL     1      -2.818  -7.519  -2.760  0.00  0.00    +0.277 C 
ENDBRANCH   6  32
TORSDOF 6
