REMARK  Name = ZINC29977056
REMARK  8 active torsions:
REMARK  status: ('A' for Active; 'I' for Inactive)
REMARK    1  A    between atoms: C_4  and  C_7
REMARK    2  A    between atoms: C_7  and  C_8
REMARK    3  A    between atoms: C_8  and  C_10
REMARK    4  A    between atoms: C_8  and  N_20
REMARK    5  A    between atoms: C_21  and  C_23
REMARK    6  A    between atoms: C_23  and  C_24
REMARK    7  A    between atoms: C_24  and  C_26
REMARK    8  A    between atoms: C_24  and  N_33
REMARK                            x       y       z     vdW  Elec       q    Type
REMARK                         _______ _______ _______ _____ _____    ______ ____
ROOT
ATOM      1  N   UNL     1       0.887   4.881  -0.242  0.00  0.00    -0.305 N 
ATOM      2  C   UNL     1       0.629   3.570  -0.068  0.00  0.00    +0.216 C 
ATOM      3  O   UNL     1       1.511   2.821   0.298  0.00  0.00    -0.276 OA
ATOM      4  H   UNL     1       0.071   5.574  -0.494  0.00  0.00    +0.149 HD
ENDROOT
BRANCH   1   5
ATOM      5  C   UNL     1       2.255   5.384  -0.094  0.00  0.00    +0.143 C 
BRANCH   5   6
ATOM      6  C   UNL     1       2.232   6.690   0.657  0.00  0.00    +0.129 A 
ATOM      7  N   UNL     1       1.122   7.253   1.206  0.00  0.00    -0.340 N 
ATOM      8  H   UNL     1       0.148   6.750   1.118  0.00  0.00    +0.167 HD
ATOM      9  C   UNL     1       1.514   8.436   1.802  0.00  0.00    +0.066 A 
ATOM     10  C   UNL     1       0.849   9.430   2.507  0.00  0.00    +0.028 A 
ATOM     11  C   UNL     1       1.552  10.516   2.984  0.00  0.00    +0.002 A 
ATOM     12  C   UNL     1       2.918  10.621   2.763  0.00  0.00    +0.002 A 
ATOM     13  C   UNL     1       3.589   9.652   2.072  0.00  0.00    +0.030 A 
ATOM     14  C   UNL     1       2.897   8.543   1.579  0.00  0.00    +0.089 A 
ATOM     15  N   UNL     1       3.271   7.441   0.879  0.00  0.00    -0.231 NA
ENDBRANCH   5   6
BRANCH   5  16
ATOM     16  C   UNL     1       2.870   5.602  -1.478  0.00  0.00    +0.065 C 
BRANCH  16  20
ATOM     17  C   UNL     1       3.269   1.844  -3.469  0.00  0.00    +0.000 A 
ATOM     18  C   UNL     1       2.161   2.635  -3.703  0.00  0.00    +0.000 A 
ATOM     19  C   UNL     1       2.031   3.852  -3.058  0.00  0.00    +0.004 A 
ATOM     20  C   UNL     1       3.011   4.276  -2.180  0.00  0.00    -0.045 A 
ATOM     21  C   UNL     1       4.122   3.487  -1.950  0.00  0.00    +0.004 A 
ATOM     22  C   UNL     1       4.249   2.268  -2.591  0.00  0.00    +0.000 A 
ENDBRANCH  16  20
ENDBRANCH   5  16
ENDBRANCH   1   5
BRANCH   2  23
ATOM     23  C   UNL     1      -0.755   3.033  -0.329  0.00  0.00    +0.123 C 
BRANCH  23  24
ATOM     24  C   UNL     1      -0.811   1.555   0.064  0.00  0.00    +0.116 C 
BRANCH  24  25
ATOM     25  C   UNL     1      -2.229   1.058  -0.053  0.00  0.00    +0.008 A 
ATOM     26  C   UNL     1      -2.650   0.433  -1.211  0.00  0.00    +0.008 A 
ATOM     27  C   UNL     1      -3.950  -0.024  -1.318  0.00  0.00    +0.000 A 
ATOM     28  C   UNL     1      -4.831   0.145  -0.266  0.00  0.00    +0.003 A 
ATOM     29  C   UNL     1      -4.413   0.770   0.893  0.00  0.00    +0.039 A 
ATOM     30  C   UNL     1      -3.109   1.223   1.003  0.00  0.00    +0.128 A 
ATOM     31  F   UNL     1      -2.698   1.829   2.138  0.00  0.00    -0.205 F 
ENDBRANCH  24  25
BRANCH  24  32
ATOM     32  N   UNL     1       0.053   0.779  -0.830  0.00  0.00    -0.292 N 
ATOM     33  C   UNL     1       0.596  -0.378  -0.404  0.00  0.00    +0.298 C 
ATOM     34  O   UNL     1       0.301  -0.823   0.689  0.00  0.00    -0.253 OA
ATOM     35  N   UNL     1       1.465  -1.044  -1.190  0.00  0.00    -0.313 N 
ATOM     36  H   UNL     1       0.259   1.142  -1.848  0.00  0.00    +0.151 HD
ATOM     37  H   UNL     1       1.908  -1.989  -0.843  0.00  0.00    +0.146 HD
ATOM     38  H   UNL     1       1.732  -0.642  -2.179  0.00  0.00    +0.146 HD
ENDBRANCH  24  32
ENDBRANCH  23  24
ENDBRANCH   2  23
TORSDOF 8
