REMARK  Name = ZINC33727761
REMARK  10 active torsions:
REMARK  status: ('A' for Active; 'I' for Inactive)
REMARK    1  A    between atoms: C_1  and  C_2
REMARK    2  A    between atoms: C_2  and  C_3
REMARK    3  A    between atoms: C_3  and  C_4
REMARK    4  A    between atoms: C_4  and  C_5
REMARK    5  A    between atoms: C_8  and  N_11
REMARK    6  A    between atoms: C_17  and  C_31
REMARK    7  A    between atoms: C_17  and  C_32
REMARK    8  A    between atoms: C_22  and  C_25
REMARK    9  A    between atoms: N_28  and  C_29
REMARK   10  A    between atoms: C_29  and  C_30
REMARK                            x       y       z     vdW  Elec       q    Type
REMARK                         _______ _______ _______ _____ _____    ______ ____
ROOT
ATOM      1  N   UNL     1      -5.942  -4.697  -0.130  0.00  0.00    -0.240 NA
ATOM      2  C   UNL     1      -6.879  -4.157  -0.904  0.00  0.00    +0.117 A 
ATOM      3  C   UNL     1      -6.694  -3.079  -1.819  0.00  0.00    +0.029 A 
ATOM      4  C   UNL     1      -7.657  -2.550  -2.637  0.00  0.00    +0.030 A 
ATOM      5  S   UNL     1      -9.162  -3.270  -2.430  0.00  0.00    -0.052 S 
ATOM      6  S   UNL     1      -8.592  -4.659  -0.990  0.00  0.00    -0.032 S 
ATOM      7  C   UNL     1      -7.394  -1.444  -3.640  0.00  0.00    +0.070 C 
ATOM      8  N   UNL     1      -6.269  -0.630  -3.167  0.00  0.00    -0.245 N 
ATOM      9  C   UNL     1      -5.155  -1.262  -2.600  0.00  0.00    +0.046 A 
ATOM     10  C   UNL     1      -5.314  -2.466  -1.913  0.00  0.00    +0.007 A 
ATOM     11  C   UNL     1      -4.230  -3.098  -1.326  0.00  0.00    +0.013 A 
ATOM     12  C   UNL     1      -2.974  -2.526  -1.437  0.00  0.00    -0.050 A 
ATOM     13  C   UNL     1      -2.809  -1.338  -2.127  0.00  0.00    +0.005 A 
ATOM     14  C   UNL     1      -3.892  -0.703  -2.710  0.00  0.00    +0.024 A 
ATOM     15  C   UNL     1      -1.783  -3.198  -0.803  0.00  0.00    +0.044 C 
ATOM     16  C   UNL     1      -6.306   0.713  -3.277  0.00  0.00    +0.307 C 
ATOM     17  O   UNL     1      -7.242   1.251  -3.837  0.00  0.00    -0.252 OA
ATOM     18  N   UNL     1      -5.307   1.459  -2.766  0.00  0.00    -0.299 N 
ATOM     19  C   UNL     1      -7.048  -2.057  -4.998  0.00  0.00    +0.037 C 
ATOM     20  C   UNL     1      -8.641  -0.568  -3.774  0.00  0.00    +0.037 C 
ATOM     21  H   UNL     1      -4.547   1.029  -2.345  0.00  0.00    +0.150 HD
ENDROOT
BRANCH   1  25
ATOM     22  C   UNL     1      -3.687  -2.293   2.365  0.00  0.00    -0.047 A 
ATOM     23  C   UNL     1      -3.365  -3.632   2.223  0.00  0.00    +0.006 A 
ATOM     24  C   UNL     1      -4.113  -4.440   1.393  0.00  0.00    +0.028 A 
ATOM     25  C   UNL     1      -5.199  -3.904   0.693  0.00  0.00    +0.065 A 
ATOM     26  C   UNL     1      -5.517  -2.550   0.842  0.00  0.00    +0.028 A 
ATOM     27  C   UNL     1      -4.763  -1.756   1.680  0.00  0.00    +0.006 A 
BRANCH  22  28
ATOM     28  C   UNL     1      -2.865  -1.417   3.275  0.00  0.00    +0.035 C 
BRANCH  28  29
ATOM     29  C   UNL     1      -3.378  -1.548   4.710  0.00  0.00    +0.004 C 
BRANCH  29  31
ATOM     30  C   UNL     1      -2.982  -0.889   7.087  0.00  0.00    +0.004 C 
ATOM     31  C   UNL     1      -2.468  -0.757   5.652  0.00  0.00    -0.003 C 
ENDBRANCH  29  31
ENDBRANCH  28  29
ENDBRANCH  22  28
ENDBRANCH   1  25
BRANCH  18  32
ATOM     32  C   UNL     1      -5.369   2.921  -2.848  0.00  0.00    +0.102 C 
ATOM     33  C   UNL     1      -4.120   3.521  -2.199  0.00  0.00    +0.024 C 
ENDBRANCH  18  32
TORSDOF 5
