REMARK  Name = ZINC13277458
REMARK  11 active torsions:
REMARK  status: ('A' for Active; 'I' for Inactive)
REMARK    1  A    between atoms: C_1  and  C_2
REMARK    2  A    between atoms: C_5  and  C_33
REMARK    3  A    between atoms: C_7  and  N_8
REMARK    4  A    between atoms: C_9  and  C_21
REMARK    5  A    between atoms: C_11  and  C_16
REMARK    6  A    between atoms: C_16  and  C_18
REMARK    7  A    between atoms: C_24  and  O_29
REMARK    8  A    between atoms: C_25  and  O_27
REMARK    9  A    between atoms: O_27  and  C_28
REMARK   10  A    between atoms: O_29  and  C_30
REMARK   11  A    between atoms: C_30  and  C_31
REMARK                            x       y       z     vdW  Elec       q    Type
REMARK                         _______ _______ _______ _____ _____    ______ ____
ROOT
ATOM      1  N   UNL     1      -0.330  -0.291   2.327  0.00  0.00    -0.253 N 
ATOM      2  C   UNL     1      -1.419   0.206   3.176  0.00  0.00    +0.149 C 
ATOM      3  C   UNL     1      -0.774   1.099   4.211  0.00  0.00    +0.072 C 
ATOM      4  C   UNL     1       0.558   1.094   3.955  0.00  0.00    +0.249 C 
ATOM      5  C   UNL     1       0.824   0.225   2.788  0.00  0.00    +0.292 C 
ATOM      6  O   UNL     1       1.922   0.011   2.314  0.00  0.00    -0.266 OA
ATOM      7  O   UNL     1       1.493   1.772   4.656  0.00  0.00    -0.282 OA
ENDROOT
BRANCH   1  14
ATOM      8  C   UNL     1      -0.430  -3.084   2.835  0.00  0.00    +0.045 C 
ATOM      9  C   UNL     1      -0.520  -2.527   1.438  0.00  0.00    -0.029 A 
ATOM     10  C   UNL     1      -0.661  -3.385   0.362  0.00  0.00    +0.006 A 
ATOM     11  C   UNL     1      -0.744  -2.883  -0.920  0.00  0.00    +0.015 A 
ATOM     12  C   UNL     1      -0.687  -1.503  -1.135  0.00  0.00    +0.065 A 
ATOM     13  C   UNL     1      -0.544  -0.637  -0.049  0.00  0.00    +0.039 A 
ATOM     14  C   UNL     1      -0.467  -1.153   1.236  0.00  0.00    +0.041 A 
BRANCH  12  15
ATOM     15  C   UNL     1      -0.775  -0.963  -2.506  0.00  0.00    +0.387 C 
ATOM     16  O   UNL     1      -0.900  -1.723  -3.456  0.00  0.00    -0.241 OA
ATOM     17  O   UNL     1      -0.725   0.245  -2.692  0.00  0.00    -0.241 OA
ENDBRANCH  12  15
ENDBRANCH   1  14
BRANCH   2  18
ATOM     18  C   UNL     1      -2.401   0.996   2.349  0.00  0.00    -0.018 A 
ATOM     19  C   UNL     1      -1.945   1.965   1.476  0.00  0.00    +0.009 A 
ATOM     20  C   UNL     1      -2.842   2.692   0.716  0.00  0.00    +0.050 A 
ATOM     21  C   UNL     1      -4.202   2.449   0.827  0.00  0.00    +0.162 A 
ATOM     22  C   UNL     1      -4.661   1.472   1.706  0.00  0.00    +0.162 A 
ATOM     23  C   UNL     1      -3.756   0.744   2.462  0.00  0.00    +0.055 A 
BRANCH  22  24
ATOM     24  O   UNL     1      -5.994   1.230   1.819  0.00  0.00    -0.491 OA
ATOM     25  C   UNL     1      -6.393   0.213   2.741  0.00  0.00    +0.277 C 
ENDBRANCH  22  24
BRANCH  21  26
ATOM     26  O   UNL     1      -5.085   3.163   0.080  0.00  0.00    -0.484 OA
BRANCH  26  27
ATOM     27  C   UNL     1      -4.543   4.150  -0.800  0.00  0.00    +0.256 C 
BRANCH  27  28
ATOM     28  C   UNL     1      -5.663   4.834  -1.539  0.00  0.00    +0.006 C 
ATOM     29  C   UNL     1      -5.666   6.139  -1.662  0.00  0.00    +0.007 C 
ENDBRANCH  27  28
ENDBRANCH  26  27
ENDBRANCH  21  26
ENDBRANCH   2  18
BRANCH   3  30
ATOM     30  C   UNL     1      -1.432   1.802   5.246  0.00  0.00    +0.168 C 
ATOM     31  O   UNL     1      -0.792   2.489   6.016  0.00  0.00    -0.292 OA
BRANCH  30  32
ATOM     32  C   UNL     1      -2.929   1.700   5.394  0.00  0.00    +0.060 C 
ATOM     33  C   UNL     1      -3.701   2.991   5.670  0.00  0.00    +0.012 C 
ATOM     34  C   UNL     1      -3.520   1.956   6.782  0.00  0.00    +0.012 C 
ENDBRANCH  30  32
ENDBRANCH   3  30
TORSDOF 9
