REMARK  Name = ZINC08672730
REMARK  3 active torsions:
REMARK  status: ('A' for Active; 'I' for Inactive)
REMARK    1  A    between atoms: N_21  and  C_22
REMARK    2  A    between atoms: C_22  and  C_23
REMARK    3  A    between atoms: C_23  and  O_24
REMARK                            x       y       z     vdW  Elec       q    Type
REMARK                         _______ _______ _______ _____ _____    ______ ____
ROOT
ATOM      1  C   UNL     1      -0.017   1.379   0.010  0.00  0.00    +0.000 A 
ATOM      2  C   UNL     1       1.168   2.095   0.002  0.00  0.00    +0.001 A 
ATOM      3  C   UNL     1       2.377   1.430  -0.024  0.00  0.00    +0.010 A 
ATOM      4  C   UNL     1       2.401   0.038  -0.048  0.00  0.00    +0.004 A 
ATOM      5  C   UNL     1       1.205  -0.680  -0.016  0.00  0.00    -0.037 A 
ATOM      6  C   UNL     1       0.002  -0.004   0.002  0.00  0.00    +0.004 A 
ATOM      7  C   UNL     1       1.230  -2.184   0.028  0.00  0.00    +0.047 C 
ATOM      8  C   UNL     1       2.393  -2.727  -0.796  0.00  0.00    +0.007 C 
ATOM      9  C   UNL     1       2.529  -4.244  -0.563  0.00  0.00    +0.012 C 
ATOM     10  C   UNL     1       1.740  -4.880  -1.735  0.00  0.00    +0.001 C 
ATOM     11  C   UNL     1       2.076  -3.942  -2.922  0.00  0.00    +0.001 C 
ATOM     12  C   UNL     1       2.104  -2.533  -2.294  0.00  0.00    +0.012 C 
ATOM     13  C   UNL     1       3.679  -2.042  -0.432  0.00  0.00    +0.049 A 
ATOM     14  C   UNL     1       3.683  -0.700  -0.088  0.00  0.00    +0.084 A 
ATOM     15  N   UNL     1       4.838  -0.091   0.205  0.00  0.00    -0.216 NA
ATOM     16  C   UNL     1       5.975  -0.755   0.196  0.00  0.00    +0.196 A 
ATOM     17  N   UNL     1       6.023  -2.080  -0.111  0.00  0.00    -0.295 N 
ATOM     18  H   UNL     1       6.872  -2.549  -0.098  0.00  0.00    +0.172 HD
ATOM     19  C   UNL     1       4.892  -2.744  -0.435  0.00  0.00    +0.257 A 
ATOM     20  O   UNL     1       4.926  -3.929  -0.724  0.00  0.00    -0.267 OA
ATOM     21  N   UNL     1       7.137  -0.098   0.504  0.00  0.00    -0.313 N 
ATOM     22  H   UNL     1       7.981  -0.576   0.501  0.00  0.00    +0.149 HD
ENDROOT
BRANCH  21  23
ATOM     23  C   UNL     1       7.105   1.328   0.837  0.00  0.00    +0.132 C 
BRANCH  23  24
ATOM     24  C   UNL     1       8.524   1.814   1.138  0.00  0.00    +0.174 C 
BRANCH  24  25
ATOM     25  O   UNL     1       9.320   1.720  -0.045  0.00  0.00    -0.393 OA
ATOM     26  H   UNL     1      10.235   2.012   0.072  0.00  0.00    +0.209 HD
ENDBRANCH  24  25
ENDBRANCH  23  24
ENDBRANCH  21  23
TORSDOF 3
