REMARK  Name = ZINC40111361
REMARK  9 active torsions:
REMARK  status: ('A' for Active; 'I' for Inactive)
REMARK    1  A    between atoms: C_3  and  N_35
REMARK    2  A    between atoms: C_6  and  C_7
REMARK    3  A    between atoms: C_9  and  C_18
REMARK    4  A    between atoms: N_13  and  C_14
REMARK    5  A    between atoms: C_14  and  C_15
REMARK    6  A    between atoms: C_15  and  O_16
REMARK    7  A    between atoms: C_18  and  C_20
REMARK    8  A    between atoms: C_23  and  S_26
REMARK    9  A    between atoms: S_26  and  N_29
REMARK                            x       y       z     vdW  Elec       q    Type
REMARK                         _______ _______ _______ _____ _____    ______ ____
ROOT
ATOM      1  C   UNL     1      -0.315  -1.348   0.541  0.00  0.00    +0.145 C 
ATOM      2  C   UNL     1      -1.582  -1.423   1.362  0.00  0.00    +0.076 C 
ATOM      3  C   UNL     1      -2.423  -2.257   0.706  0.00  0.00    +0.249 C 
ATOM      4  C   UNL     1      -1.764  -2.742  -0.525  0.00  0.00    +0.288 C 
ATOM      5  O   UNL     1      -2.261  -3.505  -1.329  0.00  0.00    -0.266 OA
ATOM      6  N   UNL     1      -0.530  -2.212  -0.625  0.00  0.00    -0.281 N 
ATOM      7  O   UNL     1      -3.669  -2.592   1.112  0.00  0.00    -0.282 OA
ENDROOT
BRANCH   1  13
ATOM      8  C   UNL     1       1.846  -0.970   1.746  0.00  0.00    +0.008 A 
ATOM      9  C   UNL     1       2.920  -1.429   2.486  0.00  0.00    +0.033 A 
ATOM     10  C   UNL     1       3.002  -2.766   2.829  0.00  0.00    +0.126 A 
ATOM     11  C   UNL     1       2.011  -3.643   2.432  0.00  0.00    +0.033 A 
ATOM     12  C   UNL     1       0.937  -3.184   1.692  0.00  0.00    +0.008 A 
ATOM     13  C   UNL     1       0.855  -1.848   1.348  0.00  0.00    -0.022 A 
BRANCH  10  14
ATOM     14  N   UNL     1       4.152  -3.257   3.620  0.00  0.00    +0.056 N 
ATOM     15  O   UNL     1       5.019  -2.490   3.967  0.00  0.00    -0.126 OA
ATOM     16  O   UNL     1       4.224  -4.426   3.920  0.00  0.00    -0.126 OA
ENDBRANCH  10  14
ENDBRANCH   1  13
BRANCH   2  17
ATOM     17  C   UNL     1      -1.849  -0.728   2.624  0.00  0.00    +0.195 C 
ATOM     18  O   UNL     1      -1.989  -1.365   3.651  0.00  0.00    -0.287 OA
BRANCH  17  19
ATOM     19  C   UNL     1      -1.946   0.747   2.650  0.00  0.00    +0.022 A 
ATOM     20  C   UNL     1      -1.906   1.474   1.458  0.00  0.00    +0.013 A 
ATOM     21  C   UNL     1      -1.998   2.849   1.489  0.00  0.00    +0.029 A 
ATOM     22  C   UNL     1      -2.129   3.510   2.698  0.00  0.00    +0.106 A 
ATOM     23  C   UNL     1      -2.170   2.796   3.883  0.00  0.00    +0.029 A 
ATOM     24  C   UNL     1      -2.084   1.420   3.866  0.00  0.00    +0.013 A 
BRANCH  22  25
ATOM     25  S   UNL     1      -2.245   5.268   2.729  0.00  0.00    +0.061 S 
ATOM     26  O   UNL     1      -1.813   5.681   4.018  0.00  0.00    -0.153 OA
ATOM     27  O   UNL     1      -1.635   5.736   1.534  0.00  0.00    -0.153 OA
BRANCH  25  28
ATOM     28  N   UNL     1      -3.852   5.655   2.622  0.00  0.00    -0.172 NA
ATOM     29  C   UNL     1      -4.498   5.854   1.315  0.00  0.00    +0.137 C 
ATOM     30  C   UNL     1      -5.773   5.003   1.272  0.00  0.00    +0.177 C 
ATOM     31  O   UNL     1      -6.569   5.290   2.424  0.00  0.00    -0.377 OA
ATOM     32  C   UNL     1      -5.942   4.961   3.666  0.00  0.00    +0.177 C 
ATOM     33  C   UNL     1      -4.677   5.804   3.831  0.00  0.00    +0.137 C 
ENDBRANCH  25  28
ENDBRANCH  22  25
ENDBRANCH  17  19
ENDBRANCH   2  17
BRANCH   6  34
ATOM     34  C   UNL     1       0.429  -2.454  -1.706  0.00  0.00    +0.137 C 
BRANCH  34  35
ATOM     35  C   UNL     1       1.303  -3.659  -1.352  0.00  0.00    +0.175 C 
BRANCH  35  36
ATOM     36  O   UNL     1       0.493  -4.835  -1.295  0.00  0.00    -0.393 OA
ATOM     37  H   UNL     1       0.982  -5.639  -1.075  0.00  0.00    +0.209 HD
ENDBRANCH  35  36
ENDBRANCH  34  35
ENDBRANCH   6  34
TORSDOF 9
