REMARK  Name = ZINC35484278
REMARK  16 active torsions:
REMARK  status: ('A' for Active; 'I' for Inactive)
REMARK    1  A    between atoms: C_1  and  C_2
REMARK    2  A    between atoms: C_2  and  O_3
REMARK    3  A    between atoms: O_3  and  C_4
REMARK    4  A    between atoms: C_7  and  C_13
REMARK    5  A    between atoms: C_9  and  O_10
REMARK    6  A    between atoms: O_10  and  C_11
REMARK    7  A    between atoms: C_11  and  C_12
REMARK    8  A    between atoms: C_15  and  C_16
REMARK    9  A    between atoms: C_16  and  C_17
REMARK   10  A    between atoms: C_18  and  C_27
REMARK   11  A    between atoms: C_23  and  C_26
REMARK   12  A    between atoms: N_33  and  C_34
REMARK   13  A    between atoms: C_34  and  C_35
REMARK   14  A    between atoms: C_35  and  C_36
REMARK   15  A    between atoms: C_36  and  O_37
REMARK   16  A    between atoms: O_37  and  C_38
REMARK                            x       y       z     vdW  Elec       q    Type
REMARK                         _______ _______ _______ _____ _____    ______ ____
ROOT
ATOM      1  C   UNL     1      -2.143  -5.799  -0.026  0.00  0.00    +0.145 C 
ATOM      2  C   UNL     1      -1.861  -6.411   1.326  0.00  0.00    +0.078 C 
ATOM      3  C   UNL     1      -0.929  -7.373   1.133  0.00  0.00    +0.249 C 
ATOM      4  O   UNL     1      -0.403  -8.161   2.100  0.00  0.00    -0.282 OA
ATOM      5  C   UNL     1      -0.577  -7.427  -0.301  0.00  0.00    +0.288 C 
ATOM      6  O   UNL     1       0.233  -8.189  -0.792  0.00  0.00    -0.266 OA
ATOM      7  N   UNL     1      -1.284  -6.508  -0.983  0.00  0.00    -0.283 N 
ENDROOT
BRANCH   1  11
ATOM      8  C   UNL     1      -1.167  -1.636   0.013  0.00  0.00    +0.162 A 
ATOM      9  C   UNL     1      -0.160  -2.587   0.044  0.00  0.00    +0.050 A 
ATOM     10  C   UNL     1      -0.478  -3.932   0.031  0.00  0.00    +0.009 A 
ATOM     11  C   UNL     1      -1.801  -4.332  -0.012  0.00  0.00    -0.019 A 
ATOM     12  C   UNL     1      -2.811  -3.388  -0.043  0.00  0.00    +0.055 A 
ATOM     13  C   UNL     1      -2.499  -2.038  -0.024  0.00  0.00    +0.162 A 
BRANCH   8  14
ATOM     14  O   UNL     1      -0.856  -0.312   0.026  0.00  0.00    -0.489 OA
BRANCH  14  16
ATOM     15  C   UNL     1       0.685   1.550   0.074  0.00  0.00    +0.048 C 
ATOM     16  C   UNL     1       0.532   0.028   0.065  0.00  0.00    +0.226 C 
ENDBRANCH  14  16
ENDBRANCH   8  14
BRANCH  13  17
ATOM     17  O   UNL     1      -3.491  -1.109  -0.048  0.00  0.00    -0.489 OA
BRANCH  17  18
ATOM     18  C   UNL     1      -4.834  -1.592   0.021  0.00  0.00    +0.226 C 
ATOM     19  C   UNL     1      -5.806  -0.421  -0.135  0.00  0.00    +0.048 C 
ENDBRANCH  17  18
ENDBRANCH  13  17
ENDBRANCH   1  11
BRANCH   2  20
ATOM     20  C   UNL     1      -2.478  -6.035   2.602  0.00  0.00    +0.215 C 
ATOM     21  O   UNL     1      -3.424  -5.270   2.618  0.00  0.00    -0.285 OA
BRANCH  20  22
ATOM     22  C   UNL     1      -1.953  -6.586   3.867  0.00  0.00    +0.133 A 
ATOM     23  C   UNL     1      -2.518  -6.432   5.114  0.00  0.00    +0.051 A 
ATOM     24  N   UNL     1      -1.718  -7.095   5.995  0.00  0.00    -0.303 N 
ATOM     25  C   UNL     1      -1.794  -7.274   7.348  0.00  0.00    +0.093 A 
ATOM     26  C   UNL     1      -0.855  -7.988   8.001  0.00  0.00    +0.018 A 
ATOM     27  C   UNL     1       0.218  -8.560   7.297  0.00  0.00    +0.008 A 
ATOM     28  C   UNL     1       0.308  -8.392   5.951  0.00  0.00    -0.008 A 
ATOM     29  C   UNL     1      -0.682  -7.642   5.280  0.00  0.00    +0.141 A 
ATOM     30  N   UNL     1      -0.841  -7.331   4.004  0.00  0.00    -0.224 NA
ATOM     31  C   UNL     1       1.453  -9.000   5.183  0.00  0.00    +0.047 C 
ATOM     32  C   UNL     1      -3.779  -5.674   5.441  0.00  0.00    +0.066 C 
ENDBRANCH  20  22
ENDBRANCH   2  20
BRANCH   7  33
ATOM     33  C   UNL     1      -1.211  -6.259  -2.424  0.00  0.00    +0.111 C 
BRANCH  33  34
ATOM     34  C   UNL     1      -0.139  -5.203  -2.705  0.00  0.00    +0.047 C 
BRANCH  34  35
ATOM     35  C   UNL     1      -0.062  -4.943  -4.211  0.00  0.00    +0.161 C 
BRANCH  35  36
ATOM     36  O   UNL     1       0.938  -3.957  -4.473  0.00  0.00    -0.383 OA
ATOM     37  C   UNL     1       1.091  -3.639  -5.858  0.00  0.00    +0.193 C 
ENDBRANCH  35  36
ENDBRANCH  34  35
ENDBRANCH  33  34
ENDBRANCH   7  33
TORSDOF 11
