REMARK  Name = ZINC38743215
REMARK  4 active torsions:
REMARK  status: ('A' for Active; 'I' for Inactive)
REMARK    1  A    between atoms: C_4  and  C_7
REMARK    2  A    between atoms: C_9  and  C_13
REMARK    3  A    between atoms: C_19  and  C_22
REMARK    4  A    between atoms: C_24  and  C_32
REMARK                            x       y       z     vdW  Elec       q    Type
REMARK                         _______ _______ _______ _____ _____    ______ ____
ROOT
ATOM      1  C   UNL     1       5.756  -2.976  -1.313  0.00  0.00    +0.181 A 
ATOM      2  N   UNL     1       5.839  -2.467  -2.506  0.00  0.00    -0.129 NA
ATOM      3  N   UNL     1       6.218  -3.366  -3.345  0.00  0.00    -0.121 NA
ATOM      4  C   UNL     1       6.377  -4.494  -2.726  0.00  0.00    +0.211 A 
ATOM      5  N   UNL     1       6.129  -4.307  -1.390  0.00  0.00    -0.222 N 
ATOM      6  N   UNL     1       6.303  -5.349  -0.528  0.00  0.00    -0.263 N 
ATOM      7  C   UNL     1       6.263  -6.696  -1.157  0.00  0.00    +0.183 C 
ATOM      8  S   UNL     1       6.788  -6.221  -2.859  0.00  0.00    -0.056 S 
ATOM      9  H   UNL     1       7.143  -5.229   0.018  0.00  0.00    +0.168 HD
ENDROOT
BRANCH   7  10
ATOM     10  C   UNL     1       4.869  -7.268  -1.153  0.00  0.00    -0.004 A 
ATOM     11  C   UNL     1       3.789  -6.474  -0.913  0.00  0.00    +0.036 A 
ATOM     12  C   UNL     1       2.497  -7.030  -0.915  0.00  0.00    +0.079 A 
ATOM     13  N   UNL     1       2.300  -8.316  -1.147  0.00  0.00    -0.246 NA
ATOM     14  C   UNL     1       3.324  -9.140  -1.389  0.00  0.00    +0.072 A 
ATOM     15  C   UNL     1       4.649  -8.638  -1.405  0.00  0.00    +0.006 A 
ATOM     16  C   UNL     1       5.717  -9.510  -1.665  0.00  0.00    +0.010 A 
ATOM     17  C   UNL     1       5.469 -10.828  -1.905  0.00  0.00    +0.001 A 
ATOM     18  C   UNL     1       4.167 -11.323  -1.895  0.00  0.00    +0.002 A 
ATOM     19  C   UNL     1       3.108 -10.508  -1.635  0.00  0.00    +0.028 A 
BRANCH  12  20
ATOM     20  C   UNL     1       1.336  -6.158  -0.653  0.00  0.00    +0.038 A 
ATOM     21  C   UNL     1       0.005  -6.484  -0.602  0.00  0.00    +0.017 A 
ATOM     22  C   UNL     1      -0.909  -5.491  -0.337  0.00  0.00    +0.008 A 
ATOM     23  C   UNL     1      -0.468  -4.222  -0.134  0.00  0.00    +0.046 A 
ATOM     24  S   UNL     1       1.298  -4.406  -0.311  0.00  0.00    -0.095 S 
ENDBRANCH  12  20
ENDBRANCH   7  10
BRANCH   1  27
ATOM     25  C   UNL     1       3.699  -0.689  -0.037  0.00  0.00    +0.091 C 
ATOM     26  C   UNL     1       3.832  -2.029  -0.051  0.00  0.00    +0.039 C 
ATOM     27  C   UNL     1       5.335  -2.245  -0.065  0.00  0.00    +0.222 C 
ATOM     28  N   UNL     1       5.871  -0.874  -0.056  0.00  0.00    -0.171 NA
ATOM     29  N   UNL     1       4.919  -0.090  -0.047  0.00  0.00    -0.153 NA
BRANCH  25  33
ATOM     30  C   UNL     1      -0.017   1.379   0.010  0.00  0.00    +0.000 A 
ATOM     31  C   UNL     1       1.169   2.092   0.002  0.00  0.00    +0.001 A 
ATOM     32  C   UNL     1       2.377   1.426  -0.013  0.00  0.00    +0.010 A 
ATOM     33  C   UNL     1       2.402   0.033  -0.021  0.00  0.00    +0.002 A 
ATOM     34  C   UNL     1       1.205  -0.680  -0.013  0.00  0.00    +0.010 A 
ATOM     35  C   UNL     1       0.002  -0.004   0.002  0.00  0.00    +0.001 A 
ENDBRANCH  25  33
ENDBRANCH   1  27
TORSDOF 4
