REMARK  Name = ZINC54376771
REMARK  5 active torsions:
REMARK  status: ('A' for Active; 'I' for Inactive)
REMARK    1  A    between atoms: C_3  and  C_6
REMARK    2  A    between atoms: C_6  and  C_8
REMARK    3  A    between atoms: C_6  and  N_24
REMARK    4  A    between atoms: C_8  and  N_9
REMARK    5  A    between atoms: N_15  and  C_18
REMARK                            x       y       z     vdW  Elec       q    Type
REMARK                         _______ _______ _______ _____ _____    ______ ____
ROOT
ATOM      1  N   UNL     1       5.692   2.305  -1.472  0.00  0.00    -0.300 N 
ATOM      2  C   UNL     1       6.366   2.425  -2.633  0.00  0.00    +0.302 C 
ATOM      3  O   UNL     1       5.864   2.037  -3.670  0.00  0.00    -0.253 OA
ATOM      4  N   UNL     1       7.595   2.977  -2.644  0.00  0.00    -0.283 N 
ATOM      5  C   UNL     1       8.262   3.344  -1.387  0.00  0.00    +0.128 C 
ATOM      6  C   UNL     1       9.629   2.650  -1.335  0.00  0.00    +0.124 C 
ATOM      7  N   UNL     1      10.327   2.894  -2.605  0.00  0.00    -0.327 N 
ATOM      8  C   UNL     1       9.661   2.527  -3.862  0.00  0.00    +0.124 C 
ATOM      9  C   UNL     1       8.296   3.216  -3.913  0.00  0.00    +0.128 C 
ATOM     10  H   UNL     1       6.119   2.548  -0.635  0.00  0.00    +0.150 HD
ENDROOT
BRANCH   7  11
ATOM     11  C   UNL     1      11.597   3.463  -2.617  0.00  0.00    +0.033 A 
ATOM     12  C   UNL     1      12.212   3.817  -3.818  0.00  0.00    +0.040 A 
ATOM     13  C   UNL     1      13.470   4.379  -3.786  0.00  0.00    +0.084 A 
ATOM     14  N   UNL     1      14.092   4.583  -2.639  0.00  0.00    -0.367 N 
ATOM     15  C   UNL     1      13.544   4.261  -1.482  0.00  0.00    +0.084 A 
ATOM     16  C   UNL     1      12.286   3.700  -1.427  0.00  0.00    +0.040 A 
ATOM     17  H   UNL     1      14.977   4.980  -2.647  0.00  0.00    +0.165 HD
ENDBRANCH   7  11
BRANCH   1  18
ATOM     18  C   UNL     1       4.314   1.806  -1.473  0.00  0.00    +0.095 C 
BRANCH  18  19
ATOM     19  C   UNL     1       3.742   1.887  -0.056  0.00  0.00    -0.013 C 
BRANCH  19  20
ATOM     20  N   UNL     1       2.394   1.301  -0.038  0.00  0.00    +0.386 N 
ATOM     21  C   UNL     1       1.799   1.464   1.305  0.00  0.00    -0.078 C 
ATOM     22  C   UNL     1       0.976   0.171   1.532  0.00  0.00    -0.020 C 
ATOM     23  C   UNL     1       1.878  -0.897   0.859  0.00  0.00    -0.020 C 
ATOM     24  C   UNL     1       2.475  -0.139  -0.345  0.00  0.00    -0.078 C 
ATOM     25  H   UNL     1       1.814   1.762  -0.723  0.00  0.00    -0.081 HD
ENDBRANCH  19  20
BRANCH  19  28
ATOM     26  C   UNL     1       4.246   5.356   1.435  0.00  0.00    +0.008 A 
ATOM     27  C   UNL     1       4.515   4.026   1.172  0.00  0.00    +0.009 A 
ATOM     28  C   UNL     1       3.668   3.329   0.375  0.00  0.00    -0.022 A 
ATOM     29  S   UNL     1       2.443   4.563  -0.030  0.00  0.00    -0.103 S 
ATOM     30  C   UNL     1       3.143   5.924   0.889  0.00  0.00    +0.045 A 
ENDBRANCH  19  28
ENDBRANCH  18  19
ENDBRANCH   1  18
TORSDOF 5
