REMARK  Name = ZINC15350651
REMARK  7 active torsions:
REMARK  status: ('A' for Active; 'I' for Inactive)
REMARK    1  A    between atoms: C_1  and  C_2
REMARK    2  A    between atoms: C_2  and  O_3
REMARK    3  A    between atoms: O_3  and  C_4
REMARK    4  A    between atoms: C_4  and  C_6
REMARK    5  A    between atoms: C_12  and  C_13
REMARK    6  A    between atoms: C_12  and  N_43
REMARK    7  A    between atoms: N_15  and  C_16
REMARK                            x       y       z     vdW  Elec       q    Type
REMARK                         _______ _______ _______ _____ _____    ______ ____
ROOT
ATOM      1  C   UNL     1       0.683   1.038  -1.145  0.00  0.00    +0.201 C 
ATOM      2  O   UNL     1       0.143   1.438  -2.155  0.00  0.00    -0.278 OA
ATOM      3  N   UNL     1      -0.011   0.966   0.007  0.00  0.00    -0.285 N 
ATOM      4  H   UNL     1       0.399   0.579   0.797  0.00  0.00    +0.155 HD
ENDROOT
BRANCH   3   5
ATOM      5  C   UNL     1      -1.326   1.445   0.064  0.00  0.00    +0.073 A 
ATOM      6  C   UNL     1      -1.569   2.776   0.376  0.00  0.00    +0.082 A 
ATOM      7  C   UNL     1      -2.868   3.248   0.426  0.00  0.00    +0.063 A 
ATOM      8  C   UNL     1      -3.926   2.392   0.177  0.00  0.00    +0.043 A 
ATOM      9  C   UNL     1      -3.688   1.063  -0.128  0.00  0.00    +0.063 A 
ATOM     10  C   UNL     1      -2.390   0.587  -0.186  0.00  0.00    +0.082 A 
ATOM     11 CL   UNL     1      -2.092  -1.079  -0.570  0.00  0.00    -0.080 Cl
ATOM     12 CL   UNL     1      -5.018  -0.007  -0.441  0.00  0.00    -0.082 Cl
ATOM     13 CL   UNL     1      -3.172   4.913   0.809  0.00  0.00    -0.082 Cl
ATOM     14 CL   UNL     1      -0.242   3.850   0.695  0.00  0.00    -0.080 Cl
ENDBRANCH   3   5
BRANCH   1  15
ATOM     15  C   UNL     1       2.131   0.623  -1.180  0.00  0.00    +0.019 C 
BRANCH  15  21
ATOM     16  C   UNL     1       2.543   0.093  -4.886  0.00  0.00    +0.081 C 
ATOM     17  C   UNL     1       2.606   1.559  -5.325  0.00  0.00    +0.011 C 
ATOM     18  C   UNL     1       3.378   2.365  -4.277  0.00  0.00    -0.018 C 
ATOM     19  C   UNL     1       2.692   2.213  -2.917  0.00  0.00    -0.078 C 
ATOM     20  C   UNL     1       1.882   0.007  -3.508  0.00  0.00    -0.064 C 
ATOM     21  N   UNL     1       2.686   0.783  -2.540  0.00  0.00    +0.386 N 
ATOM     22  H   UNL     1       3.650   0.432  -2.551  0.00  0.00    -0.081 HD
BRANCH  16  23
ATOM     23  C   UNL     1       1.735  -0.697  -5.882  0.00  0.00    +0.308 C 
ATOM     24  O   UNL     1       0.734  -1.273  -5.527  0.00  0.00    -0.251 OA
BRANCH  23  25
ATOM     25  O   UNL     1       2.126  -0.760  -7.165  0.00  0.00    -0.465 OA
BRANCH  25  27
ATOM     26  C   UNL     1       1.900  -1.494  -9.475  0.00  0.00    +0.048 C 
ATOM     27  C   UNL     1       1.299  -1.539  -8.069  0.00  0.00    +0.229 C 
ENDBRANCH  25  27
ENDBRANCH  23  25
ENDBRANCH  16  23
ENDBRANCH  15  21
ENDBRANCH   1  15
TORSDOF 6
