REMARK  Name = ZINC22017533
REMARK  6 active torsions:
REMARK  status: ('A' for Active; 'I' for Inactive)
REMARK    1  A    between atoms: C_1  and  O_2
REMARK    2  A    between atoms: O_2  and  C_3
REMARK    3  A    between atoms: C_6  and  C_11
REMARK    4  A    between atoms: C_8  and  O_9
REMARK    5  A    between atoms: O_9  and  C_10
REMARK    6  A    between atoms: N_29  and  C_32
REMARK                            x       y       z     vdW  Elec       q    Type
REMARK                         _______ _______ _______ _____ _____    ______ ____
ROOT
ATOM      1  C   UNL     1      -1.118   7.126   1.853  0.00  0.00    +0.153 C 
ATOM      2  C   UNL     1       0.152   7.677   2.470  0.00  0.00    +0.046 A 
ATOM      3  C   UNL     1       0.862   8.695   1.933  0.00  0.00    -0.015 A 
ATOM      4  C   UNL     1       1.991   8.926   2.816  0.00  0.00    +0.003 A 
ATOM      5  C   UNL     1       3.047   9.841   2.778  0.00  0.00    +0.010 A 
ATOM      6  C   UNL     1       3.961   9.776   3.801  0.00  0.00    +0.001 A 
ATOM      7  C   UNL     1       3.853   8.850   4.826  0.00  0.00    +0.002 A 
ATOM      8  C   UNL     1       2.817   7.934   4.888  0.00  0.00    +0.026 A 
ATOM      9  C   UNL     1       1.874   7.978   3.863  0.00  0.00    +0.047 A 
ATOM     10  N   UNL     1       0.752   7.240   3.619  0.00  0.00    -0.356 N 
ATOM     11  H   UNL     1       0.311   6.408   4.187  0.00  0.00    +0.166 HD
ATOM     12  C   UNL     1       0.526   9.433   0.662  0.00  0.00    +0.069 C 
ATOM     13  C   UNL     1      -0.950   9.208   0.316  0.00  0.00    +0.167 C 
ATOM     14  N   UNL     1      -1.260   7.779   0.546  0.00  0.00    -0.288 N 
ATOM     15  C   UNL     1      -1.654   7.266  -0.621  0.00  0.00    +0.144 C 
ATOM     16  S   UNL     1      -2.194   5.654  -0.822  0.00  0.00    -0.018 S 
ATOM     17  N   UNL     1      -1.577   8.159  -1.618  0.00  0.00    -0.249 N 
ATOM     18  C   UNL     1      -1.152   9.362  -1.177  0.00  0.00    +0.242 C 
ATOM     19  O   UNL     1      -0.970  10.360  -1.841  0.00  0.00    -0.273 OA
ENDROOT
BRANCH   1  23
ATOM     20  C   UNL     1      -0.786   2.893   1.348  0.00  0.00    +0.162 A 
ATOM     21  C   UNL     1       0.097   3.742   0.700  0.00  0.00    +0.050 A 
ATOM     22  C   UNL     1      -0.016   5.110   0.862  0.00  0.00    +0.009 A 
ATOM     23  C   UNL     1      -1.003   5.634   1.677  0.00  0.00    -0.018 A 
ATOM     24  C   UNL     1      -1.883   4.792   2.330  0.00  0.00    +0.055 A 
ATOM     25  C   UNL     1      -1.778   3.420   2.168  0.00  0.00    +0.162 A 
BRANCH  20  27
ATOM     26  C   UNL     1       0.364   1.077   0.329  0.00  0.00    +0.277 C 
ATOM     27  O   UNL     1      -0.679   1.547   1.186  0.00  0.00    -0.491 OA
ENDBRANCH  20  27
BRANCH  25  28
ATOM     28  O   UNL     1      -2.644   2.590   2.810  0.00  0.00    -0.491 OA
ATOM     29  C   UNL     1      -3.637   3.201   3.636  0.00  0.00    +0.277 C 
ENDBRANCH  25  28
ENDBRANCH   1  23
BRANCH  17  30
ATOM     30  C   UNL     1      -1.912   7.866  -3.013  0.00  0.00    +0.083 C 
ATOM     31  C   UNL     1      -3.374   7.424  -3.104  0.00  0.00    +0.023 C 
ATOM     32  C   UNL     1      -3.724   7.117  -4.562  0.00  0.00    +0.002 C 
ATOM     33  C   UNL     1      -2.819   5.997  -5.079  0.00  0.00    +0.000 C 
ATOM     34  C   UNL     1      -1.357   6.439  -4.988  0.00  0.00    +0.002 C 
ATOM     35  C   UNL     1      -1.007   6.745  -3.530  0.00  0.00    +0.023 C 
ENDBRANCH  17  30
TORSDOF 4
