REMARK  Name = ZINC63540911
REMARK  7 active torsions:
REMARK  status: ('A' for Active; 'I' for Inactive)
REMARK    1  A    between atoms: C_1  and  S_2
REMARK    2  A    between atoms: S_2  and  C_3
REMARK    3  A    between atoms: C_6  and  C_9
REMARK    4  A    between atoms: N_10  and  N_11
REMARK    5  A    between atoms: C_12  and  C_14
REMARK    6  A    between atoms: C_14  and  S_15
REMARK    7  A    between atoms: S_15  and  C_16
REMARK                            x       y       z     vdW  Elec       q    Type
REMARK                         _______ _______ _______ _____ _____    ______ ____
ROOT
ATOM      1  N   UNL     1       3.885  -3.027   6.481  0.00  0.00    -0.206 N 
ATOM      2  C   UNL     1       4.096  -4.322   6.790  0.00  0.00    +0.242 C 
ATOM      3  O   UNL     1       3.683  -5.196   6.058  0.00  0.00    -0.273 OA
ATOM      4  H   UNL     1       4.215  -2.328   7.066  0.00  0.00    +0.177 HD
ENDROOT
BRANCH   1   6
ATOM      5  C   UNL     1       2.985  -1.445   5.013  0.00  0.00    +0.138 C 
ATOM      6  N   UNL     1       3.189  -2.692   5.312  0.00  0.00    -0.188 NA
BRANCH   5  10
ATOM      7  C   UNL     1       0.877  -0.427   1.472  0.00  0.00    +0.008 A 
ATOM      8  C   UNL     1       1.349   0.578   2.312  0.00  0.00    +0.015 A 
ATOM      9  C   UNL     1       2.033   0.251   3.461  0.00  0.00    +0.010 A 
ATOM     10  C   UNL     1       2.253  -1.091   3.784  0.00  0.00    -0.005 A 
ATOM     11  C   UNL     1       1.777  -2.098   2.939  0.00  0.00    +0.010 A 
ATOM     12  C   UNL     1       1.089  -1.764   1.794  0.00  0.00    +0.015 A 
BRANCH   7  14
ATOM     13  C   UNL     1      -0.022   1.810   0.012  0.00  0.00    +0.090 C 
ATOM     14  S   UNL     1       0.002  -0.004   0.002  0.00  0.00    -0.129 S 
ENDBRANCH   7  14
ENDBRANCH   5  10
ENDBRANCH   1   6
BRANCH   2  15
ATOM     15  C   UNL     1       4.845  -4.683   8.047  0.00  0.00    +0.170 C 
BRANCH  15  16
ATOM     16  S   UNL     1       4.964  -6.488   8.182  0.00  0.00    -0.106 S 
BRANCH  16  17
ATOM     17  C   UNL     1       5.880  -6.753   9.726  0.00  0.00    +0.236 C 
ATOM     18  N   UNL     1       5.182  -6.105  10.843  0.00  0.00    -0.355 N 
ATOM     19  C   UNL     1       5.990  -5.215  11.344  0.00  0.00    +0.061 A 
ATOM     20  C   UNL     1       5.863  -4.265  12.458  0.00  0.00    +0.027 A 
ATOM     21  C   UNL     1       6.891  -3.445  12.753  0.00  0.00    +0.002 A 
ATOM     22  C   UNL     1       8.100  -3.456  12.034  0.00  0.00    +0.002 A 
ATOM     23  C   UNL     1       8.321  -4.287  10.996  0.00  0.00    +0.027 A 
ATOM     24  C   UNL     1       7.269  -5.226  10.583  0.00  0.00    +0.061 A 
ATOM     25  N   UNL     1       7.203  -6.123   9.641  0.00  0.00    -0.355 N 
ATOM     26  H   UNL     1       4.284  -6.303  11.152  0.00  0.00    +0.162 HD
ATOM     27  H   UNL     1       7.900  -6.335   9.001  0.00  0.00    +0.162 HD
ENDBRANCH  16  17
ENDBRANCH  15  16
ENDBRANCH   2  15
TORSDOF 6
