REMARK  Name = ZINC40317277
REMARK  16 active torsions:
REMARK  status: ('A' for Active; 'I' for Inactive)
REMARK    1  A    between atoms: C_1  and  C_2
REMARK    2  A    between atoms: C_4  and  O_9
REMARK    3  A    between atoms: O_9  and  C_10
REMARK    4  A    between atoms: C_10  and  C_11
REMARK    5  A    between atoms: C_11  and  C_13
REMARK    6  A    between atoms: C_11  and  O_36
REMARK    7  A    between atoms: C_13  and  N_14
REMARK    8  A    between atoms: N_14  and  C_15
REMARK    9  A    between atoms: N_14  and  C_28
REMARK   10  A    between atoms: C_15  and  C_16
REMARK   11  A    between atoms: C_18  and  O_26
REMARK   12  A    between atoms: C_19  and  O_24
REMARK   13  A    between atoms: C_20  and  O_22
REMARK   14  A    between atoms: O_22  and  C_23
REMARK   15  A    between atoms: O_24  and  C_25
REMARK   16  A    between atoms: O_26  and  C_27
REMARK                            x       y       z     vdW  Elec       q    Type
REMARK                         _______ _______ _______ _____ _____    ______ ____
ROOT
ATOM      1  N   UNL     1      -0.571  -6.814  -4.971  0.00  0.00    +0.387 N 
ATOM      2  H   UNL     1      -1.376  -6.523  -5.506  0.00  0.00    -0.081 HD
ENDROOT
BRANCH   1   3
ATOM      3  C   UNL     1       0.648  -6.279  -5.591  0.00  0.00    -0.045 C 
ATOM      4  C   UNL     1       0.588  -6.479  -7.114  0.00  0.00    +0.009 C 
ATOM      5  C   UNL     1       1.981  -6.218  -7.736  0.00  0.00    +0.164 C 
ATOM      6  S   UNL     1       3.124  -6.649  -6.361  0.00  0.00    -0.033 S 
ATOM      7  O   UNL     1       3.849  -5.487  -5.981  0.00  0.00    -0.174 OA
ATOM      8  O   UNL     1       3.831  -7.834  -6.703  0.00  0.00    -0.174 OA
ATOM      9  C   UNL     1       1.891  -7.043  -5.051  0.00  0.00    +0.151 C 
ENDBRANCH   1   3
BRANCH   1  10
ATOM     10  C   UNL     1      -0.686  -6.307  -3.597  0.00  0.00    -0.043 C 
BRANCH  10  11
ATOM     11  C   UNL     1      -1.028  -4.816  -3.631  0.00  0.00    +0.135 C 
BRANCH  11  12
ATOM     12  O   UNL     1       0.088  -4.083  -4.141  0.00  0.00    -0.390 OA
ATOM     13  H   UNL     1       0.912  -4.235  -3.658  0.00  0.00    +0.210 HD
ENDBRANCH  11  12
BRANCH  11  14
ATOM     14  C   UNL     1      -1.350  -4.335  -2.215  0.00  0.00    +0.258 C 
BRANCH  14  15
ATOM     15  O   UNL     1      -1.782  -2.973  -2.262  0.00  0.00    -0.489 OA
BRANCH  15  19
ATOM     16  C   UNL     1      -3.333   0.956   0.183  0.00  0.00    +0.045 C 
ATOM     17  C   UNL     1      -2.869  -0.477   0.152  0.00  0.00    -0.029 A 
ATOM     18  C   UNL     1      -2.536  -1.069  -1.051  0.00  0.00    +0.050 A 
ATOM     19  C   UNL     1      -2.109  -2.389  -1.079  0.00  0.00    +0.121 A 
ATOM     20  C   UNL     1      -2.018  -3.112   0.102  0.00  0.00    +0.047 A 
ATOM     21  C   UNL     1      -2.352  -2.516   1.302  0.00  0.00    +0.024 A 
ATOM     22  C   UNL     1      -2.772  -1.198   1.329  0.00  0.00    +0.044 A 
ATOM     23 CL   UNL     1      -3.184  -0.450   2.840  0.00  0.00    -0.083 Cl
ENDBRANCH  15  19
ENDBRANCH  14  15
ENDBRANCH  11  14
ENDBRANCH  10  11
ENDBRANCH   1  10
BRANCH   1  24
ATOM     24  C   UNL     1      -0.504  -8.282  -4.947  0.00  0.00    -0.042 C 
BRANCH  24  25
ATOM     25  C   UNL     1      -0.582  -8.811  -6.356  0.00  0.00    -0.057 A 
ATOM     26  C   UNL     1      -1.756  -8.687  -7.075  0.00  0.00    +0.051 A 
ATOM     27  C   UNL     1      -1.832  -9.173  -8.372  0.00  0.00    +0.165 A 
ATOM     28  C   UNL     1      -0.725  -9.785  -8.948  0.00  0.00    +0.204 A 
ATOM     29  C   UNL     1       0.453  -9.908  -8.222  0.00  0.00    +0.165 A 
ATOM     30  C   UNL     1       0.522  -9.414  -6.928  0.00  0.00    +0.051 A 
BRANCH  29  31
ATOM     31  O   UNL     1       1.539 -10.506  -8.781  0.00  0.00    -0.491 OA
ATOM     32  C   UNL     1       2.676 -10.704  -7.940  0.00  0.00    +0.277 C 
ENDBRANCH  29  31
BRANCH  28  33
ATOM     33  O   UNL     1      -0.796 -10.264 -10.220  0.00  0.00    -0.488 OA
ATOM     34  C   UNL     1      -0.438  -9.366 -11.272  0.00  0.00    +0.277 C 
ENDBRANCH  28  33
BRANCH  27  35
ATOM     35  O   UNL     1      -2.987  -9.051  -9.078  0.00  0.00    -0.491 OA
ATOM     36  C   UNL     1      -4.084  -8.412  -8.423  0.00  0.00    +0.277 C 
ENDBRANCH  27  35
ENDBRANCH  24  25
ENDBRANCH   1  24
TORSDOF 12
