REMARK  Name = ZINC11855707
REMARK  7 active torsions:
REMARK  status: ('A' for Active; 'I' for Inactive)
REMARK    1  A    between atoms: C_1  and  C_2
REMARK    2  A    between atoms: C_2  and  C_3
REMARK    3  A    between atoms: C_3  and  C_4
REMARK    4  A    between atoms: C_4  and  C_5
REMARK    5  A    between atoms: C_8  and  C_11
REMARK    6  A    between atoms: N_13  and  C_14
REMARK    7  A    between atoms: C_16  and  C_30
REMARK                            x       y       z     vdW  Elec       q    Type
REMARK                         _______ _______ _______ _____ _____    ______ ____
ROOT
ATOM      1  C   UNL     1       2.297   6.891   0.018  0.00  0.00    +0.132 A 
ATOM      2  C   UNL     1       2.267   5.534   0.011  0.00  0.00    +0.074 A 
ATOM      3  C   UNL     1       0.915   5.132   0.021  0.00  0.00    +0.102 A 
ATOM      4  N   UNL     1       0.164   6.215   0.028  0.00  0.00    -0.162 NA
ATOM      5  N   UNL     1       1.005   7.334   0.032  0.00  0.00    -0.185 N 
ATOM      6  C   UNL     1       0.600   8.655   0.042  0.00  0.00    +0.234 A 
ATOM      7  N   UNL     1      -0.728   8.945   0.050  0.00  0.00    -0.291 N 
ATOM      8  H   UNL     1      -1.384   8.230   0.049  0.00  0.00    +0.172 HD
ATOM      9  C   UNL     1      -1.130  10.233   0.065  0.00  0.00    +0.256 A 
ATOM     10  O   UNL     1      -2.317  10.514   0.077  0.00  0.00    -0.267 OA
ATOM     11  C   UNL     1      -0.153  11.248   0.062  0.00  0.00    +0.038 A 
ATOM     12  C   UNL     1       1.163  10.898   0.048  0.00  0.00    +0.053 A 
ATOM     13  N   UNL     1       1.505   9.607   0.039  0.00  0.00    -0.217 NA
ATOM     14  C   UNL     1       2.028  12.141   0.047  0.00  0.00    +0.056 C 
ATOM     15  C   UNL     1       1.085  13.287  -0.376  0.00  0.00    +0.011 C 
ATOM     16  C   UNL     1      -0.294  12.754   0.070  0.00  0.00    +0.043 C 
ENDROOT
BRANCH   3  17
ATOM     17  C   UNL     1       0.425   3.737   0.018  0.00  0.00    +0.039 A 
ATOM     18  C   UNL     1      -0.864   3.276   0.028  0.00  0.00    +0.018 A 
ATOM     19  C   UNL     1      -1.080   1.915   0.017  0.00  0.00    +0.008 A 
ATOM     20  C   UNL     1      -0.013   1.076   0.008  0.00  0.00    +0.046 A 
ATOM     21  S   UNL     1       1.360   2.217   0.001  0.00  0.00    -0.095 S 
ENDBRANCH   3  17
BRANCH   1  24
ATOM     22  C   UNL     1       4.660   7.116  -0.003  0.00  0.00    +0.221 C 
ATOM     23  O   UNL     1       4.764   5.908  -0.010  0.00  0.00    -0.275 OA
ATOM     24  N   UNL     1       3.440   7.688   0.012  0.00  0.00    -0.270 N 
ATOM     25  H   UNL     1       3.357   8.654   0.018  0.00  0.00    +0.156 HD
BRANCH  22  29
ATOM     26  C   UNL     1       7.117   7.101  -2.523  0.00  0.00    -0.011 C 
ATOM     27  C   UNL     1       7.123   6.210  -1.279  0.00  0.00    +0.004 C 
ATOM     28  C   UNL     1       7.140   7.087  -0.025  0.00  0.00    +0.013 C 
ATOM     29  C   UNL     1       5.896   7.978  -0.009  0.00  0.00    +0.075 C 
ATOM     30  C   UNL     1       5.891   8.868  -1.253  0.00  0.00    +0.013 C 
ATOM     31  C   UNL     1       5.874   7.992  -2.507  0.00  0.00    +0.004 C 
BRANCH  26  32
ATOM     32  C   UNL     1       7.100   6.224  -3.778  0.00  0.00    +0.003 C 
BRANCH  32  33
ATOM     33  C   UNL     1       7.220   7.109  -5.020  0.00  0.00    +0.000 C 
BRANCH  33  35
ATOM     34  C   UNL     1       7.323   7.118  -7.516  0.00  0.00    +0.004 C 
ATOM     35  C   UNL     1       7.203   6.233  -6.274  0.00  0.00    -0.003 C 
ENDBRANCH  33  35
ENDBRANCH  32  33
ENDBRANCH  26  32
ENDBRANCH  22  29
ENDBRANCH   1  24
TORSDOF 6
