REMARK  Name = ZINC35945556
REMARK  13 active torsions:
REMARK  status: ('A' for Active; 'I' for Inactive)
REMARK    1  A    between atoms: C_1  and  N_2
REMARK    2  A    between atoms: N_2  and  C_3
REMARK    3  A    between atoms: N_2  and  C_4
REMARK    4  A    between atoms: C_4  and  C_5
REMARK    5  A    between atoms: C_5  and  N_6
REMARK    6  A    between atoms: N_6  and  C_7
REMARK    7  A    between atoms: C_7  and  C_8
REMARK    8  A    between atoms: C_10  and  N_17
REMARK    9  A    between atoms: C_13  and  N_14
REMARK   10  A    between atoms: N_14  and  C_15
REMARK   11  A    between atoms: N_14  and  C_16
REMARK   12  A    between atoms: C_18  and  C_20
REMARK   13  A    between atoms: C_25  and  C_27
REMARK                            x       y       z     vdW  Elec       q    Type
REMARK                         _______ _______ _______ _____ _____    ______ ____
ROOT
ATOM      1  C   UNL     1      -3.161  -3.982  -1.538  0.00  0.00    -0.007 A 
ATOM      2  C   UNL     1      -2.333  -4.100  -2.636  0.00  0.00    +0.030 A 
ATOM      3  C   UNL     1      -2.270  -5.299  -3.334  0.00  0.00    +0.034 A 
ATOM      4  C   UNL     1      -3.041  -6.380  -2.927  0.00  0.00    +0.025 A 
ATOM      5  C   UNL     1      -3.870  -6.262  -1.830  0.00  0.00    +0.025 A 
ATOM      6  C   UNL     1      -3.928  -5.065  -1.128  0.00  0.00    +0.034 A 
ENDROOT
BRANCH   3   7
ATOM      7  N   UNL     1      -1.429  -5.418  -4.448  0.00  0.00    -0.281 N 
ATOM      8  C   UNL     1      -0.792  -6.581  -4.690  0.00  0.00    +0.255 C 
ATOM      9  O   UNL     1      -1.012  -7.552  -3.990  0.00  0.00    -0.269 OA
ATOM     10  H   UNL     1      -1.305  -4.664  -5.045  0.00  0.00    +0.155 HD
BRANCH   8  11
ATOM     11  C   UNL     1       0.165  -6.675  -5.796  0.00  0.00    +0.074 A 
ATOM     12  C   UNL     1       0.914  -7.766  -6.213  0.00  0.00    +0.021 A 
ATOM     13  C   UNL     1       1.735  -7.548  -7.293  0.00  0.00    +0.008 A 
ATOM     14  C   UNL     1       1.760  -6.318  -7.864  0.00  0.00    +0.046 A 
ATOM     15  S   UNL     1       0.665  -5.421  -6.960  0.00  0.00    -0.092 S 
ENDBRANCH   8  11
ENDBRANCH   3   7
BRANCH   6  16
ATOM     16  N   UNL     1      -4.763  -4.948  -0.012  0.00  0.00    -0.336 N 
ATOM     17  C   UNL     1      -4.229  -5.188   1.331  0.00  0.00    +0.129 C 
ATOM     18  C   UNL     1      -6.172  -4.585  -0.186  0.00  0.00    +0.129 C 
ENDBRANCH   6  16
BRANCH   1  19
ATOM     19  C   UNL     1      -3.229  -2.681  -0.781  0.00  0.00    +0.145 C 
BRANCH  19  20
ATOM     20  N   UNL     1      -2.253  -1.741  -1.338  0.00  0.00    -0.292 N 
ATOM     21  C   UNL     1      -0.974  -1.770  -0.917  0.00  0.00    +0.282 C 
ATOM     22  O   UNL     1      -0.185  -0.929  -1.307  0.00  0.00    -0.267 OA
BRANCH  21  23
ATOM     23  C   UNL     1      -0.531  -2.815   0.012  0.00  0.00    +0.189 A 
ATOM     24  C   UNL     1       0.699  -2.898   0.600  0.00  0.00    +0.054 A 
ATOM     25  C   UNL     1       0.684  -4.047   1.406  0.00  0.00    +0.042 A 
ATOM     26  C   UNL     1      -0.538  -4.608   1.276  0.00  0.00    +0.196 A 
ATOM     27  O   UNL     1      -1.269  -3.860   0.440  0.00  0.00    -0.458 OA
ENDBRANCH  21  23
BRANCH  20  28
ATOM     28  C   UNL     1      -2.669  -0.769  -2.352  0.00  0.00    +0.090 C 
BRANCH  28  29
ATOM     29  C   UNL     1      -3.242   0.472  -1.665  0.00  0.00    -0.060 C 
BRANCH  29  31
ATOM     30  C   UNL     1      -4.318   2.585  -2.029  0.00  0.00    -0.097 C 
ATOM     31  N   UNL     1      -3.659   1.447  -2.682  0.00  0.00    +0.377 N 
ATOM     32  C   UNL     1      -2.479   1.921  -3.418  0.00  0.00    -0.097 C 
ATOM     33  H   UNL     1      -4.302   1.009  -3.324  0.00  0.00    -0.083 HD
ENDBRANCH  29  31
ENDBRANCH  28  29
ENDBRANCH  20  28
ENDBRANCH  19  20
ENDBRANCH   1  19
TORSDOF 9
