REMARK  Name = ZINC09015680
REMARK  6 active torsions:
REMARK  status: ('A' for Active; 'I' for Inactive)
REMARK    1  A    between atoms: C_1  and  C_2
REMARK    2  A    between atoms: C_2  and  C_4
REMARK    3  A    between atoms: C_6  and  C_33
REMARK    4  A    between atoms: C_33  and  C_35
REMARK    5  A    between atoms: C_38  and  O_41
REMARK    6  A    between atoms: O_41  and  C_42
REMARK                            x       y       z     vdW  Elec       q    Type
REMARK                         _______ _______ _______ _____ _____    ______ ____
ROOT
ATOM      1  C   UNL     1      -1.214  -0.675   0.431  0.00  0.00    +0.152 C 
ATOM      2  C   UNL     1      -0.728  -2.128   0.698  0.00  0.00    +0.109 C 
ATOM      3  C   UNL     1       0.798  -2.000   0.882  0.00  0.00    +0.108 C 
ATOM      4  C   UNL     1       1.543  -2.805  -0.128  0.00  0.00    -0.008 A 
ATOM      5  C   UNL     1       1.569  -2.761  -1.505  0.00  0.00    +0.006 A 
ATOM      6  C   UNL     1       2.392  -3.677  -2.152  0.00  0.00    +0.000 A 
ATOM      7  C   UNL     1       3.150  -4.588  -1.444  0.00  0.00    +0.002 A 
ATOM      8  C   UNL     1       3.131  -4.638  -0.059  0.00  0.00    +0.023 A 
ATOM      9  C   UNL     1       2.309  -3.725   0.603  0.00  0.00    +0.038 A 
ATOM     10  N   UNL     1       2.100  -3.555   1.961  0.00  0.00    -0.284 N 
ATOM     11  C   UNL     1       1.221  -2.560   2.216  0.00  0.00    +0.231 C 
ATOM     12  O   UNL     1       0.846  -2.189   3.309  0.00  0.00    -0.274 OA
ATOM     13  C   UNL     1       1.084  -0.509   0.777  0.00  0.00    +0.117 C 
ATOM     14  N   UNL     1      -0.017  -0.006  -0.090  0.00  0.00    -0.311 N 
ATOM     15  C   UNL     1       0.015   1.366  -0.132  0.00  0.00    +0.039 A 
ATOM     16  C   UNL     1      -1.125   2.160  -0.035  0.00  0.00    +0.024 A 
ATOM     17  C   UNL     1      -1.039   3.518  -0.077  0.00  0.00    +0.010 A 
ATOM     18  C   UNL     1       0.210   4.149  -0.226  0.00  0.00    -0.017 A 
ATOM     19  C   UNL     1       0.312   5.549  -0.271  0.00  0.00    +0.008 A 
ATOM     20  C   UNL     1       1.534   6.133  -0.415  0.00  0.00    +0.001 A 
ATOM     21  C   UNL     1       2.688   5.360  -0.521  0.00  0.00    +0.001 A 
ATOM     22  C   UNL     1       2.626   4.000  -0.482  0.00  0.00    +0.009 A 
ATOM     23  C   UNL     1       1.385   3.364  -0.333  0.00  0.00    -0.009 A 
ATOM     24  C   UNL     1       1.278   1.958  -0.287  0.00  0.00    +0.004 A 
ATOM     25  C   UNL     1       2.462   1.095  -0.393  0.00  0.00    +0.008 C 
ATOM     26  C   UNL     1       2.386  -0.144   0.130  0.00  0.00    -0.003 C 
ATOM     27  H   UNL     1       2.532  -4.087   2.647  0.00  0.00    +0.155 HD
ENDROOT
BRANCH   1  29
ATOM     28  C   UNL     1      -3.751  -0.842  -0.162  0.00  0.00    +0.088 C 
ATOM     29  C   UNL     1      -2.318  -0.663  -0.595  0.00  0.00    +0.151 C 
ATOM     30  O   UNL     1      -2.055  -0.511  -1.763  0.00  0.00    -0.296 OA
ENDBRANCH   1  29
BRANCH   2  31
ATOM     31  C   UNL     1      -1.365  -2.674   1.950  0.00  0.00    +0.170 C 
ATOM     32  O   UNL     1      -1.771  -1.915   2.804  0.00  0.00    -0.292 OA
BRANCH  31  33
ATOM     33  C   UNL     1      -1.493  -4.125   2.135  0.00  0.00    +0.018 A 
ATOM     34  C   UNL     1      -0.945  -5.005   1.194  0.00  0.00    +0.015 A 
ATOM     35  C   UNL     1      -1.063  -6.359   1.375  0.00  0.00    +0.046 A 
ATOM     36  C   UNL     1      -1.735  -6.859   2.486  0.00  0.00    +0.120 A 
ATOM     37  C   UNL     1      -2.287  -5.989   3.420  0.00  0.00    +0.046 A 
ATOM     38  C   UNL     1      -2.170  -4.633   3.251  0.00  0.00    +0.015 A 
BRANCH  36  39
ATOM     39  O   UNL     1      -1.855  -8.200   2.657  0.00  0.00    -0.495 OA
ATOM     40  C   UNL     1      -1.265  -9.036   1.659  0.00  0.00    +0.277 C 
ENDBRANCH  36  39
ENDBRANCH  31  33
ENDBRANCH   2  31
TORSDOF 4
