REMARK  Name = ZINC14008782
REMARK  7 active torsions:
REMARK  status: ('A' for Active; 'I' for Inactive)
REMARK    1  A    between atoms: C_1  and  C_2
REMARK    2  A    between atoms: C_2  and  C_3
REMARK    3  A    between atoms: C_6  and  N_9
REMARK    4  A    between atoms: C_15  and  C_16
REMARK    5  A    between atoms: C_19  and  O_22
REMARK    6  A    between atoms: O_22  and  C_23
REMARK    7  A    between atoms: C_23  and  C_24
REMARK                            x       y       z     vdW  Elec       q    Type
REMARK                         _______ _______ _______ _____ _____    ______ ____
ROOT
ATOM      1  N   UNL     1      -5.333  -1.873   0.143  0.00  0.00    -0.226 NA
ATOM      2  C   UNL     1      -6.246  -1.328  -0.630  0.00  0.00    +0.166 C 
ATOM      3  N   UNL     1      -6.193  -0.127  -1.302  0.00  0.00    -0.260 N 
ATOM      4  C   UNL     1      -7.211   0.275  -2.045  0.00  0.00    +0.256 C 
ATOM      5  O   UNL     1      -7.182   1.333  -2.646  0.00  0.00    -0.269 OA
ATOM      6  C   UNL     1      -8.384  -0.618  -2.111  0.00  0.00    +0.078 C 
ATOM      7  C   UNL     1      -9.551  -0.458  -2.787  0.00  0.00    +0.028 C 
ATOM      8  S   UNL     1      -7.853  -1.969  -1.070  0.00  0.00    -0.049 S 
ATOM      9  H   UNL     1      -5.402   0.429  -1.231  0.00  0.00    +0.157 HD
ENDROOT
BRANCH   1  13
ATOM     10  C   UNL     1      -1.752   0.089   0.813  0.00  0.00    -0.047 A 
ATOM     11  C   UNL     1      -2.430  -0.487   1.873  0.00  0.00    +0.006 A 
ATOM     12  C   UNL     1      -3.624  -1.142   1.657  0.00  0.00    +0.028 A 
ATOM     13  C   UNL     1      -4.149  -1.224   0.365  0.00  0.00    +0.067 A 
ATOM     14  C   UNL     1      -3.458  -0.640  -0.700  0.00  0.00    +0.028 A 
ATOM     15  C   UNL     1      -2.268   0.017  -0.469  0.00  0.00    +0.006 A 
BRANCH  10  17
ATOM     16  C   UNL     1      -0.722   2.278   1.359  0.00  0.00    +0.009 C 
ATOM     17  C   UNL     1      -0.447   0.803   1.057  0.00  0.00    +0.032 C 
ENDBRANCH  10  17
ENDBRANCH   1  13
BRANCH   7  18
ATOM     18  C   UNL     1      -9.706   0.657  -3.730  0.00  0.00    -0.024 A 
ATOM     19  C   UNL     1      -8.645   1.021  -4.568  0.00  0.00    +0.011 A 
ATOM     20  C   UNL     1      -8.796   2.067  -5.451  0.00  0.00    +0.046 A 
ATOM     21  C   UNL     1      -9.999   2.760  -5.512  0.00  0.00    +0.121 A 
ATOM     22  C   UNL     1     -11.056   2.403  -4.682  0.00  0.00    +0.046 A 
ATOM     23  C   UNL     1     -10.918   1.355  -3.799  0.00  0.00    +0.011 A 
BRANCH  21  24
ATOM     24  O   UNL     1     -10.143   3.790  -6.385  0.00  0.00    -0.487 OA
BRANCH  24  25
ATOM     25  C   UNL     1     -11.406   4.460  -6.396  0.00  0.00    +0.266 C 
BRANCH  25  26
ATOM     26  C   UNL     1     -11.379   5.566  -7.419  0.00  0.00    +0.008 A 
ATOM     27  C   UNL     1     -10.239   5.785  -8.170  0.00  0.00    +0.010 A 
ATOM     28  C   UNL     1     -10.213   6.799  -9.108  0.00  0.00    +0.020 A 
ATOM     29  C   UNL     1     -11.329   7.596  -9.297  0.00  0.00    +0.042 A 
ATOM     30  C   UNL     1     -12.470   7.377  -8.546  0.00  0.00    +0.040 A 
ATOM     31  C   UNL     1     -12.496   6.358  -7.610  0.00  0.00    +0.049 A 
ATOM     32 CL   UNL     1     -13.930   6.079  -6.672  0.00  0.00    -0.083 Cl
ATOM     33 CL   UNL     1     -11.297   8.870 -10.476  0.00  0.00    -0.083 Cl
ENDBRANCH  25  26
ENDBRANCH  24  25
ENDBRANCH  21  24
ENDBRANCH   7  18
TORSDOF 6
