REMARK  Name = ZINC00845366
REMARK  6 active torsions:
REMARK  status: ('A' for Active; 'I' for Inactive)
REMARK    1  A    between atoms: C_1  and  C_2
REMARK    2  A    between atoms: C_9  and  N_13
REMARK    3  A    between atoms: C_10  and  C_11
REMARK    4  A    between atoms: C_14  and  C_16
REMARK    5  A    between atoms: C_20  and  C_29
REMARK    6  A    between atoms: C_22  and  C_25
REMARK                            x       y       z     vdW  Elec       q    Type
REMARK                         _______ _______ _______ _____ _____    ______ ____
ROOT
ATOM      1  C   UNL     1       5.562   6.543  -0.794  0.00  0.00    +0.150 A 
ATOM      2  C   UNL     1       5.423   7.891  -1.144  0.00  0.00    +0.083 A 
ATOM      3  C   UNL     1       6.693   8.448  -1.177  0.00  0.00    +0.157 A 
ATOM      4  N   UNL     1       7.126   9.686  -1.449  0.00  0.00    -0.227 NA
ATOM      5  C   UNL     1       8.417   9.972  -1.419  0.00  0.00    +0.082 A 
ATOM      6  C   UNL     1       9.359   8.964  -1.097  0.00  0.00    +0.061 A 
ATOM      7  C   UNL     1       8.924   7.716  -0.822  0.00  0.00    +0.149 A 
ATOM      8  N   UNL     1       7.581   7.450  -0.861  0.00  0.00    -0.209 N 
ATOM      9  N   UNL     1       6.848   6.279  -0.629  0.00  0.00    -0.160 NA
ENDROOT
BRANCH   5  10
ATOM     10  C   UNL     1       8.876  11.339  -1.721  0.00  0.00    +0.038 A 
ATOM     11  C   UNL     1       8.137  12.445  -2.058  0.00  0.00    +0.017 A 
ATOM     12  C   UNL     1       8.791  13.631  -2.293  0.00  0.00    +0.008 A 
ATOM     13  C   UNL     1      10.147  13.670  -2.197  0.00  0.00    +0.046 A 
ATOM     14  S   UNL     1      10.540  11.987  -1.751  0.00  0.00    -0.095 S 
ENDBRANCH   5  10
BRANCH   1  16
ATOM     15  N   UNL     1       4.722   4.296  -0.304  0.00  0.00    -0.274 N 
ATOM     16  C   UNL     1       4.456   5.574  -0.641  0.00  0.00    +0.269 C 
ATOM     17  O   UNL     1       3.307   5.929  -0.818  0.00  0.00    -0.268 OA
ATOM     18  H   UNL     1       5.639   4.013  -0.162  0.00  0.00    +0.156 HD
BRANCH  15  26
ATOM     19  C   UNL     1      -1.397  -0.538   0.318  0.00  0.00    +0.008 C 
ATOM     20  C   UNL     1       0.002  -0.004   0.002  0.00  0.00    -0.009 C 
ATOM     21  C   UNL     1       0.992  -0.490   1.064  0.00  0.00    +0.008 C 
ATOM     22  C   UNL     1       2.423  -0.174   0.625  0.00  0.00    +0.037 C 
ATOM     23  C   UNL     1       2.510   1.304   0.265  0.00  0.00    -0.018 A 
ATOM     24  C   UNL     1       1.396   2.022  -0.000  0.00  0.00    -0.004 A 
ATOM     25  S   UNL     1       1.984   3.653  -0.358  0.00  0.00    -0.077 S 
ATOM     26  C   UNL     1       3.685   3.387  -0.160  0.00  0.00    +0.090 A 
ATOM     27  C   UNL     1       3.757   2.043   0.178  0.00  0.00    +0.084 A 
ATOM     28  C   UNL     1      -0.019   1.531   0.011  0.00  0.00    +0.046 C 
BRANCH  27  29
ATOM     29  C   UNL     1       5.015   1.409   0.432  0.00  0.00    +0.102 C 
ATOM     30  N   UNL     1       6.013   0.905   0.634  0.00  0.00    -0.191 NA
ENDBRANCH  27  29
ENDBRANCH  15  26
ENDBRANCH   1  16
BRANCH   7  31
ATOM     31  C   UNL     1       9.906   6.626  -0.476  0.00  0.00    +0.434 C 
ATOM     32  F   UNL     1      10.309   5.973  -1.645  0.00  0.00    -0.164 F 
ATOM     33  F   UNL     1      11.022   7.188   0.153  0.00  0.00    -0.164 F 
ATOM     34  F   UNL     1       9.298   5.707   0.386  0.00  0.00    -0.164 F 
ENDBRANCH   7  31
TORSDOF 5
