REMARK  Name = ZINC09345292
REMARK  9 active torsions:
REMARK  status: ('A' for Active; 'I' for Inactive)
REMARK    1  A    between atoms: C_1  and  C_2
REMARK    2  A    between atoms: C_2  and  O_3
REMARK    3  A    between atoms: O_3  and  C_4
REMARK    4  A    between atoms: C_7  and  C_10
REMARK    5  A    between atoms: C_27  and  C_29
REMARK    6  A    between atoms: C_32  and  O_37
REMARK    7  A    between atoms: C_33  and  O_35
REMARK    8  A    between atoms: O_35  and  C_36
REMARK    9  A    between atoms: O_37  and  C_38
REMARK                            x       y       z     vdW  Elec       q    Type
REMARK                         _______ _______ _______ _____ _____    ______ ____
ROOT
ATOM      1  C   UNL     1       1.144  -6.059   1.764  0.00  0.00    +0.234 C 
ATOM      2  C   UNL     1       0.022  -6.557   2.627  0.00  0.00    +0.028 C 
ATOM      3  C   UNL     1       0.164  -6.628   3.967  0.00  0.00    +0.083 C 
ATOM      4  C   UNL     1       1.467  -6.208   4.541  0.00  0.00    +0.042 A 
ATOM      5  C   UNL     1       1.610  -5.936   5.894  0.00  0.00    +0.013 A 
ATOM      6  C   UNL     1       2.842  -5.546   6.385  0.00  0.00    +0.001 A 
ATOM      7  C   UNL     1       3.926  -5.427   5.533  0.00  0.00    +0.004 A 
ATOM      8  C   UNL     1       3.792  -5.698   4.184  0.00  0.00    +0.046 A 
ATOM      9  C   UNL     1       2.565  -6.091   3.678  0.00  0.00    +0.131 A 
ATOM     10  O   UNL     1       2.404  -6.369   2.364  0.00  0.00    -0.479 OA
ATOM     11  N   UNL     1      -0.844  -7.069   4.759  0.00  0.00    -0.216 NA
ATOM     12  C   UNL     1      -2.015  -7.465   4.313  0.00  0.00    +0.209 C 
ATOM     13  N   UNL     1      -3.129  -7.936   4.957  0.00  0.00    -0.275 N 
ATOM     14  C   UNL     1      -4.086  -8.212   4.011  0.00  0.00    +0.208 C 
ATOM     15  N   UNL     1      -3.619  -7.935   2.836  0.00  0.00    -0.169 NA
ATOM     16  N   UNL     1      -2.315  -7.459   2.981  0.00  0.00    -0.182 N 
ATOM     17  C   UNL     1      -1.297  -6.993   2.029  0.00  0.00    +0.163 C 
ATOM     18  H   UNL     1      -3.225  -8.054   5.915  0.00  0.00    +0.156 HD
ENDROOT
BRANCH   1  22
ATOM     19  C   UNL     1       0.802  -1.824   1.306  0.00  0.00    +0.121 A 
ATOM     20  C   UNL     1       0.260  -2.673   0.351  0.00  0.00    +0.046 A 
ATOM     21  C   UNL     1       0.372  -4.041   0.502  0.00  0.00    +0.011 A 
ATOM     22  C   UNL     1       1.024  -4.566   1.603  0.00  0.00    -0.003 A 
ATOM     23  C   UNL     1       1.565  -3.722   2.555  0.00  0.00    +0.011 A 
ATOM     24  C   UNL     1       1.460  -2.353   2.406  0.00  0.00    +0.046 A 
BRANCH  19  25
ATOM     25  O   UNL     1       0.693  -0.477   1.160  0.00  0.00    -0.492 OA
BRANCH  25  27
ATOM     26  C   UNL     1      -0.019   1.526   0.010  0.00  0.00    +0.048 C 
ATOM     27  C   UNL     1       0.002  -0.004   0.002  0.00  0.00    +0.225 C 
ENDBRANCH  25  27
ENDBRANCH  19  25
ENDBRANCH   1  22
BRANCH  17  28
ATOM     28  C   UNL     1      -1.024  -8.107   1.050  0.00  0.00    -0.017 A 
ATOM     29  C   UNL     1      -0.832  -9.396   1.510  0.00  0.00    +0.009 A 
ATOM     30  C   UNL     1      -0.581 -10.421   0.617  0.00  0.00    +0.050 A 
ATOM     31  C   UNL     1      -0.522 -10.157  -0.742  0.00  0.00    +0.162 A 
ATOM     32  C   UNL     1      -0.716  -8.859  -1.205  0.00  0.00    +0.162 A 
ATOM     33  C   UNL     1      -0.972  -7.837  -0.304  0.00  0.00    +0.055 A 
BRANCH  32  34
ATOM     34  O   UNL     1      -0.660  -8.595  -2.538  0.00  0.00    -0.491 OA
ATOM     35  C   UNL     1      -0.868  -7.239  -2.939  0.00  0.00    +0.277 C 
ENDBRANCH  32  34
BRANCH  31  36
ATOM     36  O   UNL     1      -0.276 -11.164  -1.622  0.00  0.00    -0.491 OA
ATOM     37  C   UNL     1      -0.086 -12.471  -1.076  0.00  0.00    +0.277 C 
ENDBRANCH  31  36
ENDBRANCH  17  28
TORSDOF 6
