REMARK  Name = ZINC48314665
REMARK  4 active torsions:
REMARK  status: ('A' for Active; 'I' for Inactive)
REMARK    1  A    between atoms: C_4  and  N_13
REMARK    2  A    between atoms: C_6  and  N_7
REMARK    3  A    between atoms: N_16  and  C_17
REMARK    4  A    between atoms: C_17  and  C_18
REMARK                            x       y       z     vdW  Elec       q    Type
REMARK                         _______ _______ _______ _____ _____    ______ ____
ROOT
ATOM      1  N   UNL     1       3.796  -0.476  -0.184  0.00  0.00    -0.267 N 
ATOM      2  C   UNL     1       3.957  -1.814  -0.146  0.00  0.00    +0.304 C 
ATOM      3  O   UNL     1       2.983  -2.543  -0.130  0.00  0.00    -0.252 OA
ATOM      4  N   UNL     1       5.196  -2.344  -0.127  0.00  0.00    -0.295 N 
ATOM      5  H   UNL     1       4.569   0.102  -0.282  0.00  0.00    +0.156 HD
ATOM      6  H   UNL     1       5.972  -1.763  -0.141  0.00  0.00    +0.151 HD
ENDROOT
BRANCH   1  10
ATOM      7  C   UNL     1      -0.021   1.183   0.113  0.00  0.00    +0.026 A 
ATOM      8  C   UNL     1       0.991   1.885  -0.515  0.00  0.00    +0.042 A 
ATOM      9  C   UNL     1       2.257   1.338  -0.615  0.00  0.00    +0.145 A 
ATOM     10  C   UNL     1       2.515   0.079  -0.083  0.00  0.00    +0.072 A 
ATOM     11  C   UNL     1       1.501  -0.626   0.548  0.00  0.00    +0.049 A 
ATOM     12  C   UNL     1       0.232  -0.073   0.646  0.00  0.00    +0.038 A 
ATOM     13  F   UNL     1       3.243   2.025  -1.231  0.00  0.00    -0.204 F 
BRANCH  12  14
ATOM     14  N   UNL     1      -0.794  -0.783   1.283  0.00  0.00    -0.271 N 
ATOM     15  C   UNL     1      -0.608  -2.060   1.981  0.00  0.00    +0.114 C 
ATOM     16  C   UNL     1      -1.860  -2.231   2.869  0.00  0.00    +0.029 C 
ATOM     17  C   UNL     1      -2.905  -1.383   2.107  0.00  0.00    +0.098 C 
ATOM     18  C   UNL     1      -2.075  -0.379   1.338  0.00  0.00    +0.220 C 
ATOM     19  O   UNL     1      -2.503   0.641   0.841  0.00  0.00    -0.275 OA
ENDBRANCH  12  14
ENDBRANCH   1  10
BRANCH   4  20
ATOM     20  C   UNL     1       5.370  -3.798  -0.086  0.00  0.00    +0.142 C 
BRANCH  20  21
ATOM     21  C   UNL     1       6.840  -4.128  -0.071  0.00  0.00    -0.014 A 
ATOM     22  C   UNL     1       7.530  -4.309  -1.263  0.00  0.00    +0.010 A 
ATOM     23  C   UNL     1       8.879  -4.611  -1.205  0.00  0.00    +0.042 A 
ATOM     24  C   UNL     1       9.495  -4.722   0.037  0.00  0.00    +0.099 A 
ATOM     25  N   UNL     1       8.802  -4.542   1.151  0.00  0.00    -0.349 N 
ATOM     26  C   UNL     1       7.516  -4.247   1.126  0.00  0.00    +0.089 A 
ATOM     27  N   UNL     1      10.849  -5.025   0.110  0.00  0.00    -0.317 N 
ATOM     28  C   UNL     1      11.561  -5.313  -1.115  0.00  0.00    +0.106 C 
ATOM     29  C   UNL     1      11.477  -6.829  -1.420  0.00  0.00    +0.019 C 
ATOM     30  C   UNL     1      12.305  -7.588  -0.469  0.00  0.00    +0.002 C 
ATOM     31  C   UNL     1      11.860  -7.470   0.985  0.00  0.00    +0.002 C 
ATOM     32  C   UNL     1      12.464  -6.229   1.594  0.00  0.00    +0.019 C 
ATOM     33  C   UNL     1      11.502  -5.033   1.433  0.00  0.00    +0.106 C 
ATOM     34  H   UNL     1       9.252  -4.624   2.007  0.00  0.00    +0.167 HD
ENDBRANCH  20  21
ENDBRANCH   4  20
TORSDOF 4
