REMARK  Name = ZINC39478504
REMARK  9 active torsions:
REMARK  status: ('A' for Active; 'I' for Inactive)
REMARK    1  A    between atoms: C_1  and  C_2
REMARK    2  A    between atoms: C_4  and  C_8
REMARK    3  A    between atoms: C_8  and  N_9
REMARK    4  A    between atoms: N_9  and  C_10
REMARK    5  A    between atoms: C_11  and  C_13
REMARK    6  A    between atoms: C_13  and  C_14
REMARK    7  A    between atoms: N_21  and  C_22
REMARK    8  A    between atoms: C_22  and  C_23
REMARK    9  A    between atoms: C_26  and  C_29
REMARK                            x       y       z     vdW  Elec       q    Type
REMARK                         _______ _______ _______ _____ _____    ______ ____
ROOT
ATOM      1  C   UNL     1       2.797  -2.166   4.506  0.00  0.00    +0.028 C 
ATOM      2  C   UNL     1       3.119  -1.683   5.892  0.00  0.00    +0.200 C 
ATOM      3  O   UNL     1       2.231  -1.646   6.716  0.00  0.00    -0.278 OA
ATOM      4  N   UNL     1       4.347  -1.294   6.254  0.00  0.00    -0.318 N 
ATOM      5  C   UNL     1       5.474  -1.279   5.324  0.00  0.00    +0.085 C 
ATOM      6  C   UNL     1       5.154  -2.145   4.104  0.00  0.00    -0.058 C 
ATOM      7  N   UNL     1       3.845  -1.742   3.570  0.00  0.00    +0.391 N 
ATOM      8  H   UNL     1       4.495  -1.011   7.170  0.00  0.00    +0.149 HD
ATOM      9  H   UNL     1       3.817  -0.739   3.462  0.00  0.00    -0.080 HD
ENDROOT
BRANCH   1  10
ATOM     10  C   UNL     1       1.455  -1.579   4.065  0.00  0.00    +0.090 C 
BRANCH  10  13
ATOM     11  N   UNL     1       0.497   0.661   3.640  0.00  0.00    -0.301 N 
ATOM     12  C   UNL     1      -0.740   0.003   3.212  0.00  0.00    +0.132 C 
ATOM     13  C   UNL     1       1.528  -0.075   4.101  0.00  0.00    +0.214 C 
ATOM     14  O   UNL     1       2.514   0.474   4.545  0.00  0.00    -0.276 OA
BRANCH  11  15
ATOM     15  C   UNL     1       0.613   2.120   3.568  0.00  0.00    +0.158 C 
BRANCH  15  19
ATOM     16  C   UNL     1      -2.588   1.299   6.873  0.00  0.00    +0.067 C 
ATOM     17  C   UNL     1      -1.308   1.784   6.244  0.00  0.00    +0.053 C 
ATOM     18  N   UNL     1      -1.230   2.475   5.157  0.00  0.00    -0.259 NA
ATOM     19  C   UNL     1       0.194   2.732   4.906  0.00  0.00    +0.237 C 
ATOM     20  N   UNL     1       0.921   2.089   6.008  0.00  0.00    -0.262 NA
ATOM     21  C   UNL     1       0.042   1.547   6.781  0.00  0.00    +0.130 C 
ENDBRANCH  15  19
ENDBRANCH  11  15
ENDBRANCH  10  13
ENDBRANCH   1  10
BRANCH   7  22
ATOM     22  C   UNL     1       3.630  -2.385   2.267  0.00  0.00    -0.042 C 
BRANCH  22  23
ATOM     23  C   UNL     1       4.617  -1.839   1.268  0.00  0.00    -0.064 A 
ATOM     24  C   UNL     1       4.345  -0.654   0.607  0.00  0.00    +0.002 A 
ATOM     25  C   UNL     1       5.246  -0.149  -0.309  0.00  0.00    +0.009 A 
ATOM     26  C   UNL     1       6.431  -0.835  -0.567  0.00  0.00    -0.018 A 
ATOM     27  C   UNL     1       6.700  -2.028   0.101  0.00  0.00    +0.009 A 
ATOM     28  C   UNL     1       5.794  -2.521   1.019  0.00  0.00    +0.002 A 
BRANCH  26  29
ATOM     29  C   UNL     1       7.403  -0.298  -1.551  0.00  0.00    -0.018 A 
ATOM     30  C   UNL     1       7.137   0.898  -2.216  0.00  0.00    +0.008 A 
ATOM     31  C   UNL     1       8.045   1.394  -3.129  0.00  0.00    +0.001 A 
ATOM     32  C   UNL     1       9.217   0.706  -3.387  0.00  0.00    +0.000 A 
ATOM     33  C   UNL     1       9.486  -0.482  -2.730  0.00  0.00    +0.001 A 
ATOM     34  C   UNL     1       8.588  -0.984  -1.810  0.00  0.00    +0.008 A 
ENDBRANCH  26  29
ENDBRANCH  22  23
ENDBRANCH   7  22
TORSDOF 7
