REMARK  Name = ZINC62944721
REMARK  2 active torsions:
REMARK  status: ('A' for Active; 'I' for Inactive)
REMARK    1  A    between atoms: C_13  and  C_18
REMARK    2  A    between atoms: N_19  and  O_20
REMARK                            x       y       z     vdW  Elec       q    Type
REMARK                         _______ _______ _______ _____ _____    ______ ____
ROOT
ATOM      1  C   UNL     1      -0.715  -0.044  -0.192  0.00  0.00    +0.000 A 
ATOM      2  C   UNL     1       0.253   0.942  -0.136  0.00  0.00    +0.000 A 
ATOM      3  C   UNL     1       1.583   0.582  -0.072  0.00  0.00    +0.005 A 
ATOM      4  C   UNL     1       1.955  -0.755  -0.078  0.00  0.00    -0.027 A 
ATOM      5  C   UNL     1       1.000  -1.740  -0.173  0.00  0.00    -0.043 A 
ATOM      6  C   UNL     1      -0.344  -1.370  -0.206  0.00  0.00    +0.004 A 
ATOM      7  C   UNL     1       1.280  -3.219  -0.309  0.00  0.00    +0.037 C 
ATOM      8  C   UNL     1       2.569  -3.643   0.388  0.00  0.00    +0.024 C 
ATOM      9  C   UNL     1       3.743  -3.464  -0.590  0.00  0.00    +0.107 C 
ATOM     10  N   UNL     1       3.822  -2.060  -0.955  0.00  0.00    -0.310 N 
ATOM     11  C   UNL     1       3.415  -1.082   0.057  0.00  0.00    +0.141 C 
ATOM     12  C   UNL     1       4.263  -1.663  -2.207  0.00  0.00    +0.132 A 
ATOM     13  C   UNL     1       5.638  -1.514  -2.448  0.00  0.00    +0.058 A 
ATOM     14  C   UNL     1       6.060  -1.113  -3.717  0.00  0.00    +0.016 A 
ATOM     15  C   UNL     1       5.099  -0.878  -4.687  0.00  0.00    +0.020 A 
ATOM     16  C   UNL     1       3.763  -1.046  -4.375  0.00  0.00    +0.113 A 
ATOM     17  N   UNL     1       3.386  -1.431  -3.170  0.00  0.00    -0.240 NA
ENDROOT
BRANCH  13  18
ATOM     18  C   UNL     1       6.622  -1.778  -1.376  0.00  0.00    +0.166 C 
ATOM     19  N   UNL     1       7.576  -2.643  -1.567  0.00  0.00    -0.071 NA
ATOM     20  N   UNL     1       6.529  -1.104  -0.170  0.00  0.00    -0.340 N 
ATOM     21  H   UNL     1       5.882  -0.389  -0.062  0.00  0.00    +0.144 HD
ATOM     22  H   UNL     1       7.111  -1.347   0.567  0.00  0.00    +0.144 HD
BRANCH  19  23
ATOM     23  O   UNL     1       7.732  -3.258  -2.833  0.00  0.00    -0.408 OA
ATOM     24  H   UNL     1       8.417  -3.940  -2.857  0.00  0.00    +0.328 HD
ENDBRANCH  19  23
ENDBRANCH  13  18
TORSDOF 2
