REMARK  Name = ZINC17908966
REMARK  17 active torsions:
REMARK  status: ('A' for Active; 'I' for Inactive)
REMARK    1  A    between atoms: C_1  and  C_2
REMARK    2  A    between atoms: C_2  and  C_3
REMARK    3  A    between atoms: C_3  and  C_4
REMARK    4  A    between atoms: C_4  and  C_5
REMARK    5  A    between atoms: C_5  and  N_6
REMARK    6  A    between atoms: N_6  and  C_7
REMARK    7  A    between atoms: C_8  and  N_20
REMARK    8  A    between atoms: N_9  and  C_16
REMARK    9  A    between atoms: C_16  and  C_17
REMARK   10  A    between atoms: C_17  and  C_18
REMARK   11  A    between atoms: C_18  and  C_19
REMARK   12  A    between atoms: C_21  and  C_23
REMARK   13  A    between atoms: C_23  and  C_24
REMARK   14  A    between atoms: C_24  and  C_25
REMARK   15  A    between atoms: N_27  and  C_28
REMARK   16  A    between atoms: C_28  and  C_30
REMARK   17  A    between atoms: C_28  and  C_31
REMARK                            x       y       z     vdW  Elec       q    Type
REMARK                         _______ _______ _______ _____ _____    ______ ____
ROOT
ATOM      1  N   UNL     1       3.867   8.890   4.285  0.00  0.00    -0.264 N 
ATOM      2  C   UNL     1       4.122   7.764   3.586  0.00  0.00    +0.220 C 
ATOM      3  O   UNL     1       5.203   7.221   3.683  0.00  0.00    -0.275 OA
ENDROOT
BRANCH   1   4
ATOM      4  C   UNL     1       4.819   9.382   5.202  0.00  0.00    +0.140 A 
ATOM      5  C   UNL     1       5.177   8.639   6.309  0.00  0.00    +0.127 A 
ATOM      6  N   UNL     1       6.109   9.145   7.185  0.00  0.00    -0.280 N 
ATOM      7  C   UNL     1       6.665  10.350   6.965  0.00  0.00    +0.331 A 
ATOM      8  O   UNL     1       7.487  10.780   7.752  0.00  0.00    -0.246 OA
ATOM      9  N   UNL     1       6.330  11.088   5.892  0.00  0.00    -0.273 N 
ATOM     10  H   UNL     1       6.755  11.982   5.755  0.00  0.00    +0.173 HD
ATOM     11  C   UNL     1       5.426  10.636   5.001  0.00  0.00    +0.277 A 
ATOM     12  O   UNL     1       5.132  11.311   4.029  0.00  0.00    -0.266 OA
BRANCH   5  13
ATOM     13  N   UNL     1       4.608   7.408   6.534  0.00  0.00    -0.343 N 
ATOM     14  H   UNL     1       3.874   7.104   5.977  0.00  0.00    +0.144 HD
ATOM     15  H   UNL     1       4.940   6.843   7.249  0.00  0.00    +0.144 HD
ENDBRANCH   5  13
BRANCH   6  16
ATOM     16  C   UNL     1       6.498   8.367   8.364  0.00  0.00    +0.128 C 
BRANCH  16  17
ATOM     17  C   UNL     1       7.688   7.471   8.014  0.00  0.00    +0.021 C 
BRANCH  17  18
ATOM     18  C   UNL     1       8.094   6.658   9.245  0.00  0.00    -0.002 C 
ATOM     19  C   UNL     1       9.284   5.762   8.895  0.00  0.00    +0.004 C 
ENDBRANCH  17  18
ENDBRANCH  16  17
ENDBRANCH   6  16
ENDBRANCH   1   4
BRANCH   1  20
ATOM     20  C   UNL     1       2.601   9.601   4.092  0.00  0.00    +0.114 C 
BRANCH  20  21
ATOM     21  C   UNL     1       1.576   9.104   5.113  0.00  0.00    +0.019 C 
BRANCH  21  22
ATOM     22  C   UNL     1       0.254   9.847   4.911  0.00  0.00    +0.001 C 
BRANCH  22  24
ATOM     23  C   UNL     1      -2.094  10.094   5.731  0.00  0.00    +0.004 C 
ATOM     24  C   UNL     1      -0.771   9.351   5.933  0.00  0.00    -0.003 C 
ENDBRANCH  22  24
ENDBRANCH  21  22
ENDBRANCH  20  21
ENDBRANCH   1  20
BRANCH   2  25
ATOM     25  C   UNL     1       3.065   7.181   2.684  0.00  0.00    +0.105 C 
BRANCH  25  26
ATOM     26  C   UNL     1       3.606   5.917   2.014  0.00  0.00    +0.105 C 
BRANCH  26  27
ATOM     27  C   UNL     1       2.549   5.334   1.112  0.00  0.00    +0.214 C 
ATOM     28  O   UNL     1       1.468   5.877   1.015  0.00  0.00    -0.276 OA
ATOM     29  N   UNL     1       2.803   4.210   0.414  0.00  0.00    -0.309 N 
ATOM     30  H   UNL     1       3.667   3.776   0.492  0.00  0.00    +0.149 HD
BRANCH  29  31
ATOM     31  C   UNL     1       1.775   3.644  -0.463  0.00  0.00    +0.100 C 
ATOM     32  C   UNL     1       1.835   4.330  -1.829  0.00  0.00    +0.033 C 
BRANCH  31  33
ATOM     33  C   UNL     1       2.018   2.166  -0.633  0.00  0.00    -0.027 A 
ATOM     34  C   UNL     1       0.952   1.287  -0.644  0.00  0.00    +0.005 A 
ATOM     35  C   UNL     1       1.175  -0.068  -0.800  0.00  0.00    +0.000 A 
ATOM     36  C   UNL     1       2.464  -0.544  -0.945  0.00  0.00    +0.000 A 
ATOM     37  C   UNL     1       3.531   0.335  -0.934  0.00  0.00    +0.000 A 
ATOM     38  C   UNL     1       3.308   1.690  -0.778  0.00  0.00    +0.005 A 
ENDBRANCH  31  33
ENDBRANCH  29  31
ENDBRANCH  26  27
ENDBRANCH  25  26
ENDBRANCH   2  25
TORSDOF 14
