REMARK  Name = ZINC19300232
REMARK  5 active torsions:
REMARK  status: ('A' for Active; 'I' for Inactive)
REMARK    1  A    between atoms: C_6  and  C_7
REMARK    2  A    between atoms: N_9  and  C_28
REMARK    3  A    between atoms: C_12  and  C_14
REMARK    4  A    between atoms: C_14  and  C_16
REMARK    5  A    between atoms: C_14  and  N_23
REMARK                            x       y       z     vdW  Elec       q    Type
REMARK                         _______ _______ _______ _____ _____    ______ ____
ROOT
ATOM      1  C   UNL     1      -1.575  -0.433  -0.321  0.00  0.00    +0.078 C 
ATOM      2  N   UNL     1      -1.607  -1.539   0.350  0.00  0.00    -0.176 NA
ATOM      3  N   UNL     1      -0.382  -1.853   0.930  0.00  0.00    -0.160 N 
ATOM      4  C   UNL     1       0.551  -0.916   0.645  0.00  0.00    +0.247 C 
ATOM      5  O   UNL     1       1.712  -0.899   0.997  0.00  0.00    -0.273 OA
ATOM      6  C   UNL     1      -0.166   0.109  -0.211  0.00  0.00    +0.119 C 
ENDROOT
BRANCH   1  12
ATOM      7  C   UNL     1      -2.482   1.309  -1.851  0.00  0.00    +0.011 A 
ATOM      8  C   UNL     1      -3.535   1.875  -2.538  0.00  0.00    +0.020 A 
ATOM      9  C   UNL     1      -4.806   1.335  -2.431  0.00  0.00    +0.041 A 
ATOM     10  C   UNL     1      -5.027   0.221  -1.639  0.00  0.00    +0.020 A 
ATOM     11  C   UNL     1      -3.982  -0.358  -0.951  0.00  0.00    +0.011 A 
ATOM     12  C   UNL     1      -2.698   0.181  -1.054  0.00  0.00    -0.001 A 
ATOM     13 CL   UNL     1      -6.127   2.059  -3.294  0.00  0.00    -0.084 Cl
ENDBRANCH   1  12
BRANCH   3  14
ATOM     14  C   UNL     1      -0.144  -2.992   1.708  0.00  0.00    +0.060 A 
ATOM     15  C   UNL     1       1.118  -3.220   2.241  0.00  0.00    +0.027 A 
ATOM     16  C   UNL     1       1.348  -4.342   3.013  0.00  0.00    +0.022 A 
ATOM     17  C   UNL     1       0.326  -5.244   3.246  0.00  0.00    +0.041 A 
ATOM     18  C   UNL     1      -0.932  -5.022   2.712  0.00  0.00    +0.022 A 
ATOM     19  C   UNL     1      -1.169  -3.899   1.945  0.00  0.00    +0.027 A 
ATOM     20 CL   UNL     1       0.620  -6.657   4.211  0.00  0.00    -0.084 Cl
ENDBRANCH   3  14
BRANCH   6  21
ATOM     21  C   UNL     1      -0.168   1.476   0.476  0.00  0.00    -0.020 C 
BRANCH  21  22
ATOM     22  C   UNL     1       1.250   1.960   0.636  0.00  0.00    -0.060 A 
ATOM     23  C   UNL     1       1.672   2.476   1.847  0.00  0.00    +0.003 A 
ATOM     24  C   UNL     1       2.974   2.915   1.996  0.00  0.00    +0.020 A 
ATOM     25  C   UNL     1       3.853   2.848   0.930  0.00  0.00    +0.041 A 
ATOM     26  C   UNL     1       3.429   2.337  -0.284  0.00  0.00    +0.020 A 
ATOM     27  C   UNL     1       2.128   1.893  -0.430  0.00  0.00    +0.003 A 
ATOM     28 CL   UNL     1       5.486   3.406   1.114  0.00  0.00    -0.084 Cl
ENDBRANCH  21  22
BRANCH  21  29
ATOM     29  N   UNL     1      -0.797   1.359   1.798  0.00  0.00    +0.385 N 
ATOM     30  C   UNL     1       0.083   0.626   2.743  0.00  0.00    -0.078 C 
ATOM     31  C   UNL     1      -0.458   1.050   4.132  0.00  0.00    -0.020 C 
ATOM     32  C   UNL     1      -0.826   2.536   3.921  0.00  0.00    -0.020 C 
ATOM     33  C   UNL     1      -1.016   2.692   2.401  0.00  0.00    -0.078 C 
ATOM     34  H   UNL     1      -1.748   0.832   1.631  0.00  0.00    -0.081 HD
ENDBRANCH  21  29
ENDBRANCH   6  21
TORSDOF 5
