REMARK  Name = ZINC20832523
REMARK  8 active torsions:
REMARK  status: ('A' for Active; 'I' for Inactive)
REMARK    1  A    between atoms: C_4  and  C_10
REMARK    2  A    between atoms: C_6  and  N_7
REMARK    3  A    between atoms: N_11  and  N_12
REMARK    4  A    between atoms: C_15  and  S_18
REMARK    5  A    between atoms: S_18  and  C_19
REMARK    6  A    between atoms: C_19  and  C_20
REMARK    7  A    between atoms: N_22  and  C_23
REMARK    8  A    between atoms: N_22  and  C_29
REMARK                            x       y       z     vdW  Elec       q    Type
REMARK                         _______ _______ _______ _____ _____    ______ ____
ROOT
ATOM      1  N   UNL     1      -1.101   2.143   0.167  0.00  0.00    -0.205 N 
ATOM      2  C   UNL     1      -0.013   1.366   0.136  0.00  0.00    +0.232 A 
ATOM      3  N   UNL     1       0.005  -0.007   0.112  0.00  0.00    -0.186 NA
ATOM      4  C   UNL     1       1.323  -0.368   0.078  0.00  0.00    +0.211 A 
ATOM      5  N   UNL     1       2.051   0.766   0.083  0.00  0.00    -0.144 NA
ATOM      6  N   UNL     1       1.265   1.784   0.117  0.00  0.00    -0.245 N 
ATOM      7  H   UNL     1      -2.103   1.688   0.176  0.00  0.00    +0.177 HD
ATOM      8  H   UNL     1       1.493   2.860   0.131  0.00  0.00    +0.192 HD
ENDROOT
BRANCH   1  10
ATOM      9  C   UNL     1      -2.048   4.193   0.218  0.00  0.00    +0.142 C 
ATOM     10  N   UNL     1      -0.976   3.427   0.188  0.00  0.00    -0.187 NA
BRANCH   9  14
ATOM     11  C   UNL     1      -1.647   8.362   0.284  0.00  0.00    +0.036 A 
ATOM     12  C   UNL     1      -0.512   7.575   0.252  0.00  0.00    +0.054 A 
ATOM     13  C   UNL     1      -0.627   6.194   0.236  0.00  0.00    +0.188 A 
ATOM     14  C   UNL     1      -1.910   5.603   0.240  0.00  0.00    +0.043 A 
ATOM     15  C   UNL     1      -3.049   6.425   0.273  0.00  0.00    +0.046 A 
ATOM     16  C   UNL     1      -2.909   7.783   0.294  0.00  0.00    +0.127 A 
ATOM     17  O   UNL     1       0.483   5.416   0.210  0.00  0.00    -0.287 OA
BRANCH  16  18
ATOM     18  N   UNL     1      -4.112   8.644   0.329  0.00  0.00    +0.056 N 
ATOM     19  O   UNL     1      -5.312   8.100   0.340  0.00  0.00    -0.126 OA
ATOM     20  O   UNL     1      -3.983   9.955   0.350  0.00  0.00    -0.126 OA
ENDBRANCH  16  18
ENDBRANCH   9  14
ENDBRANCH   1  10
BRANCH   4  21
ATOM     21  S   UNL     1       1.935  -1.966   0.038  0.00  0.00    -0.075 S 
BRANCH  21  22
ATOM     22  C   UNL     1       3.712  -1.621   0.007  0.00  0.00    +0.173 C 
BRANCH  22  23
ATOM     23  C   UNL     1       4.475  -2.920  -0.032  0.00  0.00    +0.226 C 
ATOM     24  O   UNL     1       3.884  -3.974   0.063  0.00  0.00    -0.275 OA
ATOM     25  N   UNL     1       5.816  -2.909  -0.171  0.00  0.00    -0.295 N 
BRANCH  25  26
ATOM     26  C   UNL     1       6.546  -4.170  -0.323  0.00  0.00    +0.076 C 
ATOM     27  C   UNL     1       6.050  -4.899  -1.573  0.00  0.00    +0.022 C 
ATOM     28  C   UNL     1       6.813  -6.216  -1.732  0.00  0.00    +0.002 C 
ATOM     29  C   UNL     1       6.576  -7.094  -0.501  0.00  0.00    +0.000 C 
ATOM     30  C   UNL     1       7.072  -6.365   0.749  0.00  0.00    +0.002 C 
ATOM     31  C   UNL     1       6.309  -5.048   0.907  0.00  0.00    +0.022 C 
ENDBRANCH  25  26
BRANCH  25  32
ATOM     32  C   UNL     1       6.543  -1.637  -0.171  0.00  0.00    +0.076 C 
ATOM     33  C   UNL     1       7.211  -1.431  -1.532  0.00  0.00    +0.022 C 
ATOM     34  C   UNL     1       7.970  -0.103  -1.532  0.00  0.00    +0.002 C 
ATOM     35  C   UNL     1       9.039  -0.126  -0.437  0.00  0.00    +0.000 C 
ATOM     36  C   UNL     1       8.370  -0.332   0.924  0.00  0.00    +0.002 C 
ATOM     37  C   UNL     1       7.611  -1.660   0.924  0.00  0.00    +0.022 C 
ENDBRANCH  25  32
ENDBRANCH  22  23
ENDBRANCH  21  22
ENDBRANCH   4  21
TORSDOF 8
