REMARK  Name = ZINC13563798
REMARK  3 active torsions:
REMARK  status: ('A' for Active; 'I' for Inactive)
REMARK    1  A    between atoms: C_4  and  N_7
REMARK    2  A    between atoms: C_8  and  C_27
REMARK    3  A    between atoms: N_17  and  C_20
REMARK                            x       y       z     vdW  Elec       q    Type
REMARK                         _______ _______ _______ _____ _____    ______ ____
ROOT
ATOM      1  N   UNL     1       3.645  -0.599  -0.034  0.00  0.00    -0.244 N 
ATOM      2  C   UNL     1       3.845  -2.068  -0.086  0.00  0.00    +0.157 C 
ATOM      3  C   UNL     1       5.055  -2.280   0.853  0.00  0.00    +0.145 C 
ATOM      4  C   UNL     1       5.745  -0.889   0.875  0.00  0.00    +0.249 C 
ATOM      5  O   UNL     1       4.967  -0.058  -0.013  0.00  0.00    -0.257 OA
ATOM      6  C   UNL     1       7.090  -1.160   0.235  0.00  0.00    +0.259 C 
ATOM      7  O   UNL     1       7.966  -0.338   0.073  0.00  0.00    -0.272 OA
ATOM      8  N   UNL     1       7.161  -2.447  -0.123  0.00  0.00    -0.208 N 
ATOM      9  C   UNL     1       6.062  -3.181   0.177  0.00  0.00    +0.235 C 
ATOM     10  O   UNL     1       5.902  -4.361  -0.055  0.00  0.00    -0.274 OA
ENDROOT
BRANCH   8  11
ATOM     11  C   UNL     1       8.286  -2.998  -0.753  0.00  0.00    +0.044 A 
ATOM     12  C   UNL     1       8.630  -2.595  -2.037  0.00  0.00    +0.027 A 
ATOM     13  C   UNL     1       9.739  -3.139  -2.656  0.00  0.00    +0.040 A 
ATOM     14  C   UNL     1      10.506  -4.085  -1.998  0.00  0.00    +0.124 A 
ATOM     15  C   UNL     1      10.164  -4.488  -0.718  0.00  0.00    +0.040 A 
ATOM     16  C   UNL     1       9.060  -3.942  -0.093  0.00  0.00    +0.027 A 
ATOM     17  F   UNL     1      11.590  -4.616  -2.605  0.00  0.00    -0.205 F 
ENDBRANCH   8  11
BRANCH   2  18
ATOM     18  C   UNL     1       4.168  -2.514  -1.488  0.00  0.00    -0.022 A 
ATOM     19  C   UNL     1       4.990  -1.741  -2.288  0.00  0.00    +0.007 A 
ATOM     20  C   UNL     1       5.287  -2.149  -3.574  0.00  0.00    +0.015 A 
ATOM     21  C   UNL     1       4.762  -3.333  -4.062  0.00  0.00    +0.018 A 
ATOM     22  C   UNL     1       3.941  -4.106  -3.262  0.00  0.00    +0.015 A 
ATOM     23  C   UNL     1       3.648  -3.699  -1.974  0.00  0.00    +0.007 A 
ATOM     24 BR   UNL     1       5.168  -3.892  -5.822  0.00  0.00    -0.050 Br
ENDBRANCH   2  18
BRANCH   1  28
ATOM     25  C   UNL     1       0.039   1.480   0.019  0.00  0.00    +0.000 A 
ATOM     26  C   UNL     1       1.235   2.173   0.046  0.00  0.00    +0.002 A 
ATOM     27  C   UNL     1       2.433   1.487   0.028  0.00  0.00    +0.028 A 
ATOM     28  C   UNL     1       2.436   0.098  -0.016  0.00  0.00    +0.065 A 
ATOM     29  C   UNL     1       1.232  -0.595  -0.042  0.00  0.00    +0.028 A 
ATOM     30  C   UNL     1       0.037   0.098  -0.024  0.00  0.00    +0.002 A 
ENDBRANCH   1  28
TORSDOF 3
