REMARK  Name = ZINC20451145
REMARK  13 active torsions:
REMARK  status: ('A' for Active; 'I' for Inactive)
REMARK    1  A    between atoms: C_1  and  C_2
REMARK    2  A    between atoms: C_3  and  C_7
REMARK    3  A    between atoms: N_12  and  C_13
REMARK    4  A    between atoms: C_13  and  C_14
REMARK    5  A    between atoms: C_17  and  S_24
REMARK    6  A    between atoms: N_18  and  C_19
REMARK    7  A    between atoms: C_19  and  C_20
REMARK    8  A    between atoms: C_20  and  C_21
REMARK    9  A    between atoms: C_21  and  C_22
REMARK   10  A    between atoms: C_21  and  C_23
REMARK   11  A    between atoms: S_24  and  C_27
REMARK   12  A    between atoms: C_27  and  C_28
REMARK   13  A    between atoms: C_27  and  C_29
REMARK                            x       y       z     vdW  Elec       q    Type
REMARK                         _______ _______ _______ _____ _____    ______ ____
ROOT
ATOM      1  C   UNL     1      -3.729   1.538  -2.356  0.00  0.00    +0.054 A 
ATOM      2  C   UNL     1      -4.132   2.668  -1.743  0.00  0.00    +0.137 A 
ATOM      3  N   UNL     1      -3.750   2.602  -0.459  0.00  0.00    -0.220 NA
ATOM      4  C   UNL     1      -3.119   1.478  -0.254  0.00  0.00    +0.252 A 
ATOM      5  N   UNL     1      -3.087   0.783  -1.411  0.00  0.00    -0.312 N 
ENDROOT
BRANCH   4   6
ATOM      6  S   UNL     1      -2.431   0.951   1.280  0.00  0.00    +0.032 S 
ATOM      7  O   UNL     1      -2.429  -0.468   1.208  0.00  0.00    -0.166 OA
ATOM      8  O   UNL     1      -3.194   1.626   2.270  0.00  0.00    -0.166 OA
BRANCH   6   9
ATOM      9  C   UNL     1      -0.729   1.579   1.267  0.00  0.00    +0.133 C 
ATOM     10  C   UNL     1      -0.013   1.086   0.008  0.00  0.00    +0.032 C 
ATOM     11  C   UNL     1       0.011   1.072   2.506  0.00  0.00    +0.032 C 
ENDBRANCH   6   9
ENDBRANCH   4   6
BRANCH   1  12
ATOM     12  C   UNL     1      -3.946   1.174  -3.802  0.00  0.00    +0.140 C 
BRANCH  12  17
ATOM     13  C   UNL     1      -2.833   1.006  -5.951  0.00  0.00    +0.111 C 
ATOM     14  C   UNL     1      -2.723   2.195  -6.928  0.00  0.00    +0.026 C 
ATOM     15  C   UNL     1      -2.026   3.286  -6.074  0.00  0.00    +0.017 C 
ATOM     16  C   UNL     1      -2.638   3.026  -4.675  0.00  0.00    +0.085 C 
ATOM     17  N   UNL     1      -2.762   1.555  -4.585  0.00  0.00    -0.288 NA
BRANCH  13  20
ATOM     18  C   UNL     1      -3.196  -1.812  -7.313  0.00  0.00    +0.071 C 
ATOM     19  C   UNL     1      -4.311  -0.962  -6.760  0.00  0.00    +0.106 A 
ATOM     20  C   UNL     1      -4.149   0.298  -6.151  0.00  0.00    +0.124 A 
ATOM     21  N   UNL     1      -5.310   0.753  -5.785  0.00  0.00    -0.052 NA
ATOM     22  O   UNL     1      -6.281  -0.212  -6.158  0.00  0.00    -0.242 OA
ATOM     23  N   UNL     1      -5.572  -1.277  -6.771  0.00  0.00    -0.054 NA
ENDBRANCH  13  20
ENDBRANCH  12  17
ENDBRANCH   1  12
BRANCH   5  24
ATOM     24  C   UNL     1      -2.479  -0.534  -1.618  0.00  0.00    +0.125 C 
BRANCH  24  25
ATOM     25  C   UNL     1      -3.517  -1.624  -1.345  0.00  0.00    +0.024 C 
BRANCH  25  26
ATOM     26  C   UNL     1      -2.882  -2.999  -1.560  0.00  0.00    -0.016 C 
ATOM     27  C   UNL     1      -1.780  -3.220  -0.522  0.00  0.00    +0.007 C 
ATOM     28  C   UNL     1      -3.950  -4.084  -1.409  0.00  0.00    +0.007 C 
ENDBRANCH  25  26
ENDBRANCH  24  25
ENDBRANCH   5  24
TORSDOF 8
