REMARK  Name = ZINC39461295
REMARK  12 active torsions:
REMARK  status: ('A' for Active; 'I' for Inactive)
REMARK    1  A    between atoms: C_1  and  C_2
REMARK    2  A    between atoms: C_2  and  C_4
REMARK    3  A    between atoms: C_2  and  N_16
REMARK    4  A    between atoms: C_7  and  C_10
REMARK    5  A    between atoms: N_16  and  C_17
REMARK    6  A    between atoms: N_16  and  C_18
REMARK    7  A    between atoms: C_18  and  C_19
REMARK    8  A    between atoms: C_26  and  C_36
REMARK    9  A    between atoms: C_28  and  N_30
REMARK   10  A    between atoms: C_31  and  C_33
REMARK   11  A    between atoms: C_36  and  O_38
REMARK   12  A    between atoms: O_38  and  C_39
REMARK                            x       y       z     vdW  Elec       q    Type
REMARK                         _______ _______ _______ _____ _____    ______ ____
ROOT
ATOM      1  C   UNL     1      -0.206  -0.779   3.433  0.00  0.00    +0.026 A 
ATOM      2  C   UNL     1       0.539   0.217   4.032  0.00  0.00    +0.022 A 
ATOM      3  C   UNL     1       1.176  -0.027   5.235  0.00  0.00    +0.010 A 
ATOM      4  C   UNL     1       1.061  -1.286   5.830  0.00  0.00    +0.006 A 
ATOM      5  C   UNL     1       0.302  -2.235   5.146  0.00  0.00    +0.103 A 
ATOM      6  N   UNL     1      -0.306  -1.964   4.008  0.00  0.00    -0.247 NA
ATOM      7  S   UNL     1       0.382  -3.730   6.109  0.00  0.00    -0.089 S 
ATOM      8  C   UNL     1       1.761  -3.265   7.237  0.00  0.00    +0.186 C 
ATOM      9  C   UNL     1       1.664  -1.726   7.140  0.00  0.00    +0.130 C 
ENDROOT
BRANCH   9  10
ATOM     10  N   UNL     1       0.833  -1.229   8.240  0.00  0.00    -0.307 N 
ATOM     11  C   UNL     1       1.103  -0.035   8.802  0.00  0.00    +0.217 C 
ATOM     12  O   UNL     1       2.034   0.629   8.398  0.00  0.00    -0.275 OA
ATOM     13  H   UNL     1       0.088  -1.760   8.563  0.00  0.00    +0.149 HD
BRANCH  11  14
ATOM     14  C   UNL     1       0.248   0.476   9.933  0.00  0.00    +0.075 C 
ATOM     15  C   UNL     1      -0.641   1.690   9.654  0.00  0.00    +0.013 C 
ATOM     16  C   UNL     1       0.606   1.839  10.529  0.00  0.00    +0.013 C 
ENDBRANCH  11  14
ENDBRANCH   9  10
BRANCH   8  17
ATOM     17  C   UNL     1       1.506  -3.745   8.643  0.00  0.00    +0.322 C 
ATOM     18  O   UNL     1       2.434  -3.941   9.391  0.00  0.00    -0.250 OA
BRANCH  17  19
ATOM     19  O   UNL     1       0.249  -3.956   9.063  0.00  0.00    -0.467 OA
ATOM     20  C   UNL     1       0.082  -4.411  10.407  0.00  0.00    +0.280 C 
ENDBRANCH  17  19
ENDBRANCH   8  17
BRANCH   1  21
ATOM     21  C   UNL     1      -0.910  -0.513   2.127  0.00  0.00    -0.022 C 
BRANCH  21  22
ATOM     22  N   UNL     1      -0.066  -0.968   1.014  0.00  0.00    +0.385 N 
ATOM     23  C   UNL     1       0.090  -2.427   1.082  0.00  0.00    -0.095 C 
ATOM     24  H   UNL     1       0.841  -0.529   1.079  0.00  0.00    -0.081 HD
BRANCH  22  26
ATOM     25  C   UNL     1      -2.124  -1.150  -0.300  0.00  0.00    -0.011 C 
ATOM     26  C   UNL     1      -0.697  -0.601  -0.261  0.00  0.00    -0.041 C 
BRANCH  26  27
ATOM     27  C   UNL     1      -0.733   0.923  -0.391  0.00  0.00    +0.139 C 
ATOM     28  C   UNL     1      -1.090   1.331  -1.810  0.00  0.00    +0.030 C 
ATOM     29  C   UNL     1      -0.011   2.021  -2.228  0.00  0.00    +0.091 C 
ATOM     30  N   UNL     1       0.929   2.071  -1.248  0.00  0.00    -0.154 NA
ATOM     31  N   UNL     1       0.611   1.494  -0.202  0.00  0.00    -0.181 NA
BRANCH  29  32
ATOM     32  C   UNL     1       0.131   2.636  -3.571  0.00  0.00    +0.002 A 
ATOM     33  C   UNL     1      -0.899   2.528  -4.503  0.00  0.00    +0.010 A 
ATOM     34  C   UNL     1      -0.761   3.103  -5.750  0.00  0.00    +0.001 A 
ATOM     35  C   UNL     1       0.397   3.786  -6.075  0.00  0.00    +0.000 A 
ATOM     36  C   UNL     1       1.423   3.897  -5.154  0.00  0.00    +0.001 A 
ATOM     37  C   UNL     1       1.294   3.330  -3.902  0.00  0.00    +0.010 A 
ENDBRANCH  29  32
ENDBRANCH  26  27
ENDBRANCH  22  26
ENDBRANCH  21  22
ENDBRANCH   1  21
TORSDOF 9
