REMARK  Name = ZINC32857840
REMARK  8 active torsions:
REMARK  status: ('A' for Active; 'I' for Inactive)
REMARK    1  A    between atoms: C_1  and  C_2
REMARK    2  A    between atoms: C_2  and  C_4
REMARK    3  A    between atoms: C_2  and  N_15
REMARK    4  A    between atoms: C_7  and  N_10
REMARK    5  A    between atoms: N_15  and  C_16
REMARK    6  A    between atoms: N_15  and  C_17
REMARK    7  A    between atoms: C_17  and  C_18
REMARK    8  A    between atoms: N_20  and  C_21
REMARK                            x       y       z     vdW  Elec       q    Type
REMARK                         _______ _______ _______ _____ _____    ______ ____
ROOT
ATOM      1  N   UNL     1      -0.693   1.222   1.219  0.00  0.00    +0.388 N 
ATOM      2  C   UNL     1      -0.108   0.627   0.010  0.00  0.00    -0.095 C 
ATOM      3  H   UNL     1      -1.721   0.844   1.318  0.00  0.00    -0.081 HD
ENDROOT
BRANCH   1   5
ATOM      4  C   UNL     1       0.005  -0.705   2.560  0.00  0.00    -0.008 C 
ATOM      5  C   UNL     1       0.054   0.818   2.418  0.00  0.00    -0.041 C 
BRANCH   5   6
ATOM      6  C   UNL     1      -0.566   1.456   3.635  0.00  0.00    -0.061 A 
ATOM      7  C   UNL     1      -1.940   1.451   3.792  0.00  0.00    +0.004 A 
ATOM      8  C   UNL     1      -2.510   2.030   4.909  0.00  0.00    +0.028 A 
ATOM      9  C   UNL     1      -1.704   2.628   5.867  0.00  0.00    +0.067 A 
ATOM     10  C   UNL     1      -0.325   2.637   5.704  0.00  0.00    +0.028 A 
ATOM     11  C   UNL     1       0.240   2.050   4.588  0.00  0.00    +0.004 A 
BRANCH   9  12
ATOM     12  N   UNL     1      -2.280   3.222   6.999  0.00  0.00    -0.220 N 
ATOM     13  C   UNL     1      -3.594   3.297   7.292  0.00  0.00    +0.225 A 
ATOM     14  N   UNL     1      -3.719   3.924   8.433  0.00  0.00    -0.222 NA
ATOM     15  C   UNL     1      -2.517   4.270   8.893  0.00  0.00    +0.245 A 
ATOM     16  N   UNL     1      -1.605   3.862   8.050  0.00  0.00    -0.154 NA
ENDBRANCH   9  12
ENDBRANCH   5   6
ENDBRANCH   1   5
BRANCH   1  17
ATOM     17  C   UNL     1      -0.758   2.685   1.108  0.00  0.00    +0.019 C 
BRANCH  17  18
ATOM     18  C   UNL     1      -1.727   3.063   0.018  0.00  0.00    +0.201 C 
ATOM     19  O   UNL     1      -2.307   2.199  -0.605  0.00  0.00    -0.278 OA
ATOM     20  N   UNL     1      -1.950   4.362  -0.265  0.00  0.00    -0.286 N 
ATOM     21  H   UNL     1      -1.478   5.147   0.345  0.00  0.00    +0.155 HD
BRANCH  20  22
ATOM     22  C   UNL     1      -2.781   4.713  -1.335  0.00  0.00    +0.052 A 
ATOM     23  C   UNL     1      -3.883   3.928  -1.646  0.00  0.00    +0.026 A 
ATOM     24  C   UNL     1      -4.702   4.276  -2.703  0.00  0.00    +0.017 A 
ATOM     25  C   UNL     1      -4.426   5.406  -3.451  0.00  0.00    +0.019 A 
ATOM     26  C   UNL     1      -3.329   6.191  -3.144  0.00  0.00    +0.037 A 
ATOM     27  C   UNL     1      -2.509   5.851  -2.085  0.00  0.00    +0.063 A 
ATOM     28 CL   UNL     1      -1.137   6.840  -1.695  0.00  0.00    -0.082 Cl
ATOM     29 BR   UNL     1      -5.550   5.879  -4.897  0.00  0.00    -0.050 Br
ENDBRANCH  20  22
ENDBRANCH  17  18
ENDBRANCH   1  17
TORSDOF 6
