REMARK  Name = ZINC40356113
REMARK  7 active torsions:
REMARK  status: ('A' for Active; 'I' for Inactive)
REMARK    1  A    between atoms: C_4  and  C_7
REMARK    2  A    between atoms: C_7  and  N_8
REMARK    3  A    between atoms: C_11  and  N_14
REMARK    4  A    between atoms: N_14  and  C_15
REMARK    5  A    between atoms: C_15  and  C_16
REMARK    6  A    between atoms: N_24  and  C_25
REMARK    7  A    between atoms: C_30  and  C_31
REMARK                            x       y       z     vdW  Elec       q    Type
REMARK                         _______ _______ _______ _____ _____    ______ ____
ROOT
ATOM      1  N   UNL     1       5.465  -2.775   4.909  0.00  0.00    -0.278 N 
ATOM      2  C   UNL     1       5.546  -1.676   5.685  0.00  0.00    +0.307 C 
ATOM      3  O   UNL     1       5.265  -0.586   5.226  0.00  0.00    -0.252 OA
ATOM      4  N   UNL     1       5.938  -1.786   6.970  0.00  0.00    -0.269 N 
ATOM      5  H   UNL     1       6.084  -2.662   7.359  0.00  0.00    +0.156 HD
ENDROOT
BRANCH   1   9
ATOM      6  N   UNL     1       4.165  -0.953   1.338  0.00  0.00    +0.382 N 
ATOM      7  C   UNL     1       3.221  -1.865   1.995  0.00  0.00    -0.077 C 
ATOM      8  C   UNL     1       3.629  -2.060   3.457  0.00  0.00    +0.004 C 
ATOM      9  C   UNL     1       5.038  -2.656   3.513  0.00  0.00    +0.074 C 
ATOM     10  C   UNL     1       6.002  -1.733   2.760  0.00  0.00    +0.004 C 
ATOM     11  C   UNL     1       5.506  -1.550   1.324  0.00  0.00    -0.077 C 
ATOM     12  H   UNL     1       4.192  -0.079   1.842  0.00  0.00    -0.081 HD
BRANCH   6  13
ATOM     13  C   UNL     1       3.725  -0.707  -0.042  0.00  0.00    -0.043 C 
BRANCH  13  17
ATOM     14  C   UNL     1      -0.021   1.345  -0.002  0.00  0.00    +0.000 A 
ATOM     15  C   UNL     1       1.160   2.063  -0.003  0.00  0.00    +0.000 A 
ATOM     16  C   UNL     1       2.373   1.399  -0.016  0.00  0.00    +0.002 A 
ATOM     17  C   UNL     1       2.404   0.017  -0.027  0.00  0.00    -0.064 A 
ATOM     18  C   UNL     1       1.223  -0.701  -0.025  0.00  0.00    +0.002 A 
ATOM     19  C   UNL     1       0.010  -0.037  -0.013  0.00  0.00    +0.000 A 
ENDBRANCH  13  17
ENDBRANCH   6  13
ENDBRANCH   1   9
BRANCH   4  20
ATOM     20  C   UNL     1       6.136  -0.635   7.742  0.00  0.00    +0.046 A 
ATOM     21  C   UNL     1       6.439   0.572   7.126  0.00  0.00    +0.024 A 
ATOM     22  C   UNL     1       6.634   1.706   7.891  0.00  0.00    +0.002 A 
ATOM     23  C   UNL     1       6.527   1.639   9.268  0.00  0.00    +0.001 A 
ATOM     24  C   UNL     1       6.226   0.439   9.884  0.00  0.00    +0.014 A 
ATOM     25  C   UNL     1       6.024  -0.697   9.124  0.00  0.00    +0.076 A 
BRANCH  25  26
ATOM     26  C   UNL     1       5.689  -2.004   9.796  0.00  0.00    +0.419 C 
ATOM     27  F   UNL     1       5.632  -1.815  11.181  0.00  0.00    -0.166 F 
ATOM     28  F   UNL     1       4.450  -2.461   9.336  0.00  0.00    -0.166 F 
ATOM     29  F   UNL     1       6.676  -2.949   9.495  0.00  0.00    -0.166 F 
ENDBRANCH  25  26
ENDBRANCH   4  20
BRANCH   1  30
ATOM     30  C   UNL     1       5.804  -4.089   5.462  0.00  0.00    +0.144 C 
BRANCH  30  31
ATOM     31  C   UNL     1       7.272  -4.358   5.254  0.00  0.00    -0.030 A 
ATOM     32  C   UNL     1       7.703  -4.983   4.099  0.00  0.00    +0.005 A 
ATOM     33  C   UNL     1       9.050  -5.230   3.908  0.00  0.00    +0.000 A 
ATOM     34  C   UNL     1       9.965  -4.851   4.872  0.00  0.00    +0.000 A 
ATOM     35  C   UNL     1       9.534  -4.225   6.026  0.00  0.00    +0.000 A 
ATOM     36  C   UNL     1       8.188  -3.974   6.215  0.00  0.00    +0.005 A 
ENDBRANCH  30  31
ENDBRANCH   1  30
TORSDOF 7
