REMARK  Name = ZINC66372230
REMARK  3 active torsions:
REMARK  status: ('A' for Active; 'I' for Inactive)
REMARK    1  A    between atoms: C_8  and  C_28
REMARK    2  A    between atoms: C_12  and  C_14
REMARK    3  A    between atoms: C_17  and  C_20
REMARK                            x       y       z     vdW  Elec       q    Type
REMARK                         _______ _______ _______ _____ _____    ______ ____
ROOT
ATOM      1  C   UNL     1       0.470   1.289   2.631  0.00  0.00    +0.000 A 
ATOM      2  C   UNL     1      -0.199   1.231   1.422  0.00  0.00    +0.000 A 
ATOM      3  C   UNL     1       0.064   0.199   0.544  0.00  0.00    +0.005 A 
ATOM      4  C   UNL     1       0.991  -0.782   0.868  0.00  0.00    -0.027 A 
ATOM      5  C   UNL     1       1.650  -0.731   2.075  0.00  0.00    -0.040 A 
ATOM      6  C   UNL     1       1.390   0.314   2.954  0.00  0.00    +0.004 A 
ATOM      7  C   UNL     1       2.646  -1.775   2.508  0.00  0.00    +0.067 C 
ATOM      8  C   UNL     1       3.178  -2.551   1.304  0.00  0.00    +0.166 C 
ATOM      9  N   UNL     1       2.028  -2.947   0.475  0.00  0.00    -0.282 N 
ATOM     10  C   UNL     1       1.241  -1.874  -0.142  0.00  0.00    +0.144 C 
ATOM     11  C   UNL     1       1.711  -4.244   0.291  0.00  0.00    +0.260 C 
ATOM     12  O   UNL     1       2.331  -5.109   0.872  0.00  0.00    -0.271 OA
ENDROOT
BRANCH  11  13
ATOM     13  C   UNL     1       0.585  -4.620  -0.638  0.00  0.00    +0.295 C 
ATOM     14  C   UNL     1      -0.780  -4.170  -0.064  0.00  0.00    +0.116 C 
ATOM     15  C   UNL     1      -1.696  -5.313  -0.459  0.00  0.00    +0.094 C 
ATOM     16  N   UNL     1      -0.964  -6.319  -0.801  0.00  0.00    -0.088 NA
ATOM     17  O   UNL     1       0.422  -6.051  -0.699  0.00  0.00    -0.380 OA
BRANCH  15  18
ATOM     18  C   UNL     1      -3.172  -5.280  -0.452  0.00  0.00    +0.037 A 
ATOM     19  C   UNL     1      -3.846  -4.121  -0.062  0.00  0.00    +0.051 A 
ATOM     20  C   UNL     1      -5.226  -4.097  -0.058  0.00  0.00    +0.124 A 
ATOM     21  C   UNL     1      -5.943  -5.221  -0.439  0.00  0.00    +0.041 A 
ATOM     22  C   UNL     1      -5.283  -6.372  -0.825  0.00  0.00    +0.042 A 
ATOM     23  C   UNL     1      -3.901  -6.408  -0.841  0.00  0.00    +0.132 A 
ATOM     24  F   UNL     1      -3.257  -7.531  -1.224  0.00  0.00    -0.205 F 
ATOM     25  F   UNL     1      -5.880  -2.977   0.319  0.00  0.00    -0.205 F 
ENDBRANCH  15  18
ENDBRANCH  11  13
BRANCH   8  26
ATOM     26  C   UNL     1       3.916  -3.778   1.774  0.00  0.00    +0.231 C 
ATOM     27  O   UNL     1       4.976  -4.079   1.268  0.00  0.00    -0.274 OA
ATOM     28  N   UNL     1       3.398  -4.540   2.757  0.00  0.00    -0.328 N 
ATOM     29  H   UNL     1       2.550  -4.299   3.162  0.00  0.00    +0.145 HD
ATOM     30  H   UNL     1       3.873  -5.330   3.060  0.00  0.00    +0.145 HD
ENDBRANCH   8  26
TORSDOF 3
