REMARK  Name = ZINC32971711
REMARK  12 active torsions:
REMARK  status: ('A' for Active; 'I' for Inactive)
REMARK    1  A    between atoms: C_1  and  C_2
REMARK    2  A    between atoms: C_5  and  S_8
REMARK    3  A    between atoms: S_8  and  N_11
REMARK    4  A    between atoms: N_11  and  C_12
REMARK    5  A    between atoms: N_11  and  C_30
REMARK    6  A    between atoms: C_12  and  C_13
REMARK    7  A    between atoms: C_13  and  C_14
REMARK    8  A    between atoms: N_16  and  C_17
REMARK    9  A    between atoms: C_17  and  C_19
REMARK   10  A    between atoms: C_17  and  C_20
REMARK   11  A    between atoms: C_23  and  S_26
REMARK   12  A    between atoms: S_26  and  N_29
REMARK                            x       y       z     vdW  Elec       q    Type
REMARK                         _______ _______ _______ _____ _____    ______ ____
ROOT
ATOM      1  C   UNL     1       2.532   0.576  -0.157  0.00  0.00    +0.116 C 
ENDROOT
BRANCH   1   2
ATOM      2  C   UNL     1       1.124   1.111  -0.142  0.00  0.00    +0.215 C 
ATOM      3  O   UNL     1       0.930   2.304  -0.035  0.00  0.00    -0.276 OA
ATOM      4  N   UNL     1       0.080   0.266  -0.247  0.00  0.00    -0.309 N 
ATOM      5  H   UNL     1       0.255  -0.816  -0.340  0.00  0.00    +0.149 HD
BRANCH   4   6
ATOM      6  C   UNL     1      -1.289   0.787  -0.238  0.00  0.00    +0.100 C 
ATOM      7  C   UNL     1      -1.764   0.950   1.207  0.00  0.00    +0.033 C 
BRANCH   6   8
ATOM      8  C   UNL     1      -2.198  -0.175  -0.960  0.00  0.00    -0.027 A 
ATOM      9  C   UNL     1      -2.034  -1.537  -0.794  0.00  0.00    +0.007 A 
ATOM     10  C   UNL     1      -2.870  -2.420  -1.452  0.00  0.00    +0.029 A 
ATOM     11  C   UNL     1      -3.864  -1.940  -2.284  0.00  0.00    +0.105 A 
ATOM     12  C   UNL     1      -4.025  -0.577  -2.454  0.00  0.00    +0.029 A 
ATOM     13  C   UNL     1      -3.192   0.305  -1.792  0.00  0.00    +0.007 A 
BRANCH  11  14
ATOM     14  S   UNL     1      -4.926  -3.064  -3.128  0.00  0.00    +0.056 S 
ATOM     15  O   UNL     1      -4.920  -4.270  -2.376  0.00  0.00    -0.153 OA
ATOM     16  O   UNL     1      -6.122  -2.353  -3.419  0.00  0.00    -0.153 OA
BRANCH  14  17
ATOM     17  N   UNL     1      -4.215  -3.410  -4.583  0.00  0.00    -0.204 NA
ATOM     18  H   UNL     1      -4.849  -4.112  -5.143  0.00  0.00    +0.144 HD
ATOM     19  H   UNL     1      -3.228  -3.865  -4.410  0.00  0.00    +0.144 HD
ENDBRANCH  14  17
ENDBRANCH  11  14
ENDBRANCH   6   8
ENDBRANCH   4   6
ENDBRANCH   1   2
BRANCH   1  20
ATOM     20  C   UNL     1       3.521   1.736  -0.023  0.00  0.00    +0.141 C 
BRANCH  20  21
ATOM     21  N   UNL     1       4.890   1.215  -0.038  0.00  0.00    -0.203 N 
BRANCH  21  22
ATOM     22  C   UNL     1       5.475   0.756   1.144  0.00  0.00    +0.051 A 
ATOM     23  C   UNL     1       5.636   1.618   2.222  0.00  0.00    +0.025 A 
ATOM     24  C   UNL     1       6.210   1.159   3.391  0.00  0.00    +0.002 A 
ATOM     25  C   UNL     1       6.636  -0.153   3.486  0.00  0.00    +0.000 A 
ATOM     26  C   UNL     1       6.482  -1.012   2.413  0.00  0.00    +0.002 A 
ATOM     27  C   UNL     1       5.903  -0.562   1.243  0.00  0.00    +0.025 A 
ENDBRANCH  21  22
BRANCH  21  28
ATOM     28  S   UNL     1       5.743   1.170  -1.456  0.00  0.00    +0.075 S 
ATOM     29  O   UNL     1       6.813   0.256  -1.258  0.00  0.00    -0.150 OA
ATOM     30  O   UNL     1       4.791   1.013  -2.499  0.00  0.00    -0.150 OA
BRANCH  28  35
ATOM     31  C   UNL     1       8.243   6.610  -2.207  0.00  0.00    +0.044 C 
ATOM     32  C   UNL     1       7.619   5.251  -2.020  0.00  0.00    -0.050 A 
ATOM     33  C   UNL     1       8.304   4.264  -1.337  0.00  0.00    +0.005 A 
ATOM     34  C   UNL     1       7.731   3.017  -1.165  0.00  0.00    +0.029 A 
ATOM     35  C   UNL     1       6.473   2.759  -1.676  0.00  0.00    +0.109 A 
ATOM     36  C   UNL     1       5.790   3.744  -2.363  0.00  0.00    +0.029 A 
ATOM     37  C   UNL     1       6.361   4.992  -2.531  0.00  0.00    +0.005 A 
ENDBRANCH  28  35
ENDBRANCH  21  28
ENDBRANCH  20  21
ENDBRANCH   1  20
TORSDOF 10
