REMARK  Name = ZINC13274457
REMARK  9 active torsions:
REMARK  status: ('A' for Active; 'I' for Inactive)
REMARK    1  A    between atoms: N_9  and  C_28
REMARK    2  A    between atoms: C_10  and  S_12
REMARK    3  A    between atoms: S_12  and  C_13
REMARK    4  A    between atoms: C_16  and  C_22
REMARK    5  A    between atoms: C_18  and  N_19
REMARK    6  A    between atoms: N_24  and  C_25
REMARK    7  A    between atoms: C_25  and  C_26
REMARK    8  A    between atoms: C_28  and  C_29
REMARK    9  A    between atoms: C_29  and  C_30
REMARK                            x       y       z     vdW  Elec       q    Type
REMARK                         _______ _______ _______ _____ _____    ______ ____
ROOT
ATOM      1  S   UNL     1      -5.258   4.145   0.052  0.00  0.00    -0.049 S 
ENDROOT
BRANCH   1  11
ATOM      2  C   UNL     1      -1.897   9.849   0.532  0.00  0.00    +0.001 A 
ATOM      3  C   UNL     1      -1.028   8.777   0.375  0.00  0.00    +0.002 A 
ATOM      4  C   UNL     1      -1.500   7.501   0.255  0.00  0.00    +0.028 A 
ATOM      5  C   UNL     1      -2.878   7.267   0.291  0.00  0.00    +0.079 A 
ATOM      6  C   UNL     1      -3.760   8.360   0.453  0.00  0.00    +0.065 A 
ATOM      7  C   UNL     1      -3.250   9.652   0.572  0.00  0.00    +0.015 A 
ATOM      8  C   UNL     1      -5.203   8.088   0.488  0.00  0.00    +0.262 A 
ATOM      9  O   UNL     1      -6.012   8.987   0.624  0.00  0.00    -0.267 OA
ATOM     10  N   UNL     1      -5.600   6.801   0.358  0.00  0.00    -0.287 N 
ATOM     11  C   UNL     1      -4.681   5.802   0.210  0.00  0.00    +0.177 A 
ATOM     12  N   UNL     1      -3.389   6.019   0.176  0.00  0.00    -0.223 NA
BRANCH  10  13
ATOM     13  C   UNL     1      -7.029   6.475   0.380  0.00  0.00    +0.138 C 
BRANCH  13  14
ATOM     14  C   UNL     1      -7.467   6.205   1.821  0.00  0.00    +0.147 C 
BRANCH  14  15
ATOM     15  C   UNL     1      -8.936   5.870   1.844  0.00  0.00    +0.358 C 
ATOM     16  O   UNL     1      -9.568   5.850   0.814  0.00  0.00    -0.246 OA
ATOM     17  O   UNL     1      -9.544   5.594   3.009  0.00  0.00    -0.246 OA
ENDBRANCH  14  15
ENDBRANCH  13  14
ENDBRANCH  10  13
ENDBRANCH   1  11
BRANCH   1  18
ATOM     18  C   UNL     1      -3.719   3.293  -0.050  0.00  0.00    +0.046 A 
ATOM     19  C   UNL     1      -3.255   2.842  -1.283  0.00  0.00    +0.018 A 
ATOM     20  C   UNL     1      -2.051   2.182  -1.367  0.00  0.00    +0.014 A 
ATOM     21  C   UNL     1      -1.299   1.953  -0.211  0.00  0.00    +0.039 A 
ATOM     22  C   UNL     1      -1.768   2.406   1.025  0.00  0.00    +0.047 A 
ATOM     23  C   UNL     1      -2.970   3.071   1.102  0.00  0.00    +0.141 A 
BRANCH  21  24
ATOM     24  C   UNL     1      -0.010   1.241  -0.297  0.00  0.00    +0.245 C 
ATOM     25  O   UNL     1       0.646   1.047   0.708  0.00  0.00    -0.270 OA
ATOM     26  N   UNL     1       0.438   0.800  -1.489  0.00  0.00    -0.301 N 
ATOM     27  H   UNL     1      -0.085   0.954  -2.292  0.00  0.00    +0.150 HD
BRANCH  26  28
ATOM     28  C   UNL     1       1.715   0.087  -1.574  0.00  0.00    +0.229 C 
BRANCH  28  29
ATOM     29  C   UNL     1       1.984  -0.295  -3.007  0.00  0.00    +0.373 C 
ATOM     30  O   UNL     1       1.189  -0.002  -3.869  0.00  0.00    -0.245 OA
ATOM     31  O   UNL     1       3.105  -0.961  -3.325  0.00  0.00    -0.245 OA
ENDBRANCH  28  29
ENDBRANCH  26  28
ENDBRANCH  21  24
BRANCH  23  32
ATOM     32  N   UNL     1      -3.467   3.551   2.411  0.00  0.00    +0.058 N 
ATOM     33  O   UNL     1      -2.812   3.358   3.419  0.00  0.00    -0.126 OA
ATOM     34  O   UNL     1      -4.532   4.140   2.479  0.00  0.00    -0.126 OA
ENDBRANCH  23  32
ENDBRANCH   1  18
TORSDOF 9
