REMARK  Name = ZINC38557262
REMARK  10 active torsions:
REMARK  status: ('A' for Active; 'I' for Inactive)
REMARK    1  A    between atoms: C_1  and  C_2
REMARK    2  A    between atoms: C_5  and  N_9
REMARK    3  A    between atoms: C_6  and  C_8
REMARK    4  A    between atoms: C_13  and  C_14
REMARK    5  A    between atoms: C_16  and  C_24
REMARK    6  A    between atoms: C_24  and  C_25
REMARK    7  A    between atoms: C_25  and  N_26
REMARK    8  A    between atoms: C_27  and  C_29
REMARK    9  A    between atoms: C_29  and  C_30
REMARK   10  A    between atoms: C_30  and  C_31
REMARK                            x       y       z     vdW  Elec       q    Type
REMARK                         _______ _______ _______ _____ _____    ______ ____
ROOT
ATOM      1  C   UNL     1      -3.518  -6.442   0.081  0.00  0.00    +0.130 C 
ATOM      2  C   UNL     1      -4.445  -6.972  -0.990  0.00  0.00    -0.033 C 
ATOM      3  C   UNL     1      -5.473  -7.560  -0.339  0.00  0.00    -0.000 A 
ATOM      4  C   UNL     1      -6.682  -8.251  -0.805  0.00  0.00    +0.010 A 
ATOM      5  C   UNL     1      -7.548  -8.746   0.107  0.00  0.00    +0.001 A 
ATOM      6  C   UNL     1      -7.322  -8.616   1.484  0.00  0.00    +0.002 A 
ATOM      7  C   UNL     1      -6.235  -7.995   1.990  0.00  0.00    +0.026 A 
ATOM      8  C   UNL     1      -5.258  -7.437   1.121  0.00  0.00    +0.043 A 
ATOM      9  N   UNL     1      -4.138  -6.796   1.363  0.00  0.00    -0.374 N 
ATOM     10  H   UNL     1      -3.780  -6.590   2.241  0.00  0.00    +0.161 HD
ENDROOT
BRANCH   1  15
ATOM     11  N   UNL     1       0.073  -4.202   0.297  0.00  0.00    -0.188 N 
ATOM     12  C   UNL     1      -1.091  -4.887   0.315  0.00  0.00    +0.263 C 
ATOM     13  O   UNL     1      -2.139  -4.341   0.603  0.00  0.00    -0.269 OA
ATOM     14  C   UNL     1      -1.045  -6.329  -0.029  0.00  0.00    +0.100 C 
ATOM     15  C   UNL     1      -2.163  -7.091  -0.037  0.00  0.00    +0.020 C 
ATOM     16  C   UNL     1       0.280  -6.895  -0.364  0.00  0.00    +0.276 C 
ATOM     17  O   UNL     1       0.413  -8.197  -0.689  0.00  0.00    -0.268 OA
ATOM     18  N   UNL     1       1.328  -6.094  -0.337  0.00  0.00    -0.123 NA
ATOM     19  C   UNL     1       1.227  -4.803  -0.025  0.00  0.00    +0.340 C 
ATOM     20  O   UNL     1       2.242  -4.131  -0.028  0.00  0.00    -0.250 OA
BRANCH  11  25
ATOM     21  C   UNL     1       0.071   1.325   1.588  0.00  0.00    +0.044 C 
ATOM     22  C   UNL     1       0.071  -0.143   1.245  0.00  0.00    -0.050 A 
ATOM     23  C   UNL     1      -0.110  -0.545  -0.066  0.00  0.00    +0.005 A 
ATOM     24  C   UNL     1      -0.110  -1.889  -0.383  0.00  0.00    +0.024 A 
ATOM     25  C   UNL     1       0.073  -2.837   0.616  0.00  0.00    +0.049 A 
ATOM     26  C   UNL     1       0.255  -2.430   1.930  0.00  0.00    -0.028 A 
ATOM     27  C   UNL     1       0.259  -1.084   2.241  0.00  0.00    +0.008 A 
ATOM     28  C   UNL     1       0.453  -3.455   3.017  0.00  0.00    +0.046 C 
ENDBRANCH  11  25
ENDBRANCH   1  15
BRANCH   2  29
ATOM     29  C   UNL     1      -4.259  -6.866  -2.482  0.00  0.00    +0.052 C 
BRANCH  29  30
ATOM     30  C   UNL     1      -5.436  -7.539  -3.191  0.00  0.00    +0.108 C 
BRANCH  30  31
ATOM     31  N   UNL     1      -5.256  -7.436  -4.642  0.00  0.00    -0.315 N 
ATOM     32  C   UNL     1      -6.176  -7.962  -5.474  0.00  0.00    +0.214 C 
ATOM     33  O   UNL     1      -7.153  -8.521  -5.023  0.00  0.00    -0.276 OA
ATOM     34  H   UNL     1      -4.474  -6.989  -5.003  0.00  0.00    +0.149 HD
BRANCH  32  35
ATOM     35  C   UNL     1      -5.991  -7.856  -6.966  0.00  0.00    +0.107 C 
BRANCH  35  36
ATOM     36  C   UNL     1      -7.167  -8.529  -7.675  0.00  0.00    +0.134 C 
BRANCH  36  37
ATOM     37  C   UNL     1      -6.982  -8.423  -9.167  0.00  0.00    +0.356 C 
ATOM     38  O   UNL     1      -6.000  -7.861  -9.621  0.00  0.00    -0.246 OA
ATOM     39  O   UNL     1      -7.814  -8.899  -9.920  0.00  0.00    -0.246 OA
ENDBRANCH  36  37
ENDBRANCH  35  36
ENDBRANCH  32  35
ENDBRANCH  30  31
ENDBRANCH  29  30
ENDBRANCH   2  29
TORSDOF 8
