REMARK  Name = ZINC38664809
REMARK  6 active torsions:
REMARK  status: ('A' for Active; 'I' for Inactive)
REMARK    1  A    between atoms: N_11  and  C_12
REMARK    2  A    between atoms: C_14  and  O_28
REMARK    3  A    between atoms: C_16  and  O_27
REMARK    4  A    between atoms: C_18  and  C_21
REMARK    5  A    between atoms: C_21  and  O_22
REMARK    6  A    between atoms: O_22  and  P_23
REMARK                            x       y       z     vdW  Elec       q    Type
REMARK                         _______ _______ _______ _____ _____    ______ ____
ROOT
ATOM      1  C   UNL     1      -1.159  -0.898   0.009  0.00  0.00    +0.240 C 
ATOM      2  C   UNL     1      -1.966  -0.721   1.319  0.00  0.00    +0.193 C 
ATOM      3  C   UNL     1      -3.374  -1.194   0.865  0.00  0.00    +0.178 C 
ATOM      4  C   UNL     1      -3.420  -0.721  -0.604  0.00  0.00    +0.178 C 
ATOM      5  O   UNL     1      -2.068  -0.542  -1.045  0.00  0.00    -0.348 OA
ENDROOT
BRANCH   1  16
ATOM      6  C   UNL     1      -0.018   1.465   0.010  0.00  0.00    +0.253 C 
ATOM      7  N   UNL     1       1.382   1.904  -0.001  0.00  0.00    -0.257 NA
ATOM      8  C   UNL     1       2.143   0.864  -0.014  0.00  0.00    +0.160 C 
ATOM      9  C   UNL     1       3.624   0.684  -0.030  0.00  0.00    +0.273 C 
ATOM     10  O   UNL     1       4.377   1.637  -0.031  0.00  0.00    -0.268 OA
ATOM     11  N   UNL     1       4.093  -0.584  -0.042  0.00  0.00    -0.233 N 
ATOM     12  C   UNL     1       3.260  -1.634  -0.040  0.00  0.00    +0.331 C 
ATOM     13  O   UNL     1       3.748  -2.749  -0.051  0.00  0.00    -0.250 OA
ATOM     14  N   UNL     1       1.928  -1.536  -0.025  0.00  0.00    -0.146 NA
ATOM     15  C   UNL     1       1.316  -0.371  -0.013  0.00  0.00    +0.149 C 
ATOM     16  N   UNL     1       0.002  -0.004   0.002  0.00  0.00    -0.268 N 
ATOM     17  H   UNL     1       5.051  -0.737  -0.052  0.00  0.00    +0.159 HD
ENDBRANCH   1  16
BRANCH   3  18
ATOM     18  O   UNL     1      -3.483  -2.617   0.948  0.00  0.00    -0.386 OA
ATOM     19  H   UNL     1      -3.373  -2.967   1.843  0.00  0.00    +0.210 HD
ENDBRANCH   3  18
BRANCH   2  20
ATOM     20  O   UNL     1      -1.452  -1.556   2.358  0.00  0.00    -0.385 OA
ATOM     21  H   UNL     1      -1.927  -1.478   3.197  0.00  0.00    +0.210 HD
ENDBRANCH   2  20
BRANCH   4  22
ATOM     22  C   UNL     1      -4.113  -1.777  -1.468  0.00  0.00    +0.206 C 
BRANCH  22  23
ATOM     23  O   UNL     1      -4.256  -1.282  -2.801  0.00  0.00    -0.281 OA
BRANCH  23  24
ATOM     24  P   UNL     1      -4.944  -2.133  -3.983  0.00  0.00    +0.532 P 
ATOM     25  O   UNL     1      -4.224  -3.518  -4.117  0.00  0.00    -0.222 OA
ATOM     26  O   UNL     1      -6.457  -2.361  -3.649  0.00  0.00    -0.115 OA
ATOM     27  O   UNL     1      -4.819  -1.347  -5.332  0.00  0.00    -0.115 OA
ENDBRANCH  23  24
ENDBRANCH  22  23
ENDBRANCH   4  22
TORSDOF 6
