REMARK  Name = ZINC20540963
REMARK  11 active torsions:
REMARK  status: ('A' for Active; 'I' for Inactive)
REMARK    1  A    between atoms: C_1  and  C_2
REMARK    2  A    between atoms: C_2  and  C_3
REMARK    3  A    between atoms: C_3  and  C_4
REMARK    4  A    between atoms: C_6  and  C_10
REMARK    5  A    between atoms: C_10  and  N_11
REMARK    6  A    between atoms: N_11  and  C_12
REMARK    7  A    between atoms: N_11  and  C_13
REMARK    8  A    between atoms: C_13  and  C_14
REMARK    9  A    between atoms: N_16  and  C_28
REMARK   10  A    between atoms: C_18  and  C_19
REMARK   11  A    between atoms: C_28  and  C_29
REMARK                            x       y       z     vdW  Elec       q    Type
REMARK                         _______ _______ _______ _____ _____    ______ ____
ROOT
ATOM      1  C   UNL     1       3.448   5.212  -3.209  0.00  0.00    -0.019 A 
ATOM      2  C   UNL     1       3.103   5.394  -1.915  0.00  0.00    +0.111 A 
ATOM      3  N   UNL     1       2.834   4.183  -1.381  0.00  0.00    -0.266 N 
ATOM      4  N   UNL     1       3.009   3.217  -2.380  0.00  0.00    -0.171 NA
ATOM      5  C   UNL     1       3.380   3.832  -3.484  0.00  0.00    +0.094 A 
ENDROOT
BRANCH   5   6
ATOM      6  C   UNL     1       3.673   3.186  -4.787  0.00  0.00    +0.006 A 
ATOM      7  C   UNL     1       3.350   3.835  -5.976  0.00  0.00    +0.014 A 
ATOM      8  C   UNL     1       3.622   3.234  -7.188  0.00  0.00    +0.050 A 
ATOM      9  C   UNL     1       4.218   1.982  -7.227  0.00  0.00    +0.166 A 
ATOM     10  C   UNL     1       4.544   1.328  -6.040  0.00  0.00    +0.167 A 
ATOM     11  C   UNL     1       4.277   1.931  -4.823  0.00  0.00    +0.059 A 
ATOM     12  O   UNL     1       5.113   0.126  -6.346  0.00  0.00    -0.453 OA
ATOM     13  C   UNL     1       5.505   0.227  -7.728  0.00  0.00    +0.466 C 
ATOM     14  O   UNL     1       4.583   1.188  -8.276  0.00  0.00    -0.453 OA
ENDBRANCH   5   6
BRANCH   1  15
ATOM     15  C   UNL     1       3.832   6.293  -4.185  0.00  0.00    -0.039 C 
BRANCH  15  16
ATOM     16  N   UNL     1       2.680   6.616  -5.037  0.00  0.00    +0.384 N 
ATOM     17  C   UNL     1       1.598   7.224  -4.250  0.00  0.00    -0.095 C 
ATOM     18  H   UNL     1       2.300   5.676  -5.463  0.00  0.00    -0.081 HD
BRANCH  16  19
ATOM     19  C   UNL     1       3.076   7.489  -6.150  0.00  0.00    -0.023 C 
BRANCH  19  22
ATOM     20  C   UNL     1       0.129   8.357  -8.184  0.00  0.00    +0.063 A 
ATOM     21  C   UNL     1       0.972   8.612  -7.157  0.00  0.00    +0.045 A 
ATOM     22  C   UNL     1       1.937   7.599  -7.131  0.00  0.00    +0.020 A 
ATOM     23  N   UNL     1       1.683   6.767  -8.108  0.00  0.00    -0.283 N 
ATOM     24  N   UNL     1       0.546   7.224  -8.787  0.00  0.00    -0.179 NA
ATOM     25  H   UNL     1       2.329   5.892  -8.267  0.00  0.00    +0.188 HD
BRANCH  20  26
ATOM     26  C   UNL     1      -1.062   9.189  -8.583  0.00  0.00    +0.057 C 
BRANCH  26  28
ATOM     27  C   UNL     1      -3.482   9.630  -8.144  0.00  0.00    +0.004 C 
ATOM     28  C   UNL     1      -2.273   8.785  -7.739  0.00  0.00    +0.003 C 
ENDBRANCH  26  28
ENDBRANCH  20  26
ENDBRANCH  19  22
ENDBRANCH  16  19
ENDBRANCH  15  16
ENDBRANCH   1  15
BRANCH   3  29
ATOM     29  C   UNL     1       2.423   3.925   0.001  0.00  0.00    +0.178 C 
BRANCH  29  30
ATOM     30  C   UNL     1       1.127   3.156   0.005  0.00  0.00    -0.026 A 
ATOM     31  C   UNL     1       1.144   1.774  -0.003  0.00  0.00    +0.005 A 
ATOM     32  C   UNL     1      -0.044   1.068   0.001  0.00  0.00    +0.000 A 
ATOM     33  C   UNL     1      -1.250   1.745   0.007  0.00  0.00    +0.000 A 
ATOM     34  C   UNL     1      -1.267   3.127   0.021  0.00  0.00    +0.000 A 
ATOM     35  C   UNL     1      -0.078   3.833   0.018  0.00  0.00    +0.005 A 
ENDBRANCH  29  30
ENDBRANCH   3  29
TORSDOF 9
