REMARK  Name = ZINC40034946
REMARK  9 active torsions:
REMARK  status: ('A' for Active; 'I' for Inactive)
REMARK    1  A    between atoms: C_1  and  C_2
REMARK    2  A    between atoms: C_5  and  N_8
REMARK    3  A    between atoms: N_15  and  N_16
REMARK    4  A    between atoms: C_17  and  C_18
REMARK    5  A    between atoms: C_22  and  O_24
REMARK    6  A    between atoms: O_24  and  C_25
REMARK    7  A    between atoms: C_25  and  C_26
REMARK    8  A    between atoms: C_35  and  C_36
REMARK    9  A    between atoms: C_35  and  C_37
REMARK                            x       y       z     vdW  Elec       q    Type
REMARK                         _______ _______ _______ _____ _____    ______ ____
ROOT
ATOM      1  N   UNL     1      -0.585  -4.495  -0.227  0.00  0.00    -0.248 N 
ATOM      2  C   UNL     1      -0.197  -5.022   0.955  0.00  0.00    +0.264 A 
ATOM      3  O   UNL     1       0.091  -4.299   1.895  0.00  0.00    -0.267 OA
ATOM      4  C   UNL     1      -0.132  -6.416   1.078  0.00  0.00    +0.049 A 
ATOM      5  C   UNL     1      -0.468  -7.201  -0.015  0.00  0.00    +0.084 A 
ATOM      6  N   UNL     1      -0.839  -6.623  -1.163  0.00  0.00    -0.214 NA
ATOM      7  C   UNL     1      -0.904  -5.312  -1.272  0.00  0.00    +0.223 A 
ATOM      8  N   UNL     1      -1.294  -4.756  -2.462  0.00  0.00    -0.206 N 
ATOM      9  C   UNL     1      -0.415  -8.674   0.118  0.00  0.00    +0.004 A 
ATOM     10  C   UNL     1      -0.369  -9.493  -1.007  0.00  0.00    +0.010 A 
ATOM     11  C   UNL     1      -0.315 -10.864  -0.853  0.00  0.00    +0.001 A 
ATOM     12  C   UNL     1      -0.305 -11.420   0.414  0.00  0.00    +0.000 A 
ATOM     13  C   UNL     1      -0.353 -10.610   1.535  0.00  0.00    +0.004 A 
ATOM     14  C   UNL     1      -0.410  -9.238   1.395  0.00  0.00    -0.037 A 
ATOM     15  C   UNL     1      -0.474  -8.351   2.608  0.00  0.00    +0.047 C 
ATOM     16  C   UNL     1       0.298  -7.056   2.367  0.00  0.00    +0.001 C 
ATOM     17  C   UNL     1       1.795  -7.366   2.302  0.00  0.00    +0.016 C 
ATOM     18  C   UNL     1       0.034  -6.089   3.523  0.00  0.00    +0.016 C 
ATOM     19  H   UNL     1      -1.419  -3.797  -2.532  0.00  0.00    +0.177 HD
ENDROOT
BRANCH   1  24
ATOM     20  C   UNL     1      -0.910   1.137  -0.839  0.00  0.00    +0.044 C 
ATOM     21  C   UNL     1      -0.824  -0.359  -0.677  0.00  0.00    -0.050 A 
ATOM     22  C   UNL     1      -1.935  -1.074  -0.268  0.00  0.00    +0.005 A 
ATOM     23  C   UNL     1      -1.859  -2.445  -0.118  0.00  0.00    +0.026 A 
ATOM     24  C   UNL     1      -0.665  -3.105  -0.378  0.00  0.00    +0.053 A 
ATOM     25  C   UNL     1       0.449  -2.384  -0.788  0.00  0.00    +0.026 A 
ATOM     26  C   UNL     1       0.364  -1.014  -0.942  0.00  0.00    +0.005 A 
ENDBRANCH   1  24
BRANCH   8  27
ATOM     27  N   UNL     1      -1.514  -5.574  -3.578  0.00  0.00    -0.188 NA
ATOM     28  C   UNL     1      -1.885  -5.048  -4.706  0.00  0.00    +0.138 C 
BRANCH  28  29
ATOM     29  C   UNL     1      -2.116  -5.909  -5.880  0.00  0.00    -0.002 A 
ATOM     30  C   UNL     1      -1.944  -7.292  -5.781  0.00  0.00    +0.010 A 
ATOM     31  C   UNL     1      -2.162  -8.094  -6.882  0.00  0.00    +0.004 A 
ATOM     32  C   UNL     1      -2.550  -7.533  -8.086  0.00  0.00    +0.046 A 
ATOM     33  C   UNL     1      -2.724  -6.160  -8.194  0.00  0.00    +0.122 A 
ATOM     34  C   UNL     1      -2.514  -5.346  -7.094  0.00  0.00    +0.055 A 
BRANCH  33  35
ATOM     35  O   UNL     1      -3.106  -5.616  -9.380  0.00  0.00    -0.488 OA
BRANCH  35  36
ATOM     36  C   UNL     1      -3.310  -6.515 -10.471  0.00  0.00    +0.256 C 
BRANCH  36  37
ATOM     37  C   UNL     1      -3.725  -5.737 -11.692  0.00  0.00    +0.006 C 
ATOM     38  C   UNL     1      -3.180  -6.000 -12.854  0.00  0.00    +0.007 C 
ENDBRANCH  36  37
ENDBRANCH  35  36
ENDBRANCH  33  35
ENDBRANCH  28  29
ENDBRANCH   8  27
TORSDOF 6
