REMARK  Name = ZINC36346701
REMARK  14 active torsions:
REMARK  status: ('A' for Active; 'I' for Inactive)
REMARK    1  A    between atoms: C_1  and  C_2
REMARK    2  A    between atoms: C_2  and  C_3
REMARK    3  A    between atoms: C_3  and  C_5
REMARK    4  A    between atoms: C_3  and  O_32
REMARK    5  A    between atoms: C_5  and  N_6
REMARK    6  A    between atoms: N_6  and  C_7
REMARK    7  A    between atoms: N_6  and  C_29
REMARK    8  A    between atoms: C_7  and  C_8
REMARK    9  A    between atoms: C_9  and  C_28
REMARK   10  A    between atoms: N_11  and  C_21
REMARK   11  A    between atoms: C_12  and  O_13
REMARK   12  A    between atoms: O_13  and  C_14
REMARK   13  A    between atoms: C_29  and  C_30
REMARK   14  A    between atoms: C_29  and  C_31
REMARK                            x       y       z     vdW  Elec       q    Type
REMARK                         _______ _______ _______ _____ _____    ______ ____
ROOT
ATOM      1  C   UNL     1       2.712  -4.762  -3.200  0.00  0.00    +0.021 A 
ATOM      2  C   UNL     1       2.303  -5.021  -4.511  0.00  0.00    +0.065 A 
ATOM      3  N   UNL     1       3.352  -5.374  -5.210  0.00  0.00    -0.168 NA
ATOM      4  N   UNL     1       4.471  -5.353  -4.368  0.00  0.00    -0.200 N 
ATOM      5  C   UNL     1       4.055  -4.967  -3.133  0.00  0.00    +0.225 A 
ATOM      6  C   UNL     1       0.893  -4.913  -5.032  0.00  0.00    +0.068 C 
ENDROOT
BRANCH   4   7
ATOM      7  C   UNL     1       5.788  -5.668  -4.736  0.00  0.00    +0.069 A 
ATOM      8  C   UNL     1       6.849  -4.954  -4.197  0.00  0.00    +0.031 A 
ATOM      9  C   UNL     1       8.145  -5.265  -4.560  0.00  0.00    +0.040 A 
ATOM     10  C   UNL     1       8.385  -6.289  -5.461  0.00  0.00    +0.124 A 
ATOM     11  C   UNL     1       7.328  -7.003  -5.999  0.00  0.00    +0.040 A 
ATOM     12  C   UNL     1       6.031  -6.698  -5.634  0.00  0.00    +0.031 A 
ATOM     13  F   UNL     1       9.653  -6.592  -5.815  0.00  0.00    -0.205 F 
ENDBRANCH   4   7
BRANCH   1  14
ATOM     14  C   UNL     1       1.823  -4.327  -2.063  0.00  0.00    -0.035 C 
BRANCH  14  15
ATOM     15  N   UNL     1       2.283  -3.030  -1.551  0.00  0.00    +0.386 N 
ATOM     16  H   UNL     1       3.284  -3.051  -1.432  0.00  0.00    -0.081 HD
BRANCH  15  17
ATOM     17  C   UNL     1       1.925  -1.972  -2.506  0.00  0.00    -0.074 C 
ATOM     18  C   UNL     1       2.724  -2.159  -3.797  0.00  0.00    -0.014 C 
ATOM     19  C   UNL     1       0.429  -2.049  -2.815  0.00  0.00    -0.014 C 
ENDBRANCH  15  17
BRANCH  15  20
ATOM     20  C   UNL     1       1.642  -2.759  -0.257  0.00  0.00    -0.046 C 
BRANCH  20  21
ATOM     21  C   UNL     1       2.260  -1.505   0.365  0.00  0.00    +0.098 C 
BRANCH  21  23
ATOM     22  C   UNL     1       2.463  -0.165   2.464  0.00  0.00    +0.006 C 
ATOM     23  C   UNL     1       1.752  -1.345   1.800  0.00  0.00    +0.026 C 
ENDBRANCH  21  23
BRANCH  21  24
ATOM     24  O   UNL     1       1.887  -0.359  -0.402  0.00  0.00    -0.394 OA
ATOM     25  H   UNL     1       0.940  -0.166  -0.388  0.00  0.00    +0.210 HD
ENDBRANCH  21  24
ENDBRANCH  20  21
ENDBRANCH  15  20
ENDBRANCH  14  15
ENDBRANCH   1  14
BRANCH   5  26
ATOM     26  O   UNL     1       4.836  -4.817  -2.033  0.00  0.00    -0.438 OA
BRANCH  26  27
ATOM     27  C   UNL     1       5.105  -5.920  -1.286  0.00  0.00    +0.131 A 
ATOM     28  C   UNL     1       4.678  -7.169  -1.714  0.00  0.00    +0.049 A 
ATOM     29  C   UNL     1       4.953  -8.290  -0.954  0.00  0.00    +0.042 A 
ATOM     30  C   UNL     1       5.653  -8.166   0.235  0.00  0.00    +0.124 A 
ATOM     31  C   UNL     1       6.078  -6.920   0.663  0.00  0.00    +0.042 A 
ATOM     32  C   UNL     1       5.811  -5.799  -0.098  0.00  0.00    +0.049 A 
ATOM     33  F   UNL     1       5.920  -9.263   0.977  0.00  0.00    -0.205 F 
ENDBRANCH  26  27
ENDBRANCH   5  26
TORSDOF 10
