REMARK  Name = ZINC39578226
REMARK  9 active torsions:
REMARK  status: ('A' for Active; 'I' for Inactive)
REMARK    1  A    between atoms: C_1  and  C_2
REMARK    2  A    between atoms: C_4  and  C_17
REMARK    3  A    between atoms: C_5  and  C_16
REMARK    4  A    between atoms: N_6  and  C_7
REMARK    5  A    between atoms: C_7  and  C_8
REMARK    6  A    between atoms: C_8  and  C_9
REMARK    7  A    between atoms: C_17  and  C_19
REMARK    8  A    between atoms: C_19  and  N_20
REMARK    9  A    between atoms: C_28  and  C_30
REMARK                            x       y       z     vdW  Elec       q    Type
REMARK                         _______ _______ _______ _____ _____    ______ ____
ROOT
ATOM      1  C   UNL     1       0.043  -3.379  -1.448  0.00  0.00    +0.183 C 
ATOM      2  O   UNL     1       0.060  -4.471  -0.920  0.00  0.00    -0.290 OA
ENDROOT
BRANCH   1   6
ATOM      3  C   UNL     1      -0.018   1.503   0.010  0.00  0.00    +0.063 C 
ATOM      4  C   UNL     1       0.002  -0.004   0.002  0.00  0.00    +0.017 A 
ATOM      5  C   UNL     1       0.008  -0.777  -1.097  0.00  0.00    +0.034 A 
ATOM      6  C   UNL     1       0.030  -2.167  -0.625  0.00  0.00    +0.040 A 
ATOM      7  C   UNL     1       0.035  -2.098   0.755  0.00  0.00    +0.026 A 
ATOM      8  N   UNL     1       0.023  -0.801   1.110  0.00  0.00    -0.347 N 
ATOM      9  C   UNL     1       0.056  -3.273   1.700  0.00  0.00    +0.064 C 
BRANCH   8  10
ATOM     10  C   UNL     1       0.029  -0.312   2.491  0.00  0.00    +0.126 C 
BRANCH  10  11
ATOM     11  C   UNL     1      -1.411  -0.163   2.985  0.00  0.00    +0.056 C 
BRANCH  11  12
ATOM     12  C   UNL     1      -1.405   0.340   4.406  0.00  0.00    -0.046 A 
ATOM     13  C   UNL     1      -1.377  -0.558   5.456  0.00  0.00    +0.005 A 
ATOM     14  C   UNL     1      -1.371  -0.097   6.759  0.00  0.00    +0.020 A 
ATOM     15  C   UNL     1      -1.395   1.263   7.012  0.00  0.00    +0.041 A 
ATOM     16  C   UNL     1      -1.423   2.161   5.960  0.00  0.00    +0.020 A 
ATOM     17  C   UNL     1      -1.423   1.699   4.657  0.00  0.00    +0.005 A 
ATOM     18 CL   UNL     1      -1.389   1.842   8.649  0.00  0.00    -0.084 Cl
ENDBRANCH  11  12
ENDBRANCH  10  11
ENDBRANCH   8  10
ENDBRANCH   1   6
BRANCH   1  19
ATOM     19  C   UNL     1       0.035  -3.269  -2.951  0.00  0.00    +0.197 C 
BRANCH  19  20
ATOM     20  N   UNL     1       0.052  -4.611  -3.539  0.00  0.00    -0.217 N 
ATOM     21  C   UNL     1       1.176  -5.292  -3.843  0.00  0.00    +0.247 C 
ATOM     22  O   UNL     1       2.321  -4.925  -3.688  0.00  0.00    -0.273 OA
ATOM     23  C   UNL     1       0.707  -6.609  -4.417  0.00  0.00    +0.115 C 
ATOM     24  C   UNL     1       1.199  -7.768  -3.558  0.00  0.00    +0.035 C 
ATOM     25  C   UNL     1       2.729  -7.817  -3.591  0.00  0.00    +0.003 C 
ATOM     26  C   UNL     1       3.200  -7.994  -5.036  0.00  0.00    +0.000 C 
ATOM     27  C   UNL     1       2.717  -6.814  -5.882  0.00  0.00    +0.006 C 
ATOM     28  C   UNL     1       1.187  -6.762  -5.856  0.00  0.00    +0.018 C 
ATOM     29  C   UNL     1       0.704  -5.570  -6.685  0.00  0.00    +0.010 C 
ATOM     30  N   UNL     1      -0.758  -6.518  -4.370  0.00  0.00    -0.285 N 
ATOM     31  C   UNL     1      -1.047  -5.315  -3.836  0.00  0.00    +0.310 C 
ATOM     32  O   UNL     1      -2.179  -4.914  -3.648  0.00  0.00    -0.252 OA
ATOM     33  H   UNL     1      -1.392  -7.191  -4.661  0.00  0.00    +0.151 HD
ENDBRANCH  19  20
ENDBRANCH   1  19
TORSDOF 6
