REMARK  Name = ZINC27595941
REMARK  15 active torsions:
REMARK  status: ('A' for Active; 'I' for Inactive)
REMARK    1  A    between atoms: C_1  and  C_2
REMARK    2  A    between atoms: C_2  and  C_3
REMARK    3  A    between atoms: C_6  and  C_9
REMARK    4  A    between atoms: C_9  and  C_11
REMARK    5  A    between atoms: C_9  and  N_33
REMARK    6  A    between atoms: C_11  and  N_12
REMARK    7  A    between atoms: C_13  and  C_15
REMARK    8  A    between atoms: C_15  and  C_17
REMARK    9  A    between atoms: C_15  and  S_18
REMARK   10  A    between atoms: S_18  and  C_19
REMARK   11  A    between atoms: C_19  and  C_20
REMARK   12  A    between atoms: C_26  and  C_32
REMARK   13  A    between atoms: C_27  and  C_31
REMARK   14  A    between atoms: N_33  and  C_34
REMARK   15  A    between atoms: N_33  and  C_35
REMARK                            x       y       z     vdW  Elec       q    Type
REMARK                         _______ _______ _______ _____ _____    ______ ____
ROOT
ATOM      1  N   UNL     1       3.835  -3.673  -5.913  0.00  0.00    -0.316 N 
ATOM      2  C   UNL     1       4.211  -4.951  -6.118  0.00  0.00    +0.226 C 
ATOM      3  O   UNL     1       3.969  -5.796  -5.282  0.00  0.00    -0.275 OA
ATOM      4  H   UNL     1       4.029  -2.997  -6.581  0.00  0.00    +0.149 HD
ENDROOT
BRANCH   2   5
ATOM      5  C   UNL     1       4.932  -5.330  -7.386  0.00  0.00    +0.129 C 
ATOM      6  C   UNL     1       6.431  -5.071  -7.217  0.00  0.00    +0.029 C 
BRANCH   5   7
ATOM      7  S   UNL     1       4.659  -7.089  -7.734  0.00  0.00    -0.141 S 
BRANCH   7   8
ATOM      8  C   UNL     1       5.451  -7.345  -9.346  0.00  0.00    +0.144 C 
BRANCH   8   9
ATOM      9  C   UNL     1       5.295  -8.786  -9.759  0.00  0.00    +0.121 A 
ATOM     10  N   UNL     1       5.822  -9.203 -10.939  0.00  0.00    -0.310 N 
ATOM     11  H   UNL     1       6.292  -8.566 -11.500  0.00  0.00    +0.170 HD
ATOM     12  C   UNL     1       5.705 -10.480 -11.345  0.00  0.00    +0.260 A 
ATOM     13  O   UNL     1       6.185 -10.838 -12.407  0.00  0.00    -0.267 OA
ATOM     14  C   UNL     1       5.009 -11.414 -10.510  0.00  0.00    +0.075 A 
ATOM     15  C   UNL     1       4.753 -12.826 -10.722  0.00  0.00    -0.026 A 
ATOM     16  C   UNL     1       4.071 -13.515  -9.793  0.00  0.00    -0.008 A 
ATOM     17  S   UNL     1       3.719 -12.290  -8.546  0.00  0.00    -0.073 S 
ATOM     18  C   UNL     1       4.498 -10.890  -9.309  0.00  0.00    +0.116 A 
ATOM     19  N   UNL     1       4.659  -9.614  -8.973  0.00  0.00    -0.226 NA
ATOM     20  C   UNL     1       3.692 -14.974  -9.802  0.00  0.00    +0.052 C 
ATOM     21  C   UNL     1       5.246 -13.511 -11.970  0.00  0.00    +0.045 C 
ENDBRANCH   8   9
ENDBRANCH   7   8
ENDBRANCH   5   7
ENDBRANCH   2   5
BRANCH   1  22
ATOM     22  C   UNL     1       3.134  -3.304  -4.680  0.00  0.00    +0.093 C 
BRANCH  22  23
ATOM     23  C   UNL     1       2.708  -1.837  -4.755  0.00  0.00    -0.021 C 
BRANCH  23  27
ATOM     24  C   UNL     1      -0.166  -1.349  -7.877  0.00  0.00    -0.048 A 
ATOM     25  C   UNL     1       1.156  -1.010  -8.096  0.00  0.00    +0.004 A 
ATOM     26  C   UNL     1       2.086  -1.168  -7.086  0.00  0.00    +0.002 A 
ATOM     27  C   UNL     1       1.694  -1.664  -5.856  0.00  0.00    -0.059 A 
ATOM     28  C   UNL     1       0.371  -2.001  -5.637  0.00  0.00    +0.002 A 
ATOM     29  C   UNL     1      -0.559  -1.840  -6.646  0.00  0.00    +0.004 A 
BRANCH  24  31
ATOM     30  C   UNL     1      -1.786   0.226  -8.900  0.00  0.00    +0.009 C 
ATOM     31  C   UNL     1      -1.180  -1.177  -8.979  0.00  0.00    +0.032 C 
ENDBRANCH  24  31
ENDBRANCH  23  27
BRANCH  23  32
ATOM     32  N   UNL     1       2.113  -1.434  -3.474  0.00  0.00    +0.382 N 
ATOM     33  C   UNL     1       3.107  -1.585  -2.403  0.00  0.00    -0.096 C 
ATOM     34  C   UNL     1       1.688  -0.030  -3.552  0.00  0.00    -0.096 C 
ATOM     35  H   UNL     1       1.314  -2.017  -3.276  0.00  0.00    -0.082 HD
ENDBRANCH  23  32
ENDBRANCH  22  23
ENDBRANCH   1  22
TORSDOF 9
