REMARK  Name = ZINC03011874
REMARK  4 active torsions:
REMARK  status: ('A' for Active; 'I' for Inactive)
REMARK    1  A    between atoms: C_6  and  C_7
REMARK    2  A    between atoms: C_10  and  C_29
REMARK    3  A    between atoms: C_15  and  C_17
REMARK    4  A    between atoms: N_19  and  C_20
REMARK                            x       y       z     vdW  Elec       q    Type
REMARK                         _______ _______ _______ _____ _____    ______ ____
ROOT
ATOM      1  C   UNL     1      -1.327  -0.749   0.041  0.00  0.00    +0.104 C 
ATOM      2  C   UNL     1      -1.647  -1.223  -1.381  0.00  0.00    +0.063 C 
ATOM      3  C   UNL     1      -2.993  -1.957  -1.397  0.00  0.00    +0.215 C 
ATOM      4  N   UNL     1      -2.997  -2.962  -0.330  0.00  0.00    -0.238 N 
ATOM      5  C   UNL     1      -2.146  -2.937   0.738  0.00  0.00    +0.119 A 
ATOM      6  C   UNL     1      -2.419  -4.002   1.517  0.00  0.00    +0.078 A 
ATOM      7  C   UNL     1      -3.479  -4.714   0.911  0.00  0.00    +0.149 A 
ATOM      8  N   UNL     1      -3.819  -4.080  -0.198  0.00  0.00    -0.164 NA
ATOM      9  N   UNL     1      -1.190  -1.931   0.914  0.00  0.00    -0.322 N 
ATOM     10  H   UNL     1      -0.478  -2.006   1.568  0.00  0.00    +0.148 HD
ENDROOT
BRANCH   1  16
ATOM     11  C   UNL     1      -0.064   1.412   0.051  0.00  0.00    +0.007 A 
ATOM     12  C   UNL     1       1.119   2.127   0.047  0.00  0.00    +0.020 A 
ATOM     13  C   UNL     1       2.330   1.459   0.030  0.00  0.00    +0.041 A 
ATOM     14  C   UNL     1       2.357   0.076   0.016  0.00  0.00    +0.020 A 
ATOM     15  C   UNL     1       1.173  -0.638   0.019  0.00  0.00    +0.007 A 
ATOM     16  C   UNL     1      -0.037   0.030   0.036  0.00  0.00    -0.027 A 
ATOM     17 CL   UNL     1       3.816   2.356   0.025  0.00  0.00    -0.084 Cl
ENDBRANCH   1  16
BRANCH   7  18
ATOM     18  C   UNL     1      -4.099  -5.951   1.427  0.00  0.00    +0.268 C 
ATOM     19  O   UNL     1      -3.699  -6.445   2.464  0.00  0.00    -0.268 OA
ATOM     20  N   UNL     1      -5.108  -6.533   0.749  0.00  0.00    -0.279 N 
ATOM     21  H   UNL     1      -5.471  -6.105  -0.042  0.00  0.00    +0.155 HD
BRANCH  20  22
ATOM     22  C   UNL     1      -5.632  -7.754   1.187  0.00  0.00    +0.054 A 
ATOM     23  C   UNL     1      -5.706  -8.033   2.545  0.00  0.00    +0.044 A 
ATOM     24  C   UNL     1      -6.225  -9.240   2.974  0.00  0.00    +0.043 A 
ATOM     25  C   UNL     1      -6.671 -10.170   2.051  0.00  0.00    +0.021 A 
ATOM     26  C   UNL     1      -6.598  -9.896   0.698  0.00  0.00    +0.023 A 
ATOM     27  C   UNL     1      -6.085  -8.688   0.263  0.00  0.00    +0.062 A 
ATOM     28 CL   UNL     1      -6.001  -8.341  -1.436  0.00  0.00    -0.082 Cl
ATOM     29 CL   UNL     1      -6.317  -9.590   4.671  0.00  0.00    -0.083 Cl
ENDBRANCH  20  22
ENDBRANCH   7  18
BRANCH   3  30
ATOM     30  C   UNL     1      -3.187  -2.642  -2.751  0.00  0.00    +0.412 C 
ATOM     31  F   UNL     1      -2.153  -3.561  -2.961  0.00  0.00    -0.168 F 
ATOM     32  F   UNL     1      -4.415  -3.311  -2.763  0.00  0.00    -0.168 F 
ATOM     33  F   UNL     1      -3.170  -1.681  -3.767  0.00  0.00    -0.168 F 
ENDBRANCH   3  30
TORSDOF 4
