REMARK  Name = ZINC45990791
REMARK  9 active torsions:
REMARK  status: ('A' for Active; 'I' for Inactive)
REMARK    1  A    between atoms: C_1  and  C_2
REMARK    2  A    between atoms: C_5  and  N_8
REMARK    3  A    between atoms: C_11  and  C_28
REMARK    4  A    between atoms: C_13  and  O_15
REMARK    5  A    between atoms: O_15  and  C_16
REMARK    6  A    between atoms: C_16  and  C_17
REMARK    7  A    between atoms: N_19  and  C_20
REMARK    8  A    between atoms: C_25  and  C_26
REMARK    9  A    between atoms: C_29  and  C_31
REMARK                            x       y       z     vdW  Elec       q    Type
REMARK                         _______ _______ _______ _____ _____    ______ ____
ROOT
ATOM      1  N   UNL     1       0.012  -4.170   0.010  0.00  0.00    -0.214 N 
ATOM      2  C   UNL     1       0.671  -4.961   0.915  0.00  0.00    +0.167 A 
ATOM      3  C   UNL     1       0.425  -6.295   0.536  0.00  0.00    +0.045 A 
ATOM      4  C   UNL     1       0.982  -7.337   1.290  0.00  0.00    -0.033 A 
ATOM      5  C   UNL     1       1.750  -7.013   2.375  0.00  0.00    +0.071 A 
ATOM      6  C   UNL     1       1.955  -5.672   2.698  0.00  0.00    +0.217 A 
ATOM      7  N   UNL     1       1.424  -4.702   1.978  0.00  0.00    -0.193 NA
ATOM      8  C   UNL     1       0.740  -8.777   0.916  0.00  0.00    +0.045 C 
ATOM      9  C   UNL     1      -0.421  -6.239  -0.650  0.00  0.00    +0.070 A 
ATOM     10  N   UNL     1      -0.643  -4.984  -0.919  0.00  0.00    -0.169 NA
ATOM     11  C   UNL     1      -0.949  -7.420  -1.422  0.00  0.00    +0.068 C 
ENDROOT
BRANCH   1  16
ATOM     12  C   UNL     1      -0.067   1.504   0.046  0.00  0.00    +0.044 C 
ATOM     13  C   UNL     1      -0.046  -0.003   0.036  0.00  0.00    -0.050 A 
ATOM     14  C   UNL     1      -0.051  -0.686  -1.166  0.00  0.00    +0.005 A 
ATOM     15  C   UNL     1      -0.032  -2.067  -1.178  0.00  0.00    +0.028 A 
ATOM     16  C   UNL     1      -0.007  -2.770   0.019  0.00  0.00    +0.068 A 
ATOM     17  C   UNL     1      -0.001  -2.081   1.225  0.00  0.00    +0.028 A 
ATOM     18  C   UNL     1      -0.015  -0.700   1.230  0.00  0.00    +0.005 A 
ENDBRANCH   1  16
BRANCH   6  19
ATOM     19  O   UNL     1       2.717  -5.359   3.775  0.00  0.00    -0.467 OA
BRANCH  19  20
ATOM     20  C   UNL     1       2.896  -3.970   4.061  0.00  0.00    +0.326 C 
BRANCH  20  21
ATOM     21  C   UNL     1       3.764  -3.816   5.283  0.00  0.00    +0.255 C 
ATOM     22  O   UNL     1       4.188  -4.799   5.853  0.00  0.00    -0.272 OA
ATOM     23  N   UNL     1       4.069  -2.587   5.743  0.00  0.00    -0.282 N 
ATOM     24  H   UNL     1       3.798  -1.801   5.243  0.00  0.00    +0.155 HD
BRANCH  23  25
ATOM     25  C   UNL     1       4.777  -2.443   6.941  0.00  0.00    +0.038 A 
ATOM     26  C   UNL     1       4.728  -3.444   7.902  0.00  0.00    +0.043 A 
ATOM     27  C   UNL     1       5.429  -3.300   9.085  0.00  0.00    +0.043 A 
ATOM     28  C   UNL     1       6.179  -2.159   9.311  0.00  0.00    +0.020 A 
ATOM     29  C   UNL     1       6.229  -1.161   8.355  0.00  0.00    +0.006 A 
ATOM     30  C   UNL     1       5.536  -1.303   7.169  0.00  0.00    -0.029 A 
ATOM     31  C   UNL     1       5.597  -0.217   6.125  0.00  0.00    +0.045 C 
ATOM     32 CL   UNL     1       5.367  -4.550  10.288  0.00  0.00    -0.083 Cl
ENDBRANCH  23  25
ENDBRANCH  20  21
ENDBRANCH  19  20
ENDBRANCH   6  19
TORSDOF 5
