REMARK  Name = ZINC39912319
REMARK  13 active torsions:
REMARK  status: ('A' for Active; 'I' for Inactive)
REMARK    1  A    between atoms: C_1  and  C_2
REMARK    2  A    between atoms: C_2  and  O_3
REMARK    3  A    between atoms: O_3  and  C_4
REMARK    4  A    between atoms: C_7  and  C_13
REMARK    5  A    between atoms: C_9  and  O_10
REMARK    6  A    between atoms: O_10  and  C_11
REMARK    7  A    between atoms: C_11  and  C_12
REMARK    8  A    between atoms: C_16  and  C_31
REMARK    9  A    between atoms: N_23  and  C_24
REMARK   10  A    between atoms: C_24  and  C_25
REMARK   11  A    between atoms: C_33  and  C_39
REMARK   12  A    between atoms: C_35  and  C_38
REMARK   13  A    between atoms: C_36  and  O_37
REMARK                            x       y       z     vdW  Elec       q    Type
REMARK                         _______ _______ _______ _____ _____    ______ ____
ROOT
ATOM      1  C   UNL     1       0.313  -5.928   2.105  0.00  0.00    +0.142 C 
ATOM      2  C   UNL     1      -1.020  -6.261   2.718  0.00  0.00    +0.035 A 
ATOM      3  C   UNL     1      -1.907  -6.077   3.784  0.00  0.00    +0.102 A 
ATOM      4  N   UNL     1      -2.979  -6.803   3.535  0.00  0.00    -0.173 NA
ATOM      5  N   UNL     1      -2.857  -7.427   2.418  0.00  0.00    -0.272 N 
ATOM      6  H   UNL     1      -3.523  -8.019   2.035  0.00  0.00    +0.189 HD
ATOM      7  C   UNL     1      -1.649  -7.133   1.850  0.00  0.00    +0.126 A 
ATOM      8  C   UNL     1      -0.766  -7.370   0.703  0.00  0.00    +0.266 C 
ATOM      9  O   UNL     1      -1.030  -8.092  -0.239  0.00  0.00    -0.268 OA
ATOM     10  N   UNL     1       0.379  -6.674   0.841  0.00  0.00    -0.281 N 
ENDROOT
BRANCH   3  11
ATOM     11  C   UNL     1      -1.682  -5.222   4.976  0.00  0.00    +0.044 A 
ATOM     12  C   UNL     1      -0.447  -4.609   5.174  0.00  0.00    +0.017 A 
ATOM     13  C   UNL     1      -0.243  -3.814   6.284  0.00  0.00    -0.049 A 
ATOM     14  C   UNL     1      -1.261  -3.624   7.202  0.00  0.00    +0.010 A 
ATOM     15  C   UNL     1      -2.490  -4.229   7.015  0.00  0.00    -0.008 A 
ATOM     16  C   UNL     1      -2.710  -5.024   5.901  0.00  0.00    +0.129 A 
ATOM     17  C   UNL     1      -3.593  -4.017   8.019  0.00  0.00    +0.047 C 
ATOM     18  C   UNL     1       1.093  -3.151   6.497  0.00  0.00    +0.044 C 
BRANCH  16  19
ATOM     19  O   UNL     1      -3.920  -5.613   5.713  0.00  0.00    -0.506 OA
ATOM     20  H   UNL     1      -3.996  -6.490   6.113  0.00  0.00    +0.292 HD
ENDBRANCH  16  19
ENDBRANCH   3  11
BRANCH   1  24
ATOM     21  C   UNL     1       0.581  -1.727   1.353  0.00  0.00    +0.162 A 
ATOM     22  C   UNL     1       1.361  -2.308   2.340  0.00  0.00    +0.050 A 
ATOM     23  C   UNL     1       1.272  -3.666   2.581  0.00  0.00    +0.009 A 
ATOM     24  C   UNL     1       0.406  -4.448   1.838  0.00  0.00    -0.019 A 
ATOM     25  C   UNL     1      -0.375  -3.874   0.852  0.00  0.00    +0.055 A 
ATOM     26  C   UNL     1      -0.295  -2.512   0.610  0.00  0.00    +0.162 A 
BRANCH  21  27
ATOM     27  O   UNL     1       0.667  -0.390   1.116  0.00  0.00    -0.489 OA
BRANCH  27  29
ATOM     28  C   UNL     1       1.545   1.827   1.508  0.00  0.00    +0.048 C 
ATOM     29  C   UNL     1       1.588   0.353   1.917  0.00  0.00    +0.226 C 
ENDBRANCH  27  29
ENDBRANCH  21  27
BRANCH  26  30
ATOM     30  O   UNL     1      -1.067  -1.945  -0.355  0.00  0.00    -0.489 OA
BRANCH  30  31
ATOM     31  C   UNL     1      -1.975  -2.804  -1.047  0.00  0.00    +0.226 C 
ATOM     32  C   UNL     1      -2.794  -1.982  -2.045  0.00  0.00    +0.048 C 
ENDBRANCH  30  31
ENDBRANCH  26  30
ENDBRANCH   1  24
BRANCH  10  33
ATOM     33  C   UNL     1       1.497  -6.662  -0.105  0.00  0.00    +0.144 C 
BRANCH  33  34
ATOM     34  C   UNL     1       2.468  -7.758   0.250  0.00  0.00    -0.030 A 
ATOM     35  C   UNL     1       3.504  -7.505   1.129  0.00  0.00    +0.005 A 
ATOM     36  C   UNL     1       4.395  -8.510   1.456  0.00  0.00    +0.000 A 
ATOM     37  C   UNL     1       4.250  -9.769   0.903  0.00  0.00    +0.000 A 
ATOM     38  C   UNL     1       3.213 -10.022   0.025  0.00  0.00    +0.000 A 
ATOM     39  C   UNL     1       2.319  -9.018  -0.298  0.00  0.00    +0.005 A 
ENDBRANCH  33  34
ENDBRANCH  10  33
TORSDOF 9
