REMARK  Name = ZINC09861087
REMARK  13 active torsions:
REMARK  status: ('A' for Active; 'I' for Inactive)
REMARK    1  A    between atoms: C_1  and  C_2
REMARK    2  A    between atoms: C_2  and  C_3
REMARK    3  A    between atoms: C_2  and  C_4
REMARK    4  A    between atoms: C_2  and  C_5
REMARK    5  A    between atoms: C_7  and  C_16
REMARK    6  A    between atoms: C_9  and  C_12
REMARK    7  A    between atoms: C_10  and  O_11
REMARK    8  A    between atoms: C_12  and  C_13
REMARK    9  A    between atoms: C_12  and  C_14
REMARK   10  A    between atoms: C_12  and  C_15
REMARK   11  A    between atoms: C_20  and  C_30
REMARK   12  A    between atoms: C_25  and  N_29
REMARK   13  A    between atoms: C_26  and  C_27
REMARK                            x       y       z     vdW  Elec       q    Type
REMARK                         _______ _______ _______ _____ _____    ______ ____
ROOT
ATOM      1  C   UNL     1       2.418   0.968  -4.270  0.00  0.00    +0.082 C 
ATOM      2  C   UNL     1       3.932   0.766  -4.406  0.00  0.00    +0.140 C 
ATOM      3  C   UNL     1       4.535   0.319  -3.094  0.00  0.00    +0.084 C 
ATOM      4  N   UNL     1       5.010  -0.880  -3.304  0.00  0.00    -0.150 NA
ATOM      5  N   UNL     1       4.769  -1.324  -4.604  0.00  0.00    -0.115 NA
ATOM      6  C   UNL     1       4.112  -0.451  -5.308  0.00  0.00    +0.227 C 
ATOM      7  O   UNL     1       3.565  -0.495  -6.542  0.00  0.00    -0.425 OA
ATOM      8  C   UNL     1       2.333   0.069  -6.628  0.00  0.00    +0.200 C 
ATOM      9  C   UNL     1       1.770   0.758  -5.613  0.00  0.00    +0.095 C 
ENDROOT
BRANCH   3  10
ATOM     10  C   UNL     1       4.578   1.079  -1.835  0.00  0.00    -0.001 A 
ATOM     11  C   UNL     1       4.010   2.367  -1.776  0.00  0.00    +0.010 A 
ATOM     12  C   UNL     1       4.038   3.087  -0.627  0.00  0.00    +0.009 A 
ATOM     13  C   UNL     1       4.639   2.550   0.527  0.00  0.00    -0.018 A 
ATOM     14  C   UNL     1       4.678   3.277   1.728  0.00  0.00    +0.008 A 
ATOM     15  C   UNL     1       5.266   2.732   2.829  0.00  0.00    +0.001 A 
ATOM     16  C   UNL     1       5.831   1.459   2.784  0.00  0.00    +0.001 A 
ATOM     17  C   UNL     1       5.813   0.724   1.639  0.00  0.00    +0.008 A 
ATOM     18  C   UNL     1       5.214   1.254   0.482  0.00  0.00    -0.017 A 
ATOM     19  C   UNL     1       5.172   0.520  -0.713  0.00  0.00    +0.018 A 
ENDBRANCH   3  10
BRANCH   1  22
ATOM     20  C   UNL     1       0.707  -0.490  -1.238  0.00  0.00    -0.000 A 
ATOM     21  C   UNL     1       1.217   0.419  -2.145  0.00  0.00    +0.012 A 
ATOM     22  C   UNL     1       1.864  -0.026  -3.283  0.00  0.00    -0.037 A 
ATOM     23  C   UNL     1       2.003  -1.382  -3.516  0.00  0.00    +0.012 A 
ATOM     24  C   UNL     1       1.496  -2.295  -2.612  0.00  0.00    -0.000 A 
ATOM     25  C   UNL     1       0.851  -1.851  -1.467  0.00  0.00    +0.124 A 
BRANCH  20  27
ATOM     26  C   UNL     1      -0.019   1.526   0.010  0.00  0.00    +0.015 C 
ATOM     27  C   UNL     1       0.002  -0.004   0.002  0.00  0.00    -0.009 C 
ATOM     28  C   UNL     1       0.742  -0.511   1.242  0.00  0.00    +0.015 C 
ATOM     29  C   UNL     1      -1.433  -0.534   0.013  0.00  0.00    +0.015 C 
ENDBRANCH  20  27
BRANCH  24  30
ATOM     30  C   UNL     1       1.648  -3.773  -2.867  0.00  0.00    -0.009 C 
ATOM     31  C   UNL     1       2.396  -3.989  -4.184  0.00  0.00    +0.015 C 
ATOM     32  C   UNL     1       2.438  -4.409  -1.722  0.00  0.00    +0.015 C 
ATOM     33  C   UNL     1       0.264  -4.420  -2.953  0.00  0.00    +0.015 C 
ENDBRANCH  24  30
BRANCH  25  34
ATOM     34  O   UNL     1       0.356  -2.747  -0.573  0.00  0.00    -0.506 OA
ATOM     35  H   UNL     1      -0.556  -3.015  -0.749  0.00  0.00    +0.292 HD
ENDBRANCH  25  34
ENDBRANCH   1  22
BRANCH   8  36
ATOM     36  N   UNL     1       1.629  -0.067  -7.799  0.00  0.00    -0.328 N 
ATOM     37  H   UNL     1       2.013  -0.558  -8.542  0.00  0.00    +0.145 HD
ATOM     38  H   UNL     1       0.747   0.328  -7.883  0.00  0.00    +0.145 HD
ENDBRANCH   8  36
BRANCH   9  39
ATOM     39  C   UNL     1       0.473   1.327  -5.825  0.00  0.00    +0.100 C 
ATOM     40  N   UNL     1      -0.556   1.777  -5.993  0.00  0.00    -0.191 NA
ENDBRANCH   9  39
TORSDOF 7
