REMARK  Name = ZINC13193207
REMARK  13 active torsions:
REMARK  status: ('A' for Active; 'I' for Inactive)
REMARK    1  A    between atoms: C_1  and  C_2
REMARK    2  A    between atoms: C_5  and  N_8
REMARK    3  A    between atoms: C_9  and  C_11
REMARK    4  A    between atoms: C_11  and  N_12
REMARK    5  A    between atoms: N_12  and  C_13
REMARK    6  A    between atoms: C_14  and  C_16
REMARK    7  A    between atoms: C_16  and  C_18
REMARK    8  A    between atoms: C_16  and  S_19
REMARK    9  A    between atoms: S_19  and  C_20
REMARK   10  A    between atoms: C_23  and  C_29
REMARK   11  A    between atoms: N_24  and  C_25
REMARK   12  A    between atoms: C_25  and  C_26
REMARK   13  A    between atoms: C_26  and  C_27
REMARK                            x       y       z     vdW  Elec       q    Type
REMARK                         _______ _______ _______ _____ _____    ______ ____
ROOT
ATOM      1  C   UNL     1       1.457  -3.882  -3.620  0.00  0.00    +0.137 C 
ATOM      2  C   UNL     1       2.783  -4.583  -3.316  0.00  0.00    +0.029 C 
ENDROOT
BRANCH   1   5
ATOM      3  N   UNL     1       0.814  -4.695  -5.866  0.00  0.00    -0.295 N 
ATOM      4  C   UNL     1       0.405  -5.955  -5.241  0.00  0.00    +0.132 C 
ATOM      5  C   UNL     1       1.316  -3.699  -5.109  0.00  0.00    +0.229 C 
ATOM      6  O   UNL     1       1.654  -2.655  -5.627  0.00  0.00    -0.274 OA
BRANCH   3   7
ATOM      7  C   UNL     1       0.676  -4.517  -7.313  0.00  0.00    +0.203 C 
BRANCH   7   9
ATOM      8  N   UNL     1       2.041  -4.902  -9.340  0.00  0.00    -0.284 N 
ATOM      9  C   UNL     1       1.938  -4.973  -7.998  0.00  0.00    +0.235 C 
ATOM     10  O   UNL     1       2.862  -5.405  -7.341  0.00  0.00    -0.274 OA
ATOM     11  H   UNL     1       1.279  -4.620  -9.870  0.00  0.00    +0.155 HD
BRANCH   8  16
ATOM     12  C   UNL     1       6.928  -6.249 -11.887  0.00  0.00    +0.044 C 
ATOM     13  C   UNL     1       5.630  -5.891 -11.210  0.00  0.00    -0.050 A 
ATOM     14  C   UNL     1       5.230  -6.577 -10.078  0.00  0.00    +0.005 A 
ATOM     15  C   UNL     1       4.041  -6.251  -9.456  0.00  0.00    +0.023 A 
ATOM     16  C   UNL     1       3.247  -5.234  -9.968  0.00  0.00    +0.033 A 
ATOM     17  C   UNL     1       3.648  -4.551 -11.109  0.00  0.00    +0.023 A 
ATOM     18  C   UNL     1       4.841  -4.878 -11.723  0.00  0.00    +0.005 A 
ENDBRANCH   8  16
ENDBRANCH   7   9
ENDBRANCH   3   7
ENDBRANCH   1   5
BRANCH   1  19
ATOM     19  S   UNL     1       1.431  -2.265  -2.808  0.00  0.00    -0.074 S 
BRANCH  19  20
ATOM     20  C   UNL     1       1.457  -2.769  -1.120  0.00  0.00    +0.193 A 
ATOM     21  N   UNL     1       1.487  -4.005  -0.677  0.00  0.00    -0.122 NA
ATOM     22  N   UNL     1       1.499  -4.015   0.608  0.00  0.00    -0.128 NA
ATOM     23  C   UNL     1       1.483  -2.783   1.066  0.00  0.00    +0.172 A 
ATOM     24  N   UNL     1       1.450  -1.947  -0.028  0.00  0.00    -0.301 N 
BRANCH  23  25
ATOM     25  C   UNL     1       1.496  -2.374   2.480  0.00  0.00    +0.056 A 
ATOM     26  C   UNL     1       1.247  -3.127   3.600  0.00  0.00    +0.019 A 
ATOM     27  C   UNL     1       1.323  -2.521   4.834  0.00  0.00    +0.008 A 
ATOM     28  C   UNL     1       1.629  -1.200   4.905  0.00  0.00    +0.046 A 
ATOM     29  S   UNL     1       1.832  -0.768   3.184  0.00  0.00    -0.094 S 
ENDBRANCH  23  25
BRANCH  24  30
ATOM     30  C   UNL     1       1.419  -0.482  -0.022  0.00  0.00    +0.137 C 
BRANCH  30  31
ATOM     31  C   UNL     1      -0.033  -0.002  -0.007  0.00  0.00    +0.147 C 
BRANCH  31  32
ATOM     32  C   UNL     1      -0.065   1.505  -0.001  0.00  0.00    +0.358 C 
ATOM     33  O   UNL     1       0.969   2.130  -0.009  0.00  0.00    -0.246 OA
ATOM     34  O   UNL     1      -1.241   2.151   0.007  0.00  0.00    -0.246 OA
ENDBRANCH  31  32
ENDBRANCH  30  31
ENDBRANCH  24  30
ENDBRANCH  19  20
ENDBRANCH   1  19
TORSDOF 10
