REMARK  Name = ZINC63182510
REMARK  12 active torsions:
REMARK  status: ('A' for Active; 'I' for Inactive)
REMARK    1  A    between atoms: C_1  and  C_2
REMARK    2  A    between atoms: C_2  and  C_3
REMARK    3  A    between atoms: C_3  and  C_4
REMARK    4  A    between atoms: C_4  and  C_5
REMARK    5  A    between atoms: C_5  and  C_6
REMARK    6  A    between atoms: C_6  and  N_7
REMARK    7  A    between atoms: C_14  and  O_38
REMARK    8  A    between atoms: C_16  and  C_19
REMARK    9  A    between atoms: N_21  and  N_22
REMARK   10  A    between atoms: C_23  and  C_24
REMARK   11  A    between atoms: C_23  and  C_25
REMARK   12  A    between atoms: C_27  and  O_37
REMARK                            x       y       z     vdW  Elec       q    Type
REMARK                         _______ _______ _______ _____ _____    ______ ____
ROOT
ATOM      1  C   UNL     1       1.105  -5.370   7.304  0.00  0.00    +0.299 C 
ATOM      2  O   UNL     1      -0.200  -5.713   7.190  0.00  0.00    -0.264 OA
ATOM      3  N   UNL     1       1.691  -5.386   8.490  0.00  0.00    -0.106 NA
ENDROOT
BRANCH   1  12
ATOM      4  N   UNL     1       1.863  -4.531   3.837  0.00  0.00    -0.267 N 
ATOM      5  C   UNL     1       3.255  -4.647   3.785  0.00  0.00    +0.043 A 
ATOM      6  C   UNL     1       3.901  -4.654   2.555  0.00  0.00    +0.024 A 
ATOM      7  C   UNL     1       5.276  -4.773   2.500  0.00  0.00    +0.002 A 
ATOM      8  C   UNL     1       6.007  -4.885   3.669  0.00  0.00    +0.000 A 
ATOM      9  C   UNL     1       5.366  -4.877   4.893  0.00  0.00    +0.008 A 
ATOM     10  C   UNL     1       3.989  -4.756   4.957  0.00  0.00    +0.007 A 
ATOM     11  C   UNL     1       3.308  -4.738   6.297  0.00  0.00    +0.187 C 
ATOM     12  C   UNL     1       1.837  -4.996   6.163  0.00  0.00    +0.115 C 
ATOM     13  C   UNL     1       1.190  -4.877   4.980  0.00  0.00    +0.255 C 
ATOM     14  O   UNL     1      -0.140  -5.108   4.925  0.00  0.00    -0.270 OA
BRANCH  11  15
ATOM     15  O   UNL     1       3.885  -5.746   7.129  0.00  0.00    -0.382 OA
ATOM     16  H   UNL     1       3.555  -5.743   8.038  0.00  0.00    +0.211 HD
ENDBRANCH  11  15
BRANCH   4  17
ATOM     17  C   UNL     1       1.125  -4.035   2.673  0.00  0.00    +0.114 C 
BRANCH  17  18
ATOM     18  C   UNL     1       1.114  -2.505   2.690  0.00  0.00    +0.019 C 
BRANCH  18  19
ATOM     19  C   UNL     1       0.239  -1.988   1.546  0.00  0.00    +0.002 C 
BRANCH  19  20
ATOM     20  C   UNL     1       0.127  -0.465   1.638  0.00  0.00    -0.000 C 
BRANCH  20  22
ATOM     21  C   UNL     1      -0.859   1.575   0.586  0.00  0.00    +0.004 C 
ATOM     22  C   UNL     1      -0.747   0.052   0.494  0.00  0.00    -0.003 C 
ENDBRANCH  20  22
ENDBRANCH  19  20
ENDBRANCH  18  19
ENDBRANCH  17  18
ENDBRANCH   4  17
ENDBRANCH   1  12
BRANCH   3  23
ATOM     23  N   UNL     1       0.994  -5.858   9.610  0.00  0.00    -0.154 NA
ATOM     24  C   UNL     1       1.531  -5.784  10.786  0.00  0.00    +0.057 C 
ATOM     25  C   UNL     1       0.832  -6.393  11.974  0.00  0.00    +0.064 C 
BRANCH  24  26
ATOM     26  C   UNL     1       2.857  -5.090  10.966  0.00  0.00    +0.186 C 
ATOM     27  C   UNL     1       3.908  -6.152  11.222  0.00  0.00    +0.120 C 
ATOM     28  C   UNL     1       4.630  -6.056  12.413  0.00  0.00    +0.035 A 
ATOM     29  C   UNL     1       5.627  -7.002  12.729  0.00  0.00    +0.013 A 
ATOM     30  C   UNL     1       6.317  -6.886  13.897  0.00  0.00    +0.001 A 
ATOM     31  C   UNL     1       6.059  -5.850  14.788  0.00  0.00    +0.002 A 
ATOM     32  C   UNL     1       5.108  -4.906  14.538  0.00  0.00    +0.024 A 
ATOM     33  C   UNL     1       4.357  -4.964  13.351  0.00  0.00    +0.044 A 
ATOM     34  N   UNL     1       3.424  -4.035  13.107  0.00  0.00    -0.284 N 
ATOM     35  C   UNL     1       2.680  -4.020  12.020  0.00  0.00    +0.233 C 
ATOM     36  O   UNL     1       1.850  -3.144  11.865  0.00  0.00    -0.274 OA
ATOM     37  H   UNL     1       3.289  -3.336  13.765  0.00  0.00    +0.155 HD
BRANCH  27  38
ATOM     38  O   UNL     1       4.133  -7.137  10.346  0.00  0.00    -0.509 OA
ATOM     39  H   UNL     1       4.771  -7.796  10.651  0.00  0.00    +0.292 HD
ENDBRANCH  27  38
ENDBRANCH  24  26
ENDBRANCH   3  23
TORSDOF 10
