REMARK  Name = ZINC20761577
REMARK  6 active torsions:
REMARK  status: ('A' for Active; 'I' for Inactive)
REMARK    1  A    between atoms: C_1  and  C_2
REMARK    2  A    between atoms: C_6  and  N_9
REMARK    3  A    between atoms: C_7  and  C_8
REMARK    4  A    between atoms: C_37  and  C_39
REMARK    5  A    between atoms: C_39  and  C_40
REMARK    6  A    between atoms: C_39  and  C_41
REMARK                            x       y       z     vdW  Elec       q    Type
REMARK                         _______ _______ _______ _____ _____    ______ ____
ROOT
ATOM      1  N   UNL     1      -0.387  -2.886   2.306  0.00  0.00    -0.210 N 
ATOM      2  C   UNL     1      -1.606  -3.200   2.760  0.00  0.00    +0.232 C 
ATOM      3  O   UNL     1      -2.651  -2.883   2.235  0.00  0.00    -0.274 OA
ATOM      4  C   UNL     1      -1.476  -4.012   4.029  0.00  0.00    +0.107 C 
ATOM      5  C   UNL     1       0.061  -4.122   4.228  0.00  0.00    +0.121 C 
ATOM      6  C   UNL     1       0.621  -3.355   3.051  0.00  0.00    +0.233 C 
ATOM      7  O   UNL     1       1.799  -3.189   2.820  0.00  0.00    -0.274 OA
ATOM      8  C   UNL     1       0.337  -3.374   5.537  0.00  0.00    +0.118 C 
ATOM      9  C   UNL     1       0.832  -1.980   5.287  0.00  0.00    +0.005 A 
ATOM     10  C   UNL     1       0.301  -0.891   4.630  0.00  0.00    +0.008 A 
ATOM     11  C   UNL     1       1.013   0.294   4.566  0.00  0.00    +0.000 A 
ATOM     12  C   UNL     1       2.259   0.382   5.161  0.00  0.00    +0.002 A 
ATOM     13  C   UNL     1       2.794  -0.705   5.819  0.00  0.00    +0.026 A 
ATOM     14  C   UNL     1       2.082  -1.901   5.888  0.00  0.00    +0.057 A 
ATOM     15  N   UNL     1       2.417  -3.122   6.495  0.00  0.00    -0.262 N 
ATOM     16  C   UNL     1       1.429  -4.048   6.330  0.00  0.00    +0.143 A 
ATOM     17  N   UNL     1       1.503  -5.258   6.805  0.00  0.00    -0.231 NA
ATOM     18  C   UNL     1       2.577  -5.693   7.506  0.00  0.00    +0.078 A 
ATOM     19  C   UNL     1       2.647  -6.992   8.014  0.00  0.00    +0.028 A 
ATOM     20  C   UNL     1       3.760  -7.389   8.721  0.00  0.00    +0.002 A 
ATOM     21  C   UNL     1       4.815  -6.512   8.937  0.00  0.00    +0.001 A 
ATOM     22  C   UNL     1       4.769  -5.226   8.446  0.00  0.00    +0.015 A 
ATOM     23  C   UNL     1       3.652  -4.804   7.727  0.00  0.00    +0.065 A 
ATOM     24  C   UNL     1       3.545  -3.447   7.179  0.00  0.00    +0.266 A 
ATOM     25  O   UNL     1       4.440  -2.635   7.335  0.00  0.00    -0.267 OA
ATOM     26  N   UNL     1      -0.936  -3.374   6.281  0.00  0.00    -0.296 NA
ATOM     27  C   UNL     1      -1.986  -3.173   5.220  0.00  0.00    +0.070 C 
ATOM     28  H   UNL     1      -1.072  -4.248   6.766  0.00  0.00    +0.123 HD
ENDROOT
BRANCH   1  34
ATOM     29  C   UNL     1       0.503  -2.719  -2.528  0.00  0.00    +0.044 C 
ATOM     30  C   UNL     1       0.251  -2.026  -1.214  0.00  0.00    -0.046 A 
ATOM     31  C   UNL     1       0.223  -0.645  -1.156  0.00  0.00    +0.004 A 
ATOM     32  C   UNL     1      -0.007  -0.006   0.049  0.00  0.00    +0.002 A 
ATOM     33  C   UNL     1      -0.209  -0.746   1.197  0.00  0.00    +0.024 A 
ATOM     34  C   UNL     1      -0.182  -2.132   1.142  0.00  0.00    +0.047 A 
ATOM     35  C   UNL     1       0.044  -2.772  -0.070  0.00  0.00    -0.026 A 
ATOM     36  C   UNL     1       0.068  -4.277  -0.136  0.00  0.00    +0.046 C 
ENDBRANCH   1  34
BRANCH  27  37
ATOM     37  C   UNL     1      -3.338  -3.701   5.703  0.00  0.00    +0.001 C 
ATOM     38  C   UNL     1      -3.824  -2.857   6.883  0.00  0.00    +0.009 C 
ATOM     39  C   UNL     1      -4.355  -3.617   4.563  0.00  0.00    +0.009 C 
ENDBRANCH  27  37
TORSDOF 2
