REMARK  Name = ZINC64502371
REMARK  8 active torsions:
REMARK  status: ('A' for Active; 'I' for Inactive)
REMARK    1  A    between atoms: C_1  and  C_2
REMARK    2  A    between atoms: C_2  and  N_3
REMARK    3  A    between atoms: C_11  and  N_15
REMARK    4  A    between atoms: C_19  and  C_22
REMARK    5  A    between atoms: N_24  and  C_25
REMARK    6  A    between atoms: C_25  and  C_26
REMARK    7  A    between atoms: C_26  and  C_27
REMARK    8  A    between atoms: C_30  and  C_36
REMARK                            x       y       z     vdW  Elec       q    Type
REMARK                         _______ _______ _______ _____ _____    ______ ____
ROOT
ATOM      1  N   UNL     1       2.781  -2.689  -2.323  0.00  0.00    +0.398 N 
ATOM      2  C   UNL     1       3.488  -3.108  -1.107  0.00  0.00    -0.075 C 
ATOM      3  C   UNL     1       3.463  -4.634  -0.997  0.00  0.00    -0.018 C 
ATOM      4  C   UNL     1       4.152  -5.239  -2.224  0.00  0.00    +0.009 C 
ATOM      5  C   UNL     1       3.452  -4.737  -3.490  0.00  0.00    +0.058 C 
ATOM      6  C   UNL     1       3.477  -3.207  -3.507  0.00  0.00    -0.063 C 
ATOM      7  H   UNL     1       1.839  -3.050  -2.303  0.00  0.00    -0.078 HD
ENDROOT
BRANCH   1  16
ATOM      8  N   UNL     1       0.688  -0.476  -1.203  0.00  0.00    -0.270 N 
ATOM      9  C   UNL     1      -0.046  -0.706  -2.373  0.00  0.00    +0.057 A 
ATOM     10  C   UNL     1      -1.429  -0.777  -2.339  0.00  0.00    +0.025 A 
ATOM     11  C   UNL     1      -2.136  -1.000  -3.507  0.00  0.00    +0.002 A 
ATOM     12  C   UNL     1      -1.470  -1.150  -4.709  0.00  0.00    +0.002 A 
ATOM     13  C   UNL     1      -0.089  -1.083  -4.753  0.00  0.00    +0.025 A 
ATOM     14  C   UNL     1       0.624  -0.862  -3.588  0.00  0.00    +0.048 A 
ATOM     15  N   UNL     1       2.025  -0.799  -3.597  0.00  0.00    -0.348 N 
ATOM     16  C   UNL     1       2.740  -1.222  -2.384  0.00  0.00    +0.105 C 
ATOM     17  C   UNL     1       2.018  -0.681  -1.176  0.00  0.00    +0.223 C 
ATOM     18  O   UNL     1       2.643  -0.430  -0.167  0.00  0.00    -0.275 OA
ATOM     19  H   UNL     1       2.506  -0.487  -4.379  0.00  0.00    +0.145 HD
BRANCH   8  21
ATOM     20  C   UNL     1      -0.019   1.526   0.010  0.00  0.00    +0.025 C 
ATOM     21  C   UNL     1       0.002  -0.004   0.002  0.00  0.00    +0.110 C 
ENDBRANCH   8  21
ENDBRANCH   1  16
BRANCH   5  22
ATOM     22  C   UNL     1       4.168  -5.267  -4.705  0.00  0.00    +0.214 C 
ATOM     23  O   UNL     1       4.649  -4.497  -5.509  0.00  0.00    -0.276 OA
ATOM     24  N   UNL     1       4.275  -6.596  -4.899  0.00  0.00    -0.315 N 
ATOM     25  H   UNL     1       3.890  -7.212  -4.255  0.00  0.00    +0.149 HD
BRANCH  24  26
ATOM     26  C   UNL     1       4.971  -7.111  -6.080  0.00  0.00    +0.108 C 
BRANCH  26  27
ATOM     27  C   UNL     1       4.949  -8.641  -6.059  0.00  0.00    +0.052 C 
BRANCH  27  28
ATOM     28  C   UNL     1       5.666  -9.171  -7.274  0.00  0.00    -0.040 C 
ATOM     29  C   UNL     1       6.960  -9.556  -7.351  0.00  0.00    -0.001 A 
ATOM     30  C   UNL     1       8.047  -9.594  -6.365  0.00  0.00    +0.013 A 
ATOM     31  C   UNL     1       9.265 -10.039  -6.748  0.00  0.00    -0.050 A 
ATOM     32  C   UNL     1       9.515 -10.464  -8.060  0.00  0.00    +0.005 A 
ATOM     33  C   UNL     1       8.568 -10.459  -9.022  0.00  0.00    +0.026 A 
ATOM     34  C   UNL     1       7.250 -10.010  -8.730  0.00  0.00    +0.043 A 
ATOM     35  N   UNL     1       6.177  -9.910  -9.476  0.00  0.00    -0.380 N 
ATOM     36  C   UNL     1       5.082  -9.386  -8.652  0.00  0.00    +0.144 C 
ATOM     37  C   UNL     1      10.383 -10.080  -5.738  0.00  0.00    +0.044 C 
ATOM     38  H   UNL     1       6.115 -10.147 -10.415  0.00  0.00    +0.160 HD
ENDBRANCH  27  28
ENDBRANCH  26  27
ENDBRANCH  24  26
ENDBRANCH   5  22
TORSDOF 6
