REMARK  Name = ZINC39881571
REMARK  5 active torsions:
REMARK  status: ('A' for Active; 'I' for Inactive)
REMARK    1  A    between atoms: C_1  and  C_2
REMARK    2  A    between atoms: N_12  and  C_15
REMARK    3  A    between atoms: C_18  and  C_21
REMARK    4  A    between atoms: N_23  and  C_24
REMARK    5  A    between atoms: C_29  and  N_30
REMARK                            x       y       z     vdW  Elec       q    Type
REMARK                         _______ _______ _______ _____ _____    ______ ____
ROOT
ATOM      1  C   UNL     1      -0.139  -4.572   4.778  0.00  0.00    +0.035 A 
ATOM      2  C   UNL     1      -0.265  -3.216   5.063  0.00  0.00    +0.024 A 
ATOM      3  C   UNL     1      -0.263  -2.783   6.370  0.00  0.00    +0.015 A 
ATOM      4  C   UNL     1      -0.133  -3.707   7.411  0.00  0.00    +0.037 A 
ATOM      5  C   UNL     1      -0.007  -5.069   7.121  0.00  0.00    +0.015 A 
ATOM      6  C   UNL     1      -0.015  -5.496   5.812  0.00  0.00    +0.024 A 
ENDROOT
BRANCH   1  18
ATOM      7  C   UNL     1       6.929  -4.201   1.783  0.00  0.00    +0.044 C 
ATOM      8  C   UNL     1       5.518  -4.589   1.425  0.00  0.00    -0.048 A 
ATOM      9  C   UNL     1       5.242  -5.062   0.144  0.00  0.00    +0.004 A 
ATOM     10  C   UNL     1       3.976  -5.421  -0.209  0.00  0.00    +0.010 A 
ATOM     11  C   UNL     1       2.937  -5.312   0.728  0.00  0.00    -0.001 A 
ATOM     12  C   UNL     1       1.614  -5.672   0.404  0.00  0.00    +0.017 A 
ATOM     13  C   UNL     1       0.655  -5.542   1.362  0.00  0.00    -0.007 A 
ATOM     14  C   UNL     1       0.979  -5.061   2.637  0.00  0.00    +0.107 A 
ATOM     15  N   UNL     1       2.231  -4.726   2.927  0.00  0.00    -0.342 N 
ATOM     16  C   UNL     1       3.214  -4.831   2.031  0.00  0.00    +0.048 A 
ATOM     17  C   UNL     1       4.535  -4.476   2.359  0.00  0.00    +0.029 A 
ATOM     18  N   UNL     1      -0.141  -5.007   3.456  0.00  0.00    -0.286 N 
ATOM     19  C   UNL     1      -1.326  -5.472   2.731  0.00  0.00    +0.117 C 
ATOM     20  C   UNL     1      -0.827  -5.838   1.324  0.00  0.00    +0.058 C 
ATOM     21  H   UNL     1       2.436  -4.395   3.815  0.00  0.00    +0.167 HD
ENDBRANCH   1  18
BRANCH   4  22
ATOM     22  C   UNL     1      -0.130  -3.246   8.812  0.00  0.00    +0.248 C 
ATOM     23  O   UNL     1      -0.240  -2.061   9.063  0.00  0.00    -0.270 OA
ATOM     24  N   UNL     1      -0.005  -4.138   9.814  0.00  0.00    -0.280 N 
ATOM     25  H   UNL     1       0.152  -5.074   9.614  0.00  0.00    +0.155 HD
BRANCH  24  26
ATOM     26  C   UNL     1      -0.102  -3.714  11.145  0.00  0.00    +0.068 A 
ATOM     27  C   UNL     1       0.380  -2.465  11.513  0.00  0.00    +0.075 A 
ATOM     28  C   UNL     1       0.283  -2.046  12.829  0.00  0.00    +0.168 A 
ATOM     29  C   UNL     1      -0.298  -2.879  13.782  0.00  0.00    +0.169 A 
ATOM     30  C   UNL     1      -0.777  -4.125  13.412  0.00  0.00    +0.084 A 
ATOM     31  C   UNL     1      -0.685  -4.540  12.097  0.00  0.00    +0.151 A 
ATOM     32  O   UNL     1      -0.273  -2.243  14.991  0.00  0.00    -0.453 OA
ATOM     33  C   UNL     1       0.693  -1.185  14.848  0.00  0.00    +0.466 C 
ATOM     34  O   UNL     1       0.670  -0.888  13.440  0.00  0.00    -0.453 OA
BRANCH  31  35
ATOM     35  N   UNL     1      -1.204  -5.870  11.703  0.00  0.00    +0.058 N 
ATOM     36  O   UNL     1      -1.635  -6.623  12.544  0.00  0.00    -0.126 OA
ATOM     37  O   UNL     1      -1.196  -6.202  10.541  0.00  0.00    -0.126 OA
ENDBRANCH  31  35
ENDBRANCH  24  26
ENDBRANCH   4  22
TORSDOF 4
