REMARK  Name = ZINC13212154
REMARK  10 active torsions:
REMARK  status: ('A' for Active; 'I' for Inactive)
REMARK    1  A    between atoms: C_5  and  C_7
REMARK    2  A    between atoms: C_7  and  S_8
REMARK    3  A    between atoms: S_8  and  C_9
REMARK    4  A    between atoms: C_9  and  C_10
REMARK    5  A    between atoms: C_10  and  N_11
REMARK    6  A    between atoms: N_11  and  C_12
REMARK    7  A    between atoms: C_15  and  N_29
REMARK    8  A    between atoms: C_17  and  S_18
REMARK    9  A    between atoms: S_18  and  N_21
REMARK   10  A    between atoms: C_24  and  C_27
REMARK                            x       y       z     vdW  Elec       q    Type
REMARK                         _______ _______ _______ _____ _____    ______ ____
ROOT
ATOM      1  C   UNL     1      -3.339   2.965  -0.132  0.00  0.00    +0.054 A 
ATOM      2  C   UNL     1      -1.998   3.321  -0.206  0.00  0.00    +0.027 A 
ATOM      3  C   UNL     1      -1.023   2.344  -0.172  0.00  0.00    +0.034 A 
ATOM      4  C   UNL     1      -1.381   1.011  -0.075  0.00  0.00    +0.128 A 
ATOM      5  C   UNL     1      -2.714   0.653  -0.002  0.00  0.00    +0.063 A 
ATOM      6  C   UNL     1      -3.695   1.626  -0.030  0.00  0.00    +0.128 A 
ENDROOT
BRANCH   6   7
ATOM      7  S   UNL     1      -5.394   1.169   0.064  0.00  0.00    +0.063 S 
ATOM      8  O   UNL     1      -5.429  -0.250   0.140  0.00  0.00    -0.153 OA
ATOM      9  O   UNL     1      -5.984   2.000   1.054  0.00  0.00    -0.153 OA
BRANCH   7  10
ATOM     10  N   UNL     1      -6.092   1.583  -1.380  0.00  0.00    -0.176 NA
ATOM     11  C   UNL     1      -6.822   2.850  -1.522  0.00  0.00    +0.110 C 
ATOM     12  C   UNL     1      -8.220   2.561  -2.066  0.00  0.00    +0.032 C 
ATOM     13  C   UNL     1      -8.104   1.754  -3.361  0.00  0.00    +0.105 C 
ATOM     14  C   UNL     1      -7.411   0.420  -3.072  0.00  0.00    +0.032 C 
ATOM     15  C   UNL     1      -5.999   0.688  -2.541  0.00  0.00    +0.110 C 
BRANCH  13  16
ATOM     16  C   UNL     1      -9.481   1.494  -3.915  0.00  0.00    +0.359 C 
ATOM     17  O   UNL     1      -9.868   0.359  -4.064  0.00  0.00    -0.246 OA
ATOM     18  O   UNL     1     -10.277   2.523  -4.244  0.00  0.00    -0.246 OA
ENDBRANCH  13  16
ENDBRANCH   7  10
ENDBRANCH   6   7
BRANCH   4  19
ATOM     19  N   UNL     1      -0.333  -0.034  -0.045  0.00  0.00    +0.056 N 
ATOM     20  O   UNL     1      -0.646  -1.208   0.045  0.00  0.00    -0.126 OA
ATOM     21  O   UNL     1       0.842   0.279  -0.115  0.00  0.00    -0.126 OA
ENDBRANCH   4  19
BRANCH   1  22
ATOM     22  N   UNL     1      -4.328   3.951  -0.161  0.00  0.00    -0.342 N 
ATOM     23  H   UNL     1      -5.259   3.709  -0.035  0.00  0.00    +0.146 HD
BRANCH  22  24
ATOM     24  C   UNL     1      -3.959   5.352  -0.382  0.00  0.00    +0.112 C 
BRANCH  24  25
ATOM     25  C   UNL     1      -5.219   6.219  -0.368  0.00  0.00    +0.088 C 
BRANCH  25  26
ATOM     26  S   UNL     1      -4.763   7.953  -0.640  0.00  0.00    -0.154 S 
BRANCH  26  27
ATOM     27  C   UNL     1      -6.346   8.836  -0.596  0.00  0.00    +0.107 C 
BRANCH  27  32
ATOM     28  C   UNL     1      -5.658  12.488   0.070  0.00  0.00    +0.000 A 
ATOM     29  C   UNL     1      -5.668  13.011  -1.210  0.00  0.00    +0.003 A 
ATOM     30  C   UNL     1      -5.896  12.183  -2.292  0.00  0.00    +0.038 A 
ATOM     31  C   UNL     1      -6.117  10.830  -2.095  0.00  0.00    +0.127 A 
ATOM     32  C   UNL     1      -6.107  10.309  -0.813  0.00  0.00    -0.002 A 
ATOM     33  C   UNL     1      -5.884  11.139   0.269  0.00  0.00    +0.007 A 
ATOM     34  F   UNL     1      -6.341  10.020  -3.153  0.00  0.00    -0.205 F 
ENDBRANCH  27  32
ENDBRANCH  26  27
ENDBRANCH  25  26
ENDBRANCH  24  25
ENDBRANCH  22  24
ENDBRANCH   1  22
TORSDOF 10
