REMARK  Name = ZINC15859442
REMARK  10 active torsions:
REMARK  status: ('A' for Active; 'I' for Inactive)
REMARK    1  A    between atoms: C_1  and  C_2
REMARK    2  A    between atoms: C_7  and  C_9
REMARK    3  A    between atoms: C_7  and  C_19
REMARK    4  A    between atoms: C_7  and  N_65
REMARK    5  A    between atoms: C_13  and  O_17
REMARK    6  A    between atoms: C_14  and  O_15
REMARK    7  A    between atoms: O_15  and  C_16
REMARK    8  A    between atoms: O_17  and  C_18
REMARK    9  A    between atoms: C_20  and  N_28
REMARK   10  A    between atoms: C_29  and  C_31
REMARK                            x       y       z     vdW  Elec       q    Type
REMARK                         _______ _______ _______ _____ _____    ______ ____
ROOT
ATOM      1  C   UNL     1      -2.470   6.639  -0.590  0.00  0.00    +0.035 C 
ENDROOT
BRANCH   1   2
ATOM      2  C   UNL     1      -2.005   5.305  -0.066  0.00  0.00    +0.118 A 
ATOM      3  C   UNL     1      -2.813   4.283   0.269  0.00  0.00    +0.082 A 
ATOM      4  C   UNL     1      -1.931   3.198   0.725  0.00  0.00    +0.042 A 
ATOM      5  C   UNL     1      -2.143   1.902   1.190  0.00  0.00    +0.013 A 
ATOM      6  C   UNL     1      -1.075   1.127   1.548  0.00  0.00    +0.001 A 
ATOM      7  C   UNL     1       0.217   1.619   1.440  0.00  0.00    +0.004 A 
ATOM      8  C   UNL     1       0.447   2.897   0.977  0.00  0.00    +0.047 A 
ATOM      9  C   UNL     1      -0.625   3.703   0.613  0.00  0.00    +0.137 A 
ATOM     10  O   UNL     1      -0.718   4.961   0.138  0.00  0.00    -0.459 OA
BRANCH   3  11
ATOM     11  N   UNL     1      -4.216   4.258   0.197  0.00  0.00    -0.278 N 
ATOM     12  C   UNL     1      -4.853   3.118  -0.139  0.00  0.00    +0.255 C 
ATOM     13  O   UNL     1      -4.220   2.090  -0.292  0.00  0.00    -0.269 OA
ATOM     14  H   UNL     1      -4.726   5.060   0.388  0.00  0.00    +0.155 HD
BRANCH  12  15
ATOM     15  C   UNL     1      -6.307   3.117  -0.318  0.00  0.00    +0.074 A 
ATOM     16  C   UNL     1      -7.145   2.067  -0.658  0.00  0.00    +0.021 A 
ATOM     17  C   UNL     1      -8.486   2.344  -0.760  0.00  0.00    +0.008 A 
ATOM     18  C   UNL     1      -8.921   3.610  -0.528  0.00  0.00    +0.046 A 
ATOM     19  S   UNL     1      -7.462   4.466  -0.148  0.00  0.00    -0.092 S 
ENDBRANCH  12  15
ENDBRANCH   3  11
ENDBRANCH   1   2
BRANCH   1  26
ATOM     20  C   UNL     1      -0.846  11.087   2.611  0.00  0.00    +0.007 C 
ATOM     21  C   UNL     1      -1.690  10.038   1.883  0.00  0.00    -0.018 C 
ATOM     22  C   UNL     1      -1.310   8.641   2.381  0.00  0.00    -0.015 C 
ATOM     23  C   UNL     1      -2.113   7.593   1.606  0.00  0.00    -0.077 C 
ATOM     24  C   UNL     1      -2.224   9.034  -0.340  0.00  0.00    -0.077 C 
ATOM     25  C   UNL     1      -1.425  10.125   0.378  0.00  0.00    -0.015 C 
ATOM     26  N   UNL     1      -1.795   7.713   0.167  0.00  0.00    +0.389 N 
ATOM     27  H   UNL     1      -0.780   7.622   0.042  0.00  0.00    -0.080 HD
ENDBRANCH   1  26
BRANCH   1  28
ATOM     28  C   UNL     1      -2.102   6.762  -2.046  0.00  0.00    -0.008 A 
ATOM     29  C   UNL     1      -0.908   7.359  -2.409  0.00  0.00    +0.006 A 
ATOM     30  C   UNL     1      -0.567   7.472  -3.744  0.00  0.00    +0.004 A 
ATOM     31  C   UNL     1      -1.417   6.991  -4.722  0.00  0.00    +0.049 A 
ATOM     32  C   UNL     1      -2.615   6.393  -4.365  0.00  0.00    +0.162 A 
ATOM     33  C   UNL     1      -2.956   6.273  -3.021  0.00  0.00    +0.163 A 
BRANCH  33  34
ATOM     34  O   UNL     1      -4.128   5.682  -2.665  0.00  0.00    -0.491 OA
ATOM     35  C   UNL     1      -5.273   6.529  -2.548  0.00  0.00    +0.277 C 
ENDBRANCH  33  34
BRANCH  32  36
ATOM     36  O   UNL     1      -3.453   5.919  -5.325  0.00  0.00    -0.491 OA
ATOM     37  C   UNL     1      -3.035   6.071  -6.683  0.00  0.00    +0.277 C 
ENDBRANCH  32  36
ENDBRANCH   1  28
TORSDOF 7
