REMARK  Name = ZINC40981932
REMARK  16 active torsions:
REMARK  status: ('A' for Active; 'I' for Inactive)
REMARK    1  A    between atoms: C_1  and  C_2
REMARK    2  A    between atoms: C_2  and  C_3
REMARK    3  A    between atoms: C_3  and  S_4
REMARK    4  A    between atoms: S_4  and  C_5
REMARK    5  A    between atoms: C_10  and  C_21
REMARK    6  A    between atoms: C_12  and  C_16
REMARK    7  A    between atoms: C_13  and  C_15
REMARK    8  A    between atoms: C_16  and  O_18
REMARK    9  A    between atoms: O_18  and  C_19
REMARK   10  A    between atoms: C_19  and  C_20
REMARK   11  A    between atoms: C_24  and  O_27
REMARK   12  A    between atoms: O_27  and  C_28
REMARK   13  A    between atoms: C_28  and  C_29
REMARK   14  A    between atoms: C_31  and  C_37
REMARK   15  A    between atoms: C_32  and  C_36
REMARK   16  A    between atoms: C_34  and  C_35
REMARK                            x       y       z     vdW  Elec       q    Type
REMARK                         _______ _______ _______ _____ _____    ______ ____
ROOT
ATOM      1  C   UNL     1      -3.140  -2.839  -0.439  0.00  0.00    +0.210 A 
ATOM      2  N   UNL     1      -4.161  -1.972  -0.378  0.00  0.00    -0.187 NA
ATOM      3  C   UNL     1      -5.274  -2.623  -0.173  0.00  0.00    +0.219 A 
ATOM      4  N   UNL     1      -4.981  -3.944  -0.093  0.00  0.00    -0.220 N 
ATOM      5  N   UNL     1      -3.603  -4.060  -0.275  0.00  0.00    -0.141 NA
ATOM      6  C   UNL     1      -5.982  -4.981   0.141  0.00  0.00    +0.179 C 
ATOM      7  C   UNL     1      -7.359  -4.395  -0.024  0.00  0.00    +0.082 C 
ATOM      8  C   UNL     1      -7.588  -3.075  -0.102  0.00  0.00    +0.020 C 
ATOM      9  N   UNL     1      -6.574  -2.152  -0.047  0.00  0.00    -0.287 N 
ATOM     10  C   UNL     1      -9.007  -2.590  -0.255  0.00  0.00    +0.061 C 
ATOM     11  H   UNL     1      -6.758  -1.208   0.075  0.00  0.00    +0.155 HD
ENDROOT
BRANCH   6  12
ATOM     12  C   UNL     1      -5.830  -5.520   1.540  0.00  0.00    -0.018 A 
ATOM     13  C   UNL     1      -5.971  -4.674   2.625  0.00  0.00    +0.009 A 
ATOM     14  C   UNL     1      -5.832  -5.166   3.908  0.00  0.00    +0.046 A 
ATOM     15  C   UNL     1      -5.550  -6.509   4.109  0.00  0.00    +0.121 A 
ATOM     16  C   UNL     1      -5.409  -7.356   3.019  0.00  0.00    +0.046 A 
ATOM     17  C   UNL     1      -5.554  -6.861   1.737  0.00  0.00    +0.009 A 
BRANCH  15  18
ATOM     18  O   UNL     1      -5.411  -6.995   5.370  0.00  0.00    -0.487 OA
BRANCH  18  19
ATOM     19  C   UNL     1      -5.122  -8.388   5.501  0.00  0.00    +0.264 C 
BRANCH  19  20
ATOM     20  C   UNL     1      -5.004  -8.742   6.961  0.00  0.00    -0.007 A 
ATOM     21  C   UNL     1      -5.181  -7.766   7.925  0.00  0.00    +0.010 A 
ATOM     22  C   UNL     1      -5.073  -8.091   9.264  0.00  0.00    -0.047 A 
ATOM     23  C   UNL     1      -4.790  -9.391   9.640  0.00  0.00    -0.047 A 
ATOM     24  C   UNL     1      -4.614 -10.366   8.677  0.00  0.00    +0.007 A 
ATOM     25  C   UNL     1      -4.726 -10.042   7.337  0.00  0.00    -0.044 A 
ATOM     26  C   UNL     1      -4.540 -11.107   6.287  0.00  0.00    +0.044 C 
ATOM     27  C   UNL     1      -4.672  -9.744  11.100  0.00  0.00    +0.044 C 
ATOM     28  C   UNL     1      -5.265  -7.028  10.315  0.00  0.00    +0.044 C 
ENDBRANCH  19  20
ENDBRANCH  18  19
ENDBRANCH  15  18
ENDBRANCH   6  12
BRANCH   7  29
ATOM     29  C   UNL     1      -8.461  -5.276  -0.101  0.00  0.00    +0.339 C 
ATOM     30  O   UNL     1      -8.655  -5.919  -1.116  0.00  0.00    -0.245 OA
BRANCH  29  31
ATOM     31  O   UNL     1      -9.297  -5.404   0.950  0.00  0.00    -0.462 OA
BRANCH  31  32
ATOM     32  C   UNL     1     -10.391  -6.312   0.803  0.00  0.00    +0.229 C 
ATOM     33  C   UNL     1     -11.222  -6.322   2.087  0.00  0.00    +0.048 C 
ENDBRANCH  31  32
ENDBRANCH  29  31
ENDBRANCH   7  29
BRANCH   1  34
ATOM     34  S   UNL     1      -1.450  -2.414  -0.703  0.00  0.00    -0.084 S 
BRANCH  34  35
ATOM     35  C   UNL     1      -1.471  -0.606  -0.850  0.00  0.00    +0.077 C 
BRANCH  35  37
ATOM     36  C   UNL     1      -0.065   1.428  -1.209  0.00  0.00    +0.004 C 
ATOM     37  C   UNL     1      -0.048  -0.097  -1.085  0.00  0.00    +0.008 C 
ENDBRANCH  35  37
ENDBRANCH  34  35
ENDBRANCH   1  34
TORSDOF 10
