REMARK  Name = ZINC13214169
REMARK  8 active torsions:
REMARK  status: ('A' for Active; 'I' for Inactive)
REMARK    1  A    between atoms: C_1  and  C_2
REMARK    2  A    between atoms: C_7  and  O_36
REMARK    3  A    between atoms: C_8  and  C_12
REMARK    4  A    between atoms: C_14  and  C_29
REMARK    5  A    between atoms: N_18  and  C_19
REMARK    6  A    between atoms: C_23  and  C_25
REMARK    7  A    between atoms: C_29  and  C_31
REMARK    8  A    between atoms: O_36  and  C_37
REMARK                            x       y       z     vdW  Elec       q    Type
REMARK                         _______ _______ _______ _____ _____    ______ ____
ROOT
ATOM      1  C   UNL     1       0.112  -4.104   3.126  0.00  0.00    +0.153 C 
ATOM      2  C   UNL     1      -0.516  -4.415   4.465  0.00  0.00    +0.080 C 
ATOM      3  C   UNL     1       0.472  -4.338   5.387  0.00  0.00    +0.250 C 
ATOM      4  C   UNL     1       1.738  -3.987   4.714  0.00  0.00    +0.292 C 
ATOM      5  O   UNL     1       2.808  -3.844   5.272  0.00  0.00    -0.266 OA
ATOM      6  N   UNL     1       1.534  -3.850   3.390  0.00  0.00    -0.253 N 
ATOM      7  O   UNL     1       0.323  -4.549   6.715  0.00  0.00    -0.282 OA
ENDROOT
BRANCH   1  14
ATOM      8  C   UNL     1      -3.394   0.099  -1.748  0.00  0.00    +0.052 C 
ATOM      9  C   UNL     1      -3.288  -0.524  -0.354  0.00  0.00    +0.175 C 
ATOM     10  C   UNL     1      -2.461   0.380   0.589  0.00  0.00    +0.083 C 
ATOM     11  C   UNL     1      -1.712  -0.641   1.425  0.00  0.00    +0.001 A 
ATOM     12  C   UNL     1      -1.024  -0.535   2.613  0.00  0.00    +0.053 A 
ATOM     13  C   UNL     1      -0.428  -1.658   3.170  0.00  0.00    +0.126 A 
ATOM     14  C   UNL     1      -0.530  -2.881   2.524  0.00  0.00    +0.023 A 
ATOM     15  C   UNL     1      -1.217  -2.983   1.332  0.00  0.00    +0.055 A 
ATOM     16  C   UNL     1      -1.814  -1.859   0.767  0.00  0.00    +0.125 A 
ATOM     17  O   UNL     1      -2.518  -1.737  -0.396  0.00  0.00    -0.488 OA
BRANCH  13  18
ATOM     18  O   UNL     1       0.253  -1.560   4.343  0.00  0.00    -0.495 OA
ATOM     19  C   UNL     1       0.418  -0.250   4.890  0.00  0.00    +0.277 C 
ENDBRANCH  13  18
ENDBRANCH   1  14
BRANCH   6  20
ATOM     20  C   UNL     1       2.502  -3.523   2.436  0.00  0.00    +0.038 A 
ATOM     21  C   UNL     1       2.146  -3.407   1.096  0.00  0.00    +0.023 A 
ATOM     22  C   UNL     1       3.099  -3.084   0.148  0.00  0.00    +0.003 A 
ATOM     23  C   UNL     1       4.410  -2.873   0.525  0.00  0.00    +0.015 A 
ATOM     24  C   UNL     1       4.778  -2.986   1.868  0.00  0.00    +0.065 A 
ATOM     25  C   UNL     1       3.814  -3.308   2.826  0.00  0.00    +0.038 A 
BRANCH  24  26
ATOM     26  C   UNL     1       6.179  -2.761   2.273  0.00  0.00    +0.387 C 
ATOM     27  O   UNL     1       7.020  -2.476   1.433  0.00  0.00    -0.241 OA
ATOM     28  O   UNL     1       6.498  -2.861   3.450  0.00  0.00    -0.241 OA
ENDBRANCH  24  26
ENDBRANCH   6  20
BRANCH   2  29
ATOM     29  C   UNL     1      -1.925  -4.738   4.717  0.00  0.00    +0.230 C 
ATOM     30  O   UNL     1      -2.330  -4.843   5.861  0.00  0.00    -0.283 OA
BRANCH  29  31
ATOM     31  C   UNL     1      -2.845  -4.933   3.592  0.00  0.00    +0.175 A 
ATOM     32  C   UNL     1      -4.210  -5.098   3.680  0.00  0.00    +0.053 A 
ATOM     33  C   UNL     1      -4.679  -5.249   2.367  0.00  0.00    +0.042 A 
ATOM     34  C   UNL     1      -3.605  -5.172   1.548  0.00  0.00    +0.196 A 
ATOM     35  O   UNL     1      -2.506  -4.976   2.287  0.00  0.00    -0.460 OA
ENDBRANCH  29  31
ENDBRANCH   2  29
TORSDOF 6
