REMARK  Name = ZINC21127628
REMARK  14 active torsions:
REMARK  status: ('A' for Active; 'I' for Inactive)
REMARK    1  A    between atoms: C_1  and  C_2
REMARK    2  A    between atoms: C_2  and  C_3
REMARK    3  A    between atoms: C_3  and  N_4
REMARK    4  A    between atoms: C_5  and  C_33
REMARK    5  A    between atoms: C_7  and  C_10
REMARK    6  A    between atoms: C_8  and  C_9
REMARK    7  A    between atoms: C_11  and  C_12
REMARK    8  A    between atoms: C_11  and  C_14
REMARK    9  A    between atoms: C_14  and  O_16
REMARK   10  A    between atoms: O_16  and  C_17
REMARK   11  A    between atoms: C_17  and  C_19
REMARK   12  A    between atoms: C_17  and  C_20
REMARK   13  A    between atoms: N_22  and  C_23
REMARK   14  A    between atoms: C_26  and  N_30
REMARK                            x       y       z     vdW  Elec       q    Type
REMARK                         _______ _______ _______ _____ _____    ______ ____
ROOT
ATOM      1  O   UNL     1       3.804   2.519  -0.553  0.00  0.00    -0.448 OA
ENDROOT
BRANCH   1   2
ATOM      2  C   UNL     1       5.016   1.958  -0.741  0.00  0.00    +0.350 C 
ATOM      3  O   UNL     1       5.101   0.823  -1.169  0.00  0.00    -0.244 OA
BRANCH   2   5
ATOM      4  C   UNL     1       7.475   2.142  -0.619  0.00  0.00    +0.035 C 
ATOM      5  C   UNL     1       6.233   2.717  -0.427  0.00  0.00    +0.136 C 
BRANCH   4   9
ATOM      6  N   UNL     1      10.762   3.516  -0.195  0.00  0.00    -0.348 N 
ATOM      7  C   UNL     1      10.040   4.675  -0.207  0.00  0.00    +0.016 A 
ATOM      8  C   UNL     1       8.738   4.383  -0.367  0.00  0.00    +0.030 A 
ATOM      9  C   UNL     1       8.649   2.919  -0.452  0.00  0.00    -0.003 A 
ATOM     10  C   UNL     1       9.949   2.454  -0.341  0.00  0.00    +0.023 A 
ATOM     11  C   UNL     1      10.379   1.010  -0.377  0.00  0.00    +0.064 C 
ATOM     12  C   UNL     1      10.612   6.062  -0.069  0.00  0.00    +0.063 C 
BRANCH   6  13
ATOM     13  C   UNL     1      12.217   3.441  -0.047  0.00  0.00    +0.121 C 
BRANCH  13  15
ATOM     14  C   UNL     1      14.395   3.417  -1.273  0.00  0.00    +0.005 C 
ATOM     15  C   UNL     1      12.874   3.495  -1.428  0.00  0.00    +0.018 C 
ENDBRANCH  13  15
ENDBRANCH   6  13
ENDBRANCH   4   9
BRANCH   5  16
ATOM     16  C   UNL     1       6.133   4.053   0.078  0.00  0.00    +0.106 C 
ATOM     17  N   UNL     1       6.053   5.113   0.478  0.00  0.00    -0.191 NA
ENDBRANCH   5  16
ENDBRANCH   2   5
ENDBRANCH   1   2
BRANCH   1  18
ATOM     18  C   UNL     1       2.645   1.710  -0.885  0.00  0.00    +0.259 C 
ATOM     19  C   UNL     1       2.209   0.914   0.347  0.00  0.00    +0.062 C 
BRANCH  18  20
ATOM     20  C   UNL     1       1.518   2.605  -1.329  0.00  0.00    +0.258 C 
ATOM     21  O   UNL     1       1.675   3.808  -1.363  0.00  0.00    -0.271 OA
ATOM     22  N   UNL     1       0.334   2.071  -1.688  0.00  0.00    -0.281 N 
ATOM     23  H   UNL     1       0.216   0.978  -1.737  0.00  0.00    +0.155 HD
BRANCH  22  24
ATOM     24  C   UNL     1      -0.746   2.906  -1.999  0.00  0.00    +0.052 A 
ATOM     25  C   UNL     1      -0.736   4.235  -1.596  0.00  0.00    +0.027 A 
ATOM     26  C   UNL     1      -1.803   5.056  -1.905  0.00  0.00    +0.034 A 
ATOM     27  C   UNL     1      -2.880   4.557  -2.614  0.00  0.00    +0.128 A 
ATOM     28  C   UNL     1      -2.893   3.235  -3.018  0.00  0.00    +0.054 A 
ATOM     29  C   UNL     1      -1.826   2.409  -2.717  0.00  0.00    +0.064 A 
ATOM     30 CL   UNL     1      -1.840   0.750  -3.230  0.00  0.00    -0.082 Cl
BRANCH  27  31
ATOM     31  N   UNL     1      -4.021   5.441  -2.943  0.00  0.00    +0.056 N 
ATOM     32  O   UNL     1      -4.010   6.606  -2.589  0.00  0.00    -0.126 OA
ATOM     33  O   UNL     1      -4.970   5.003  -3.568  0.00  0.00    -0.126 OA
ENDBRANCH  27  31
ENDBRANCH  22  24
ENDBRANCH  18  20
ENDBRANCH   1  18
TORSDOF 10
