REMARK  Name = ZINC18137087
REMARK  5 active torsions:
REMARK  status: ('A' for Active; 'I' for Inactive)
REMARK    1  A    between atoms: C_1  and  O_2
REMARK    2  A    between atoms: O_2  and  C_3
REMARK    3  A    between atoms: C_6  and  C_9
REMARK    4  A    between atoms: C_14  and  C_30
REMARK    5  A    between atoms: C_24  and  C_26
REMARK                            x       y       z     vdW  Elec       q    Type
REMARK                         _______ _______ _______ _____ _____    ______ ____
ROOT
ATOM      1  C   UNL     1       4.233   0.236   3.833  0.00  0.00    +0.032 C 
ATOM      2  C   UNL     1       4.541   1.628   3.280  0.00  0.00    +0.059 C 
ATOM      3  C   UNL     1       4.115   1.711   1.824  0.00  0.00    +0.017 C 
ATOM      4  C   UNL     1       3.045   1.027   1.389  0.00  0.00    +0.037 C 
ATOM      5  C   UNL     1       2.490   1.048  -0.016  0.00  0.00    +0.147 C 
ATOM      6  N   UNL     1       3.355   1.676  -0.992  0.00  0.00    -0.251 N 
ATOM      7  C   UNL     1       3.665   3.034  -0.912  0.00  0.00    +0.059 A 
ATOM      8  C   UNL     1       3.252   3.929  -1.886  0.00  0.00    +0.025 A 
ATOM      9  C   UNL     1       3.545   5.274  -1.742  0.00  0.00    +0.002 A 
ATOM     10  C   UNL     1       4.241   5.724  -0.634  0.00  0.00    +0.002 A 
ATOM     11  C   UNL     1       4.670   4.830   0.332  0.00  0.00    +0.025 A 
ATOM     12  C   UNL     1       4.395   3.482   0.178  0.00  0.00    +0.053 A 
ATOM     13  N   UNL     1       4.886   2.522   1.054  0.00  0.00    -0.316 N 
ATOM     14  C   UNL     1       3.870   0.936  -1.994  0.00  0.00    +0.325 C 
ATOM     15  O   UNL     1       3.608  -0.245  -2.073  0.00  0.00    -0.265 OA
ATOM     16  C   UNL     1       2.327   0.188   2.274  0.00  0.00    +0.163 C 
ATOM     17  O   UNL     1       1.354  -0.409   1.855  0.00  0.00    -0.292 OA
ATOM     18  C   UNL     1       2.721   0.010   3.709  0.00  0.00    +0.088 C 
ATOM     19  H   UNL     1       5.848   2.424   1.121  0.00  0.00    +0.152 HD
ENDROOT
BRANCH   5  20
ATOM     20  C   UNL     1       1.174   1.783   0.000  0.00  0.00    -0.019 A 
ATOM     21  C   UNL     1       0.002   1.109  -0.284  0.00  0.00    +0.006 A 
ATOM     22  C   UNL     1      -1.205   1.782  -0.270  0.00  0.00    +0.003 A 
ATOM     23  C   UNL     1      -1.241   3.131   0.030  0.00  0.00    +0.038 A 
ATOM     24  C   UNL     1      -0.068   3.806   0.321  0.00  0.00    +0.124 A 
ATOM     25  C   UNL     1       1.141   3.132   0.300  0.00  0.00    +0.044 A 
ATOM     26  F   UNL     1      -0.103   5.123   0.620  0.00  0.00    -0.205 F 
ENDBRANCH   5  20
BRANCH   1  30
ATOM     27  C   UNL     1       5.398   0.018   7.938  0.00  0.00    +0.120 A 
ATOM     28  C   UNL     1       5.941  -0.863   7.014  0.00  0.00    +0.046 A 
ATOM     29  C   UNL     1       5.562  -0.790   5.688  0.00  0.00    +0.007 A 
ATOM     30  C   UNL     1       4.644   0.160   5.280  0.00  0.00    -0.043 A 
ATOM     31  C   UNL     1       4.106   1.043   6.198  0.00  0.00    +0.007 A 
ATOM     32  C   UNL     1       4.477   0.971   7.527  0.00  0.00    +0.046 A 
BRANCH  27  34
ATOM     33  C   UNL     1       5.170   0.888  10.139  0.00  0.00    +0.277 C 
ATOM     34  O   UNL     1       5.769  -0.051   9.244  0.00  0.00    -0.495 OA
ENDBRANCH  27  34
ENDBRANCH   1  30
BRANCH  14  35
ATOM     35  C   UNL     1       4.773   1.577  -3.017  0.00  0.00    +0.470 C 
ATOM     36  F   UNL     1       5.178   0.616  -3.949  0.00  0.00    -0.162 F 
ATOM     37  F   UNL     1       4.081   2.601  -3.673  0.00  0.00    -0.162 F 
ATOM     38  F   UNL     1       5.897   2.111  -2.377  0.00  0.00    -0.162 F 
ENDBRANCH  14  35
TORSDOF 4
