REMARK  Name = ZINC08381876
REMARK  3 active torsions:
REMARK  status: ('A' for Active; 'I' for Inactive)
REMARK    1  A    between atoms: C_8  and  C_12
REMARK    2  A    between atoms: C_12  and  C_14
REMARK    3  A    between atoms: C_15  and  C_16
REMARK                            x       y       z     vdW  Elec       q    Type
REMARK                         _______ _______ _______ _____ _____    ______ ____
ROOT
ATOM      1  C   UNL     1       3.537   6.151   0.001  0.00  0.00    +0.197 C 
ATOM      2  O   UNL     1       4.631   5.620   0.084  0.00  0.00    -0.287 OA
ENDROOT
BRANCH   1  10
ATOM      3  C   UNL     1      -1.244   2.908   2.233  0.00  0.00    +0.001 A 
ATOM      4  C   UNL     1      -1.767   2.555   0.997  0.00  0.00    +0.004 A 
ATOM      5  C   UNL     1      -1.163   2.976  -0.168  0.00  0.00    +0.047 A 
ATOM      6  C   UNL     1      -0.012   3.754  -0.112  0.00  0.00    +0.143 A 
ATOM      7  C   UNL     1       0.517   4.105   1.140  0.00  0.00    +0.065 A 
ATOM      8  C   UNL     1      -0.114   3.672   2.312  0.00  0.00    +0.015 A 
ATOM      9  C   UNL     1       1.733   4.925   1.208  0.00  0.00    +0.207 A 
ATOM     10  C   UNL     1       2.319   5.328   0.004  0.00  0.00    +0.153 A 
ATOM     11  C   UNL     1       1.696   4.912  -1.252  0.00  0.00    +0.352 A 
ATOM     12  O   UNL     1       2.192   5.252  -2.310  0.00  0.00    -0.244 OA
ATOM     13  O   UNL     1       0.584   4.161  -1.253  0.00  0.00    -0.421 OA
ATOM     14  O   UNL     1       2.267   5.280   2.395  0.00  0.00    -0.286 OA
ENDBRANCH   1  10
BRANCH   1  15
ATOM     15  C   UNL     1       3.436   7.607  -0.102  0.00  0.00    +0.052 C 
ATOM     16  C   UNL     1       4.555   8.355  -0.210  0.00  0.00    +0.012 C 
BRANCH  16  17
ATOM     17  C   UNL     1       4.453   9.818  -0.314  0.00  0.00    -0.021 A 
ATOM     18  C   UNL     1       3.198  10.437  -0.299  0.00  0.00    +0.012 A 
ATOM     19  C   UNL     1       3.106  11.808  -0.396  0.00  0.00    +0.050 A 
ATOM     20  C   UNL     1       4.255  12.580  -0.508  0.00  0.00    +0.166 A 
ATOM     21  C   UNL     1       5.510  11.970  -0.523  0.00  0.00    +0.167 A 
ATOM     22  C   UNL     1       5.612  10.597  -0.420  0.00  0.00    +0.057 A 
ATOM     23  O   UNL     1       6.465  12.939  -0.640  0.00  0.00    -0.453 OA
ATOM     24  C   UNL     1       5.807  14.170  -0.285  0.00  0.00    +0.466 C 
ATOM     25  O   UNL     1       4.427  13.929  -0.617  0.00  0.00    -0.453 OA
ENDBRANCH  16  17
ENDBRANCH   1  15
TORSDOF 3
