REMARK  Name = ZINC09542211
REMARK  10 active torsions:
REMARK  status: ('A' for Active; 'I' for Inactive)
REMARK    1  A    between atoms: C_1  and  C_2
REMARK    2  A    between atoms: C_2  and  O_3
REMARK    3  A    between atoms: O_3  and  C_4
REMARK    4  A    between atoms: C_7  and  C_10
REMARK    5  A    between atoms: C_12  and  C_25
REMARK    6  A    between atoms: C_14  and  C_17
REMARK    7  A    between atoms: C_22  and  O_23
REMARK    8  A    between atoms: C_28  and  C_31
REMARK    9  A    between atoms: C_31  and  O_33
REMARK   10  A    between atoms: O_33  and  C_34
REMARK                            x       y       z     vdW  Elec       q    Type
REMARK                         _______ _______ _______ _____ _____    ______ ____
ROOT
ATOM      1  C   UNL     1       3.868   3.354  -1.877  0.00  0.00    +0.040 C 
ATOM      2  N   UNL     1       3.473   3.142  -0.677  0.00  0.00    -0.299 NA
ATOM      3  C   UNL     1       2.452   3.933  -0.001  0.00  0.00    +0.081 C 
ATOM      4  C   UNL     1       2.027   4.995  -2.124  0.00  0.00    -0.028 C 
ATOM      5  C   UNL     1       3.327   4.463  -2.736  0.00  0.00    +0.044 C 
ATOM      6  N   UNL     1       2.252   5.220  -0.683  0.00  0.00    +0.401 N 
ATOM      7  H   UNL     1       3.086   5.806  -0.556  0.00  0.00    -0.081 HD
ATOM      8  H   UNL     1       1.436   5.696  -0.281  0.00  0.00    -0.081 HD
ENDROOT
BRANCH   4   9
ATOM      9  C   UNL     1       1.648   6.295  -2.785  0.00  0.00    -0.018 A 
ATOM     10  C   UNL     1       2.035   7.495  -2.222  0.00  0.00    +0.025 A 
ATOM     11  C   UNL     1       1.691   8.689  -2.830  0.00  0.00    +0.041 A 
ATOM     12  C   UNL     1       0.950   8.684  -3.999  0.00  0.00    +0.023 A 
ATOM     13  C   UNL     1       0.556   7.486  -4.562  0.00  0.00    +0.047 A 
ATOM     14  C   UNL     1       0.904   6.287  -3.956  0.00  0.00    +0.119 A 
ATOM     15 CL   UNL     1       2.184  10.196  -2.124  0.00  0.00    -0.084 Cl
BRANCH  14  16
ATOM     16  O   UNL     1       0.517   5.107  -4.509  0.00  0.00    -0.507 OA
ATOM     17  H   UNL     1      -0.340   4.789  -4.196  0.00  0.00    +0.292 HD
ENDBRANCH  14  16
ENDBRANCH   4   9
BRANCH   1  21
ATOM     18  C   UNL     1       6.843   0.802  -3.507  0.00  0.00    +0.121 A 
ATOM     19  C   UNL     1       6.393   0.600  -2.208  0.00  0.00    +0.046 A 
ATOM     20  C   UNL     1       5.428   1.425  -1.675  0.00  0.00    +0.013 A 
ATOM     21  C   UNL     1       4.901   2.467  -2.443  0.00  0.00    -0.004 A 
ATOM     22  C   UNL     1       5.353   2.664  -3.751  0.00  0.00    +0.013 A 
ATOM     23  C   UNL     1       6.322   1.837  -4.274  0.00  0.00    +0.046 A 
BRANCH  18  24
ATOM     24  O   UNL     1       7.794  -0.015  -4.028  0.00  0.00    -0.492 OA
BRANCH  24  26
ATOM     25  C   UNL     1       9.280  -0.766  -5.780  0.00  0.00    +0.048 C 
ATOM     26  C   UNL     1       8.211   0.249  -5.369  0.00  0.00    +0.225 C 
ENDBRANCH  24  26
ENDBRANCH  18  24
ENDBRANCH   1  21
BRANCH   3  27
ATOM     27  C   UNL     1       1.155   3.167   0.008  0.00  0.00    -0.040 A 
ATOM     28  C   UNL     1       1.172   1.783   0.000  0.00  0.00    +0.004 A 
ATOM     29  C   UNL     1      -0.013   1.076   0.008  0.00  0.00    +0.015 A 
ATOM     30  C   UNL     1      -1.230   1.759   0.017  0.00  0.00    +0.059 A 
ATOM     31  C   UNL     1      -1.240   3.155   0.030  0.00  0.00    +0.015 A 
ATOM     32  C   UNL     1      -0.048   3.850   0.023  0.00  0.00    +0.004 A 
BRANCH  30  33
ATOM     33  C   UNL     1      -2.502   1.008   0.020  0.00  0.00    +0.339 C 
ATOM     34  O   UNL     1      -2.491  -0.206   0.013  0.00  0.00    -0.245 OA
BRANCH  33  35
ATOM     35  O   UNL     1      -3.675   1.670   0.029  0.00  0.00    -0.464 OA
ATOM     36  C   UNL     1      -4.886   0.868   0.031  0.00  0.00    +0.280 C 
ENDBRANCH  33  35
ENDBRANCH  30  33
ENDBRANCH   3  27
TORSDOF 8
