REMARK  Name = ZINC23371371
REMARK  5 active torsions:
REMARK  status: ('A' for Active; 'I' for Inactive)
REMARK    1  A    between atoms: C_4  and  C_7
REMARK    2  A    between atoms: C_7  and  C_8
REMARK    3  A    between atoms: C_13  and  N_14
REMARK    4  A    between atoms: N_14  and  S_15
REMARK    5  A    between atoms: S_15  and  C_18
REMARK                            x       y       z     vdW  Elec       q    Type
REMARK                         _______ _______ _______ _____ _____    ______ ____
ROOT
ATOM      1  S   UNL     1       1.722  -3.804   2.362  0.00  0.00    +0.072 S 
ATOM      2  O   UNL     1       1.040  -4.677   1.472  0.00  0.00    -0.150 OA
ATOM      3  O   UNL     1       2.422  -4.277   3.505  0.00  0.00    -0.150 OA
ENDROOT
BRANCH   1   4
ATOM      4  C   UNL     1       0.529  -2.646   2.946  0.00  0.00    +0.111 A 
ATOM      5  C   UNL     1       0.732  -1.995   4.152  0.00  0.00    +0.031 A 
ATOM      6  C   UNL     1      -0.197  -1.087   4.616  0.00  0.00    +0.030 A 
ATOM      7  C   UNL     1      -1.343  -0.822   3.873  0.00  0.00    +0.066 A 
ATOM      8  C   UNL     1      -1.547  -1.478   2.658  0.00  0.00    +0.068 A 
ATOM      9  C   UNL     1      -0.600  -2.386   2.197  0.00  0.00    +0.056 A 
ATOM     10  N   UNL     1      -2.687  -1.226   1.900  0.00  0.00    -0.316 N 
ATOM     11  H   UNL     1      -2.820  -1.687   1.057  0.00  0.00    +0.169 HD
ATOM     12  C   UNL     1      -3.607  -0.343   2.336  0.00  0.00    +0.314 A 
ATOM     13  O   UNL     1      -4.604  -0.120   1.679  0.00  0.00    -0.262 OA
ATOM     14  C   UNL     1      -3.389   0.358   3.634  0.00  0.00    +0.314 A 
ATOM     15  O   UNL     1      -4.207   1.157   4.045  0.00  0.00    -0.262 OA
ATOM     16  N   UNL     1      -2.276   0.095   4.348  0.00  0.00    -0.316 N 
ATOM     17  H   UNL     1      -2.125   0.545   5.194  0.00  0.00    +0.169 HD
ENDBRANCH   1   4
BRANCH   1  18
ATOM     18  N   UNL     1       2.818  -2.961   1.451  0.00  0.00    -0.216 N 
ATOM     19  H   UNL     1       2.949  -3.188   0.517  0.00  0.00    +0.174 HD
BRANCH  18  25
ATOM     20  C   UNL     1       3.933  -0.829   1.260  0.00  0.00    -0.021 A 
ATOM     21  C   UNL     1       4.656   0.198   1.834  0.00  0.00    +0.006 A 
ATOM     22  C   UNL     1       5.008   0.135   3.170  0.00  0.00    +0.000 A 
ATOM     23  C   UNL     1       4.638  -0.956   3.935  0.00  0.00    +0.002 A 
ATOM     24  C   UNL     1       3.914  -1.986   3.367  0.00  0.00    +0.025 A 
ATOM     25  C   UNL     1       3.554  -1.923   2.027  0.00  0.00    +0.052 A 
BRANCH  20  26
ATOM     26  C   UNL     1       3.550  -0.760  -0.196  0.00  0.00    +0.072 C 
BRANCH  26  30
ATOM     27  C   UNL     1      -0.384   0.866  -0.560  0.00  0.00    +0.000 A 
ATOM     28  C   UNL     1       0.714   1.705  -0.569  0.00  0.00    +0.000 A 
ATOM     29  C   UNL     1       1.987   1.179  -0.451  0.00  0.00    +0.004 A 
ATOM     30  C   UNL     1       2.162  -0.186  -0.324  0.00  0.00    -0.043 A 
ATOM     31  C   UNL     1       1.063  -1.025  -0.313  0.00  0.00    +0.004 A 
ATOM     32  C   UNL     1      -0.209  -0.499  -0.433  0.00  0.00    +0.000 A 
ENDBRANCH  26  30
ENDBRANCH  20  26
ENDBRANCH  18  25
ENDBRANCH   1  18
TORSDOF 5
