REMARK  Name = ZINC59418442
REMARK  12 active torsions:
REMARK  status: ('A' for Active; 'I' for Inactive)
REMARK    1  A    between atoms: C_1  and  C_2
REMARK    2  A    between atoms: C_2  and  O_3
REMARK    3  A    between atoms: O_3  and  C_4
REMARK    4  A    between atoms: C_4  and  C_6
REMARK    5  A    between atoms: C_7  and  C_39
REMARK    6  A    between atoms: C_14  and  C_15
REMARK    7  A    between atoms: C_16  and  C_25
REMARK    8  A    between atoms: C_27  and  C_29
REMARK    9  A    between atoms: C_31  and  O_37
REMARK   10  A    between atoms: C_34  and  O_35
REMARK   11  A    between atoms: O_35  and  C_36
REMARK   12  A    between atoms: O_37  and  C_38
REMARK                            x       y       z     vdW  Elec       q    Type
REMARK                         _______ _______ _______ _____ _____    ______ ____
ROOT
ATOM      1  C   UNL     1       1.484  -2.557  -2.861  0.00  0.00    +0.085 C 
ATOM      2  C   UNL     1       1.972  -3.796  -3.170  0.00  0.00    +0.053 C 
ATOM      3  N   UNL     1       2.587  -4.011  -4.327  0.00  0.00    -0.228 NA
ATOM      4  C   UNL     1       2.780  -3.101  -5.247  0.00  0.00    +0.178 A 
ATOM      5  N   UNL     1       2.369  -1.791  -5.138  0.00  0.00    -0.275 N 
ATOM      6  C   UNL     1       2.630  -0.960  -6.154  0.00  0.00    +0.268 A 
ATOM      7  O   UNL     1       2.284   0.207  -6.098  0.00  0.00    -0.266 OA
ATOM      8  C   UNL     1       3.315  -1.452  -7.297  0.00  0.00    +0.081 A 
ATOM      9  C   UNL     1       3.683  -0.796  -8.433  0.00  0.00    +0.030 C 
ATOM     10  S   UNL     1       3.565  -3.162  -6.845  0.00  0.00    -0.046 S 
ATOM     11  C   UNL     1       1.660  -1.449  -3.874  0.00  0.00    +0.165 C 
ATOM     12  C   UNL     1       1.811  -4.929  -2.189  0.00  0.00    +0.066 C 
ENDROOT
BRANCH   9  13
ATOM     13  C   UNL     1       4.390  -1.511  -9.495  0.00  0.00    +0.004 A 
ATOM     14  C   UNL     1       5.493  -2.306  -9.352  0.00  0.00    +0.021 A 
ATOM     15  N   UNL     1       5.862  -2.797 -10.562  0.00  0.00    -0.358 N 
ATOM     16  H   UNL     1       6.618  -3.386 -10.713  0.00  0.00    +0.166 HD
ATOM     17  C   UNL     1       5.010  -2.341 -11.547  0.00  0.00    +0.047 A 
ATOM     18  C   UNL     1       4.050  -1.523 -10.930  0.00  0.00    +0.007 A 
ATOM     19  C   UNL     1       3.049  -0.924 -11.691  0.00  0.00    +0.010 A 
ATOM     20  C   UNL     1       3.005  -1.141 -13.052  0.00  0.00    +0.001 A 
ATOM     21  C   UNL     1       3.951  -1.951 -13.662  0.00  0.00    +0.002 A 
ATOM     22  C   UNL     1       4.951  -2.543 -12.922  0.00  0.00    +0.026 A 
ATOM     23  C   UNL     1       6.194  -2.592  -8.049  0.00  0.00    +0.064 C 
ENDBRANCH   9  13
BRANCH  11  24
ATOM     24  C   UNL     1       2.421  -0.330  -3.210  0.00  0.00    +0.025 A 
ATOM     25  C   UNL     1       1.768   0.835  -2.857  0.00  0.00    +0.055 A 
ATOM     26  C   UNL     1       2.467   1.864  -2.246  0.00  0.00    +0.121 A 
ATOM     27  C   UNL     1       3.823   1.724  -1.988  0.00  0.00    +0.049 A 
ATOM     28  C   UNL     1       4.476   0.559  -2.340  0.00  0.00    +0.049 A 
ATOM     29  C   UNL     1       3.775  -0.473  -2.947  0.00  0.00    +0.126 A 
BRANCH  29  30
ATOM     30  O   UNL     1       4.416  -1.622  -3.289  0.00  0.00    -0.495 OA
ATOM     31  C   UNL     1       5.786  -1.740  -2.901  0.00  0.00    +0.277 C 
ENDBRANCH  29  30
BRANCH  26  32
ATOM     32  O   UNL     1       1.825   3.012  -1.900  0.00  0.00    -0.495 OA
ATOM     33  C   UNL     1       2.608   4.030  -1.273  0.00  0.00    +0.277 C 
ENDBRANCH  26  32
ENDBRANCH  11  24
BRANCH   1  34
ATOM     34  C   UNL     1       0.833  -2.322  -1.640  0.00  0.00    +0.339 C 
ATOM     35  O   UNL     1       0.585  -3.252  -0.893  0.00  0.00    -0.245 OA
BRANCH  34  36
ATOM     36  O   UNL     1       0.481  -1.065  -1.293  0.00  0.00    -0.462 OA
BRANCH  36  38
ATOM     37  C   UNL     1      -0.498   0.577   0.186  0.00  0.00    +0.048 C 
ATOM     38  C   UNL     1      -0.071  -0.882   0.012  0.00  0.00    +0.229 C 
ENDBRANCH  36  38
ENDBRANCH  34  36
ENDBRANCH   1  34
TORSDOF 7
