REMARK  Name = ZINC39324915
REMARK  11 active torsions:
REMARK  status: ('A' for Active; 'I' for Inactive)
REMARK    1  A    between atoms: C_1  and  C_2
REMARK    2  A    between atoms: C_7  and  C_14
REMARK    3  A    between atoms: C_14  and  N_15
REMARK    4  A    between atoms: N_15  and  C_16
REMARK    5  A    between atoms: N_15  and  S_24
REMARK    6  A    between atoms: C_16  and  C_17
REMARK    7  A    between atoms: C_17  and  C_18
REMARK    8  A    between atoms: S_24  and  C_27
REMARK    9  A    between atoms: C_28  and  C_35
REMARK   10  A    between atoms: C_30  and  C_34
REMARK   11  A    between atoms: C_32  and  C_33
REMARK                            x       y       z     vdW  Elec       q    Type
REMARK                         _______ _______ _______ _____ _____    ______ ____
ROOT
ATOM      1  N   UNL     1       1.148  -6.834   2.763  0.00  0.00    -0.175 NA
ENDROOT
BRANCH   1   2
ATOM      2  S   UNL     1       1.653  -5.809   3.962  0.00  0.00    +0.061 S 
ATOM      3  O   UNL     1       1.818  -4.532   3.362  0.00  0.00    -0.153 OA
ATOM      4  O   UNL     1       0.789  -6.025   5.070  0.00  0.00    -0.153 OA
BRANCH   2   5
ATOM      5  C   UNL     1       3.256  -6.342   4.462  0.00  0.00    +0.111 A 
ATOM      6  C   UNL     1       4.381  -5.745   3.926  0.00  0.00    -0.024 A 
ATOM      7  C   UNL     1       5.639  -6.163   4.319  0.00  0.00    +0.008 A 
ATOM      8  C   UNL     1       5.772  -7.178   5.247  0.00  0.00    -0.050 A 
ATOM      9  C   UNL     1       4.646  -7.776   5.783  0.00  0.00    +0.008 A 
ATOM     10  C   UNL     1       3.388  -7.355   5.394  0.00  0.00    -0.024 A 
ATOM     11  C   UNL     1       2.162  -8.002   5.983  0.00  0.00    +0.046 C 
ATOM     12  C   UNL     1       7.143  -7.635   5.674  0.00  0.00    +0.044 C 
ATOM     13  C   UNL     1       4.237  -4.637   2.914  0.00  0.00    +0.046 C 
ENDBRANCH   2   5
ENDBRANCH   1   2
BRANCH   1  14
ATOM     14  C   UNL     1       1.383  -6.489   1.358  0.00  0.00    +0.126 C 
BRANCH  14  21
ATOM     15  C   UNL     1      -1.050  -0.954  -3.074  0.00  0.00    +0.044 C 
ATOM     16  C   UNL     1      -0.693  -2.280  -2.454  0.00  0.00    -0.049 A 
ATOM     17  C   UNL     1      -0.143  -3.273  -3.265  0.00  0.00    +0.004 A 
ATOM     18  C   UNL     1       0.199  -4.487  -2.764  0.00  0.00    +0.010 A 
ATOM     19  C   UNL     1      -0.018  -4.749  -1.341  0.00  0.00    -0.007 A 
ATOM     20  C   UNL     1       0.311  -5.954  -0.793  0.00  0.00    -0.003 C 
ATOM     21  C   UNL     1       0.053  -6.137   0.690  0.00  0.00    +0.114 C 
ATOM     22  C   UNL     1      -0.548  -4.970   1.440  0.00  0.00    +0.225 C 
ATOM     23  O   UNL     1      -0.776  -5.062   2.632  0.00  0.00    -0.275 OA
ATOM     24  N   UNL     1      -0.824  -3.848   0.796  0.00  0.00    -0.284 N 
ATOM     25  C   UNL     1      -0.599  -3.683  -0.507  0.00  0.00    +0.041 A 
ATOM     26  C   UNL     1      -0.913  -2.458  -1.125  0.00  0.00    +0.027 A 
ATOM     27  H   UNL     1      -1.209  -3.111   1.296  0.00  0.00    +0.155 HD
ENDBRANCH  14  21
ENDBRANCH   1  14
BRANCH   1  28
ATOM     28  C   UNL     1       0.467  -8.084   3.106  0.00  0.00    +0.114 C 
BRANCH  28  29
ATOM     29  C   UNL     1       1.437  -9.256   2.938  0.00  0.00    +0.052 C 
BRANCH  29  30
ATOM     30  C   UNL     1       0.736 -10.543   3.291  0.00  0.00    -0.046 A 
ATOM     31  C   UNL     1       0.756 -11.006   4.593  0.00  0.00    +0.003 A 
ATOM     32  C   UNL     1       0.113 -12.186   4.917  0.00  0.00    +0.000 A 
ATOM     33  C   UNL     1      -0.550 -12.902   3.939  0.00  0.00    +0.000 A 
ATOM     34  C   UNL     1      -0.572 -12.439   2.637  0.00  0.00    +0.000 A 
ATOM     35  C   UNL     1       0.068 -11.256   2.314  0.00  0.00    +0.003 A 
ENDBRANCH  29  30
ENDBRANCH  28  29
ENDBRANCH   1  28
TORSDOF 7
