REMARK  Name = ZINC64817342
REMARK  9 active torsions:
REMARK  status: ('A' for Active; 'I' for Inactive)
REMARK    1  A    between atoms: C_1  and  C_2
REMARK    2  A    between atoms: C_2  and  N_3
REMARK    3  A    between atoms: C_6  and  C_8
REMARK    4  A    between atoms: C_10  and  S_24
REMARK    5  A    between atoms: N_11  and  C_14
REMARK    6  A    between atoms: C_14  and  C_15
REMARK    7  A    between atoms: S_24  and  C_25
REMARK    8  A    between atoms: C_25  and  C_26
REMARK    9  A    between atoms: N_28  and  C_29
REMARK                            x       y       z     vdW  Elec       q    Type
REMARK                         _______ _______ _______ _____ _____    ______ ____
ROOT
ATOM      1  N   UNL     1       0.695  -0.407  -1.225  0.00  0.00    -0.257 N 
ATOM      2  C   UNL     1       0.109  -0.681  -2.432  0.00  0.00    +0.152 A 
ATOM      3  C   UNL     1       1.127  -1.114  -3.291  0.00  0.00    +0.119 A 
ATOM      4  C   UNL     1       2.326  -1.085  -2.554  0.00  0.00    +0.086 A 
ATOM      5  N   UNL     1       2.067  -0.664  -1.345  0.00  0.00    -0.174 NA
ATOM      6  C   UNL     1       3.686  -1.472  -3.076  0.00  0.00    +0.070 C 
ATOM      7  N   UNL     1       0.819  -1.455  -4.565  0.00  0.00    -0.220 NA
ATOM      8  C   UNL     1      -0.415  -1.385  -5.003  0.00  0.00    +0.173 A 
ATOM      9  N   UNL     1      -1.443  -0.970  -4.206  0.00  0.00    -0.282 N 
ATOM     10  C   UNL     1      -1.213  -0.614  -2.923  0.00  0.00    +0.281 A 
ATOM     11  O   UNL     1      -2.127  -0.242  -2.206  0.00  0.00    -0.265 OA
ENDROOT
BRANCH   1  13
ATOM     12  C   UNL     1      -0.009   1.606  -0.028  0.00  0.00    +0.029 C 
ATOM     13  C   UNL     1       0.011   0.076  -0.023  0.00  0.00    +0.141 C 
ENDBRANCH   1  13
BRANCH   9  14
ATOM     14  C   UNL     1      -2.804  -0.910  -4.745  0.00  0.00    +0.162 C 
BRANCH  14  15
ATOM     15  C   UNL     1      -3.493  -2.230  -4.518  0.00  0.00    -0.024 A 
ATOM     16  C   UNL     1      -3.402  -3.229  -5.470  0.00  0.00    +0.009 A 
ATOM     17  C   UNL     1      -4.032  -4.442  -5.265  0.00  0.00    +0.050 A 
ATOM     18  C   UNL     1      -4.757  -4.660  -4.105  0.00  0.00    +0.166 A 
ATOM     19  C   UNL     1      -4.849  -3.655  -3.147  0.00  0.00    +0.167 A 
ATOM     20  C   UNL     1      -4.211  -2.443  -3.355  0.00  0.00    +0.055 A 
ATOM     21  O   UNL     1      -5.610  -4.110  -2.108  0.00  0.00    -0.453 OA
ATOM     22  C   UNL     1      -6.319  -5.252  -2.624  0.00  0.00    +0.466 C 
ATOM     23  O   UNL     1      -5.460  -5.746  -3.668  0.00  0.00    -0.453 OA
ENDBRANCH  14  15
ENDBRANCH   9  14
BRANCH   8  24
ATOM     24  S   UNL     1      -0.758  -1.841  -6.671  0.00  0.00    -0.078 S 
BRANCH  24  25
ATOM     25  C   UNL     1       0.862  -2.313  -7.338  0.00  0.00    +0.173 C 
BRANCH  25  26
ATOM     26  C   UNL     1       0.709  -2.731  -8.778  0.00  0.00    +0.228 C 
ATOM     27  O   UNL     1      -0.384  -2.711  -9.303  0.00  0.00    -0.275 OA
ATOM     28  N   UNL     1       1.788  -3.126  -9.483  0.00  0.00    -0.283 N 
ATOM     29  H   UNL     1       2.671  -3.080  -9.084  0.00  0.00    +0.155 HD
BRANCH  28  30
ATOM     30  C   UNL     1       1.634  -3.602 -10.791  0.00  0.00    +0.069 A 
ATOM     31  C   UNL     1       0.657  -3.063 -11.616  0.00  0.00    +0.026 A 
ATOM     32  C   UNL     1       0.507  -3.534 -12.906  0.00  0.00    +0.002 A 
ATOM     33  C   UNL     1       1.329  -4.542 -13.376  0.00  0.00    +0.003 A 
ATOM     34  C   UNL     1       2.304  -5.082 -12.558  0.00  0.00    +0.040 A 
ATOM     35  C   UNL     1       2.463  -4.611 -11.267  0.00  0.00    +0.144 A 
ATOM     36  F   UNL     1       3.419  -5.135 -10.469  0.00  0.00    -0.204 F 
ENDBRANCH  28  30
ENDBRANCH  25  26
ENDBRANCH  24  25
ENDBRANCH   8  24
TORSDOF 7
