REMARK  Name = ZINC03666790
REMARK  9 active torsions:
REMARK  status: ('A' for Active; 'I' for Inactive)
REMARK    1  A    between atoms: C_1  and  C_2
REMARK    2  A    between atoms: C_2  and  O_3
REMARK    3  A    between atoms: O_3  and  C_4
REMARK    4  A    between atoms: C_6  and  C_22
REMARK    5  A    between atoms: C_9  and  O_10
REMARK    6  A    between atoms: O_10  and  C_11
REMARK    7  A    between atoms: C_11  and  C_12
REMARK    8  A    between atoms: N_28  and  C_29
REMARK    9  A    between atoms: C_32  and  C_35
REMARK                            x       y       z     vdW  Elec       q    Type
REMARK                         _______ _______ _______ _____ _____    ______ ____
ROOT
ATOM      1  C   UNL     1      -1.599  -1.923  -0.157  0.00  0.00    +0.162 A 
ATOM      2  C   UNL     1      -0.477  -2.725  -0.231  0.00  0.00    +0.057 A 
ATOM      3  C   UNL     1      -0.577  -4.091   0.059  0.00  0.00    -0.020 A 
ATOM      4  C   UNL     1      -1.814  -4.636   0.424  0.00  0.00    +0.012 A 
ATOM      5  C   UNL     1      -2.927  -3.828   0.496  0.00  0.00    +0.050 A 
ATOM      6  C   UNL     1      -2.826  -2.473   0.213  0.00  0.00    +0.162 A 
ENDROOT
BRANCH   3   7
ATOM      7  C   UNL     1       0.612  -4.949  -0.018  0.00  0.00    +0.028 C 
ATOM      8  C   UNL     1       0.510  -6.206  -0.520  0.00  0.00    +0.078 C 
ATOM      9  C   UNL     1      -0.631  -6.855  -1.195  0.00  0.00    +0.256 C 
ATOM     10  O   UNL     1      -1.680  -6.266  -1.380  0.00  0.00    -0.269 OA
ATOM     11  N   UNL     1      -0.461  -8.105  -1.591  0.00  0.00    -0.260 N 
ATOM     12  C   UNL     1       0.734  -8.755  -1.374  0.00  0.00    +0.166 C 
ATOM     13  N   UNL     1       1.068  -9.983  -1.700  0.00  0.00    -0.226 NA
ATOM     14  S   UNL     1       1.723  -7.518  -0.549  0.00  0.00    -0.049 S 
ATOM     15  H   UNL     1      -1.186  -8.569  -2.039  0.00  0.00    +0.157 HD
BRANCH  13  16
ATOM     16  C   UNL     1       2.315 -10.457  -1.398  0.00  0.00    +0.067 A 
ATOM     17  C   UNL     1       3.443  -9.668  -1.638  0.00  0.00    +0.028 A 
ATOM     18  C   UNL     1       4.697 -10.152  -1.330  0.00  0.00    +0.005 A 
ATOM     19  C   UNL     1       4.840 -11.415  -0.785  0.00  0.00    -0.050 A 
ATOM     20  C   UNL     1       3.728 -12.203  -0.545  0.00  0.00    +0.005 A 
ATOM     21  C   UNL     1       2.467 -11.730  -0.842  0.00  0.00    +0.028 A 
ATOM     22  C   UNL     1       6.215 -11.937  -0.453  0.00  0.00    +0.044 C 
ENDBRANCH  13  16
ENDBRANCH   3   7
BRANCH   1  23
ATOM     23  O   UNL     1      -1.506  -0.596  -0.438  0.00  0.00    -0.489 OA
BRANCH  23  25
ATOM     24  C   UNL     1      -0.310   1.402  -1.086  0.00  0.00    +0.048 C 
ATOM     25  C   UNL     1      -0.218  -0.100  -0.810  0.00  0.00    +0.226 C 
ENDBRANCH  23  25
ENDBRANCH   1  23
BRANCH   6  26
ATOM     26  O   UNL     1      -3.927  -1.680   0.290  0.00  0.00    -0.484 OA
BRANCH  26  27
ATOM     27  C   UNL     1      -5.152  -2.308   0.675  0.00  0.00    +0.265 C 
BRANCH  27  28
ATOM     28  C   UNL     1      -6.254  -1.280   0.706  0.00  0.00    -0.003 A 
ATOM     29  C   UNL     1      -5.990   0.017   0.388  0.00  0.00    +0.007 A 
ATOM     30  C   UNL     1      -6.996   0.980   0.412  0.00  0.00    +0.001 A 
ATOM     31  C   UNL     1      -8.272   0.653   0.754  0.00  0.00    +0.008 A 
ATOM     32  C   UNL     1      -8.583  -0.676   1.089  0.00  0.00    -0.018 A 
ATOM     33  C   UNL     1      -7.561  -1.657   1.059  0.00  0.00    -0.011 A 
ATOM     34  C   UNL     1      -7.873  -2.987   1.388  0.00  0.00    +0.009 A 
ATOM     35  C   UNL     1      -9.150  -3.316   1.724  0.00  0.00    +0.001 A 
ATOM     36  C   UNL     1     -10.157  -2.352   1.748  0.00  0.00    +0.001 A 
ATOM     37  C   UNL     1      -9.889  -1.051   1.448  0.00  0.00    +0.008 A 
ENDBRANCH  27  28
ENDBRANCH  26  27
ENDBRANCH   6  26
TORSDOF 7
