REMARK  Name = ZINC21864686
REMARK  10 active torsions:
REMARK  status: ('A' for Active; 'I' for Inactive)
REMARK    1  A    between atoms: C_1  and  C_2
REMARK    2  A    between atoms: C_2  and  C_3
REMARK    3  A    between atoms: C_2  and  C_4
REMARK    4  A    between atoms: C_4  and  C_5
REMARK    5  A    between atoms: C_5  and  N_6
REMARK    6  A    between atoms: C_7  and  C_9
REMARK    7  A    between atoms: C_9  and  C_34
REMARK    8  A    between atoms: C_12  and  C_29
REMARK    9  A    between atoms: N_18  and  C_19
REMARK   10  A    between atoms: C_19  and  C_20
REMARK                            x       y       z     vdW  Elec       q    Type
REMARK                         _______ _______ _______ _____ _____    ______ ____
ROOT
ATOM      1  C   UNL     1       1.242  -0.791   0.092  0.00  0.00    +0.129 C 
ATOM      2  C   UNL     1       0.867  -2.135  -0.531  0.00  0.00    +0.157 C 
ATOM      3  N   UNL     1       2.091  -2.870  -0.862  0.00  0.00    -0.331 N 
ATOM      4  C   UNL     1       2.317  -4.205  -0.921  0.00  0.00    +0.085 A 
ATOM      5  C   UNL     1       3.635  -4.405  -1.302  0.00  0.00    +0.032 A 
ATOM      6  C   UNL     1       4.224  -3.151  -1.472  0.00  0.00    +0.033 A 
ATOM      7  C   UNL     1       3.270  -2.212  -1.193  0.00  0.00    +0.105 A 
ATOM      8  C   UNL     1       3.341  -0.747  -1.189  0.00  0.00    +0.264 C 
ATOM      9  O   UNL     1       4.303  -0.150  -1.636  0.00  0.00    -0.268 OA
ATOM     10  N   UNL     1       2.279  -0.094  -0.660  0.00  0.00    -0.276 N 
ATOM     11  C   UNL     1       1.743  -1.029   1.518  0.00  0.00    +0.043 C 
ENDROOT
BRANCH   4  12
ATOM     12  C   UNL     1       1.336  -5.259  -0.629  0.00  0.00    +0.151 A 
ATOM     13  C   UNL     1       1.585  -6.600  -0.599  0.00  0.00    +0.051 A 
ATOM     14  C   UNL     1       0.369  -7.231  -0.279  0.00  0.00    +0.042 A 
ATOM     15  C   UNL     1      -0.556  -6.259  -0.138  0.00  0.00    +0.196 A 
ATOM     16  O   UNL     1       0.031  -5.071  -0.350  0.00  0.00    -0.461 OA
ENDBRANCH   4  12
BRANCH   1  18
ATOM     17  N   UNL     1      -0.464   0.645  -0.979  0.00  0.00    -0.313 N 
ATOM     18  C   UNL     1       0.013   0.080   0.148  0.00  0.00    +0.238 C 
ATOM     19  O   UNL     1      -0.546   0.273   1.207  0.00  0.00    -0.273 OA
ATOM     20  H   UNL     1       0.081   0.528  -1.927  0.00  0.00    +0.149 HD
BRANCH  17  21
ATOM     21  C   UNL     1      -1.710   1.415  -0.941  0.00  0.00    +0.104 C 
BRANCH  21  22
ATOM     22  C   UNL     1      -2.026   1.943  -2.342  0.00  0.00    +0.022 C 
BRANCH  22  24
ATOM     23  C   UNL     1      -3.131   3.992  -1.435  0.00  0.00    +0.007 C 
ATOM     24  C   UNL     1      -3.327   2.747  -2.303  0.00  0.00    -0.016 C 
ATOM     25  C   UNL     1      -3.708   3.170  -3.723  0.00  0.00    +0.007 C 
ENDBRANCH  22  24
ENDBRANCH  21  22
ENDBRANCH  17  21
ENDBRANCH   1  18
BRANCH  10  26
ATOM     26  C   UNL     1       2.169   1.354  -0.849  0.00  0.00    +0.144 C 
BRANCH  26  27
ATOM     27  C   UNL     1       2.881   2.063   0.274  0.00  0.00    -0.026 A 
ATOM     28  C   UNL     1       2.176   2.460   1.395  0.00  0.00    +0.009 A 
ATOM     29  C   UNL     1       2.825   3.105   2.431  0.00  0.00    +0.050 A 
ATOM     30  C   UNL     1       4.183   3.367   2.342  0.00  0.00    +0.166 A 
ATOM     31  C   UNL     1       4.891   2.973   1.210  0.00  0.00    +0.167 A 
ATOM     32  C   UNL     1       4.235   2.320   0.179  0.00  0.00    +0.054 A 
ATOM     33  O   UNL     1       6.197   3.341   1.363  0.00  0.00    -0.453 OA
ATOM     34  C   UNL     1       6.199   4.325   2.414  0.00  0.00    +0.466 C 
ATOM     35  O   UNL     1       5.044   3.983   3.204  0.00  0.00    -0.453 OA
ENDBRANCH  26  27
ENDBRANCH  10  26
TORSDOF 7
