REMARK  Name = ZINC12147634
REMARK  7 active torsions:
REMARK  status: ('A' for Active; 'I' for Inactive)
REMARK    1  A    between atoms: C_1  and  O_2
REMARK    2  A    between atoms: O_2  and  C_3
REMARK    3  A    between atoms: C_8  and  C_9
REMARK    4  A    between atoms: C_9  and  N_55
REMARK    5  A    between atoms: C_14  and  C_15
REMARK    6  A    between atoms: C_14  and  N_55
REMARK    7  A    between atoms: C_16  and  C_24
REMARK                            x       y       z     vdW  Elec       q    Type
REMARK                         _______ _______ _______ _____ _____    ______ ____
ROOT
ATOM      1  C   UNL     1      -3.774   1.943   1.918  0.00  0.00    -0.024 C 
ENDROOT
BRANCH   1   2
ATOM      2  C   UNL     1      -3.648   0.566   1.319  0.00  0.00    +0.036 A 
ATOM      3  C   UNL     1      -2.581   0.076   0.631  0.00  0.00    +0.093 A 
ATOM      4  N   UNL     1      -2.861  -1.185   0.259  0.00  0.00    -0.210 NA
ATOM      5  C   UNL     1      -4.067  -1.511   0.699  0.00  0.00    +0.235 A 
ATOM      6  N   UNL     1      -4.585  -0.429   1.364  0.00  0.00    -0.289 N 
ATOM      7  C   UNL     1      -5.832  -0.498   1.916  0.00  0.00    +0.096 A 
ATOM      8  C   UNL     1      -6.543  -1.646   1.796  0.00  0.00    +0.038 A 
ATOM      9  C   UNL     1      -5.983  -2.732   1.109  0.00  0.00    +0.116 A 
ATOM     10  N   UNL     1      -4.782  -2.640   0.588  0.00  0.00    -0.220 NA
BRANCH   3  11
ATOM     11  C   UNL     1      -1.326   0.810   0.336  0.00  0.00    +0.002 A 
ATOM     12  C   UNL     1      -0.730   0.700  -0.919  0.00  0.00    +0.013 A 
ATOM     13  C   UNL     1       0.434   1.390  -1.190  0.00  0.00    +0.039 A 
ATOM     14  C   UNL     1       1.013   2.186  -0.216  0.00  0.00    +0.123 A 
ATOM     15  C   UNL     1       0.427   2.294   1.035  0.00  0.00    +0.039 A 
ATOM     16  C   UNL     1      -0.737   1.608   1.315  0.00  0.00    +0.013 A 
ATOM     17  F   UNL     1       2.153   2.860  -0.486  0.00  0.00    -0.205 F 
ENDBRANCH   3  11
ENDBRANCH   1   2
BRANCH   1  18
ATOM     18  N   UNL     1      -3.311   1.905   3.318  0.00  0.00    +0.389 N 
ATOM     19  H   UNL     1      -3.842   1.191   3.831  0.00  0.00    -0.084 HD
ATOM     20  H   UNL     1      -2.312   1.669   3.339  0.00  0.00    -0.084 HD
BRANCH  18  21
ATOM     21  C   UNL     1      -3.515   3.217   3.960  0.00  0.00    -0.038 C 
ATOM     22  C   UNL     1      -2.719   4.306   3.211  0.00  0.00    -0.008 C 
ATOM     23  C   UNL     1      -2.206   5.241   4.335  0.00  0.00    -0.001 C 
ATOM     24  C   UNL     1      -1.857   4.250   5.473  0.00  0.00    -0.001 C 
ATOM     25  C   UNL     1      -2.967   3.182   5.398  0.00  0.00    -0.008 C 
BRANCH  21  31
ATOM     26  C   UNL     1      -5.898   2.692   4.537  0.00  0.00    +0.122 A 
ATOM     27  C   UNL     1      -7.247   3.017   4.549  0.00  0.00    +0.046 A 
ATOM     28  C   UNL     1      -7.673   4.211   4.002  0.00  0.00    +0.004 A 
ATOM     29  C   UNL     1      -6.756   5.083   3.442  0.00  0.00    +0.000 A 
ATOM     30  C   UNL     1      -5.411   4.763   3.433  0.00  0.00    +0.006 A 
ATOM     31  C   UNL     1      -4.981   3.567   3.975  0.00  0.00    -0.017 A 
BRANCH  26  33
ATOM     32  C   UNL     1      -6.476   0.665   5.637  0.00  0.00    +0.277 C 
ATOM     33  O   UNL     1      -5.476   1.517   5.075  0.00  0.00    -0.495 OA
ENDBRANCH  26  33
ENDBRANCH  21  31
ENDBRANCH  18  21
ENDBRANCH   1  18
TORSDOF 6
