REMARK  Name = ZINC02769766
REMARK  8 active torsions:
REMARK  status: ('A' for Active; 'I' for Inactive)
REMARK    1  A    between atoms: C_3  and  O_8
REMARK    2  A    between atoms: O_8  and  C_9
REMARK    3  A    between atoms: C_9  and  C_10
REMARK    4  A    between atoms: C_13  and  C_15
REMARK    5  A    between atoms: C_24  and  C_32
REMARK    6  A    between atoms: C_25  and  N_31
REMARK    7  A    between atoms: C_26  and  C_27
REMARK    8  A    between atoms: C_26  and  C_29
REMARK                            x       y       z     vdW  Elec       q    Type
REMARK                         _______ _______ _______ _____ _____    ______ ____
ROOT
ATOM      1  C   UNL     1      -0.009   4.262  -0.408  0.00  0.00    +0.102 C 
ATOM      2  C   UNL     1       1.167   3.652   0.356  0.00  0.00    +0.033 C 
ATOM      3  C   UNL     1       2.445   4.429   0.152  0.00  0.00    +0.009 C 
ATOM      4  C   UNL     1       3.361   3.764  -0.873  0.00  0.00    +0.005 C 
ATOM      5  C   UNL     1       3.679   2.343  -0.387  0.00  0.00    +0.027 C 
ATOM      6  C   UNL     1       2.379   1.584  -0.311  0.00  0.00    -0.022 C 
ATOM      7  C   UNL     1       1.255   2.197   0.002  0.00  0.00    -0.029 C 
ATOM      8  C   UNL     1      -0.017   1.428   0.010  0.00  0.00    +0.074 C 
ATOM      9  C   UNL     1      -1.197   2.098   0.019  0.00  0.00    +0.054 C 
ATOM     10  C   UNL     1      -1.302   3.593   0.058  0.00  0.00    +0.191 C 
ENDROOT
BRANCH   1  14
ATOM     11  C   UNL     1       0.428   3.009  -3.810  0.00  0.00    +0.142 A 
ATOM     12  C   UNL     1       0.435   4.329  -4.066  0.00  0.00    +0.048 A 
ATOM     13  C   UNL     1       0.272   4.988  -2.826  0.00  0.00    +0.045 A 
ATOM     14  C   UNL     1       0.175   4.031  -1.886  0.00  0.00    +0.112 A 
ATOM     15  O   UNL     1       0.277   2.834  -2.487  0.00  0.00    -0.461 OA
BRANCH  11  16
ATOM     16  C   UNL     1       0.574   1.912  -4.833  0.00  0.00    +0.303 C 
BRANCH  16  17
ATOM     17  O   UNL     1       1.957   1.590  -4.993  0.00  0.00    -0.484 OA
BRANCH  17  20
ATOM     18  C   UNL     1       1.568  -1.018  -7.499  0.00  0.00    +0.005 A 
ATOM     19  C   UNL     1       1.254  -0.028  -6.589  0.00  0.00    +0.046 A 
ATOM     20  C   UNL     1       2.264   0.613  -5.886  0.00  0.00    +0.122 A 
ATOM     21  C   UNL     1       3.587   0.250  -6.091  0.00  0.00    +0.061 A 
ATOM     22  C   UNL     1       3.896  -0.745  -7.000  0.00  0.00    +0.021 A 
ATOM     23  C   UNL     1       2.887  -1.379  -7.703  0.00  0.00    +0.015 A 
ATOM     24 BR   UNL     1       5.699  -1.241  -7.280  0.00  0.00    -0.050 Br
ENDBRANCH  17  20
ENDBRANCH  16  17
ENDBRANCH  11  16
ENDBRANCH   1  14
BRANCH   9  25
ATOM     25  N   UNL     1      -2.353   1.370  -0.004  0.00  0.00    -0.358 N 
ATOM     26  H   UNL     1      -3.326   1.883   0.003  0.00  0.00    +0.142 HD
ATOM     27  H   UNL     1      -2.311   0.271  -0.029  0.00  0.00    +0.142 HD
ENDBRANCH   9  25
BRANCH  10  28
ATOM     28  C   UNL     1      -1.595   4.022   1.435  0.00  0.00    +0.091 C 
ATOM     29  N   UNL     1      -1.822   4.354   2.498  0.00  0.00    -0.194 NA
ENDBRANCH  10  28
BRANCH  10  30
ATOM     30  C   UNL     1      -2.405   4.015  -0.821  0.00  0.00    +0.091 C 
ATOM     31  N   UNL     1      -3.256   4.341  -1.500  0.00  0.00    -0.194 NA
ENDBRANCH  10  30
BRANCH   8  32
ATOM     32  C   UNL     1       0.002  -0.004   0.002  0.00  0.00    +0.101 C 
ATOM     33  N   UNL     1       0.018  -1.140  -0.004  0.00  0.00    -0.191 NA
ENDBRANCH   8  32
TORSDOF 8
