REMARK  Name = ZINC10067080
REMARK  10 active torsions:
REMARK  status: ('A' for Active; 'I' for Inactive)
REMARK    1  A    between atoms: C_1  and  C_2
REMARK    2  A    between atoms: C_2  and  N_51
REMARK    3  A    between atoms: C_3  and  C_4
REMARK    4  A    between atoms: C_3  and  N_51
REMARK    5  A    between atoms: C_5  and  C_6
REMARK    6  A    between atoms: C_5  and  N_51
REMARK    7  A    between atoms: C_6  and  N_7
REMARK    8  A    between atoms: C_11  and  C_18
REMARK    9  A    between atoms: C_12  and  C_17
REMARK   10  A    between atoms: C_19  and  C_21
REMARK                            x       y       z     vdW  Elec       q    Type
REMARK                         _______ _______ _______ _____ _____    ______ ____
ROOT
ATOM      1  N   UNL     1       5.122   1.242  -0.430  0.00  0.00    -0.248 N 
ATOM      2  C   UNL     1       6.359   1.676   0.014  0.00  0.00    +0.168 A 
ATOM      3  N   UNL     1       6.860   2.889  -0.001  0.00  0.00    -0.224 NA
ATOM      4  C   UNL     1       8.092   3.172   0.474  0.00  0.00    +0.083 A 
ATOM      5  C   UNL     1       8.744   4.426   0.520  0.00  0.00    -0.021 A 
ATOM      6  C   UNL     1      10.010   4.538   1.034  0.00  0.00    -0.045 A 
ATOM      7  C   UNL     1      10.694   3.436   1.524  0.00  0.00    +0.005 A 
ATOM      8  C   UNL     1      10.087   2.194   1.494  0.00  0.00    +0.017 A 
ATOM      9  C   UNL     1       8.819   2.071   0.982  0.00  0.00    +0.041 A 
ATOM     10  S   UNL     1       7.683   0.726   0.747  0.00  0.00    -0.052 S 
ATOM     11  C   UNL     1      10.673   5.891   1.066  0.00  0.00    +0.044 C 
ATOM     12  C   UNL     1       8.040   5.651  -0.002  0.00  0.00    +0.046 C 
ATOM     13  C   UNL     1       4.249   2.122  -0.960  0.00  0.00    +0.259 C 
ATOM     14  O   UNL     1       4.582   3.280  -1.131  0.00  0.00    -0.269 OA
ENDROOT
BRANCH  13  15
ATOM     15  C   UNL     1       2.901   1.685  -1.329  0.00  0.00    +0.075 A 
ATOM     16  C   UNL     1       1.821   2.445  -1.751  0.00  0.00    +0.022 A 
ATOM     17  C   UNL     1       0.658   1.774  -2.036  0.00  0.00    +0.024 A 
ATOM     18  C   UNL     1       0.620   0.422  -1.893  0.00  0.00    +0.056 A 
ATOM     19  S   UNL     1       2.221   0.036  -1.352  0.00  0.00    -0.077 S 
ATOM     20 BR   UNL     1      -0.828  -0.752  -2.209  0.00  0.00    -0.043 Br
ENDBRANCH  13  15
BRANCH   1  21
ATOM     21  C   UNL     1       4.761  -0.174  -0.324  0.00  0.00    +0.097 C 
BRANCH  21  22
ATOM     22  C   UNL     1       5.038  -0.872  -1.657  0.00  0.00    -0.059 C 
BRANCH  22  23
ATOM     23  N   UNL     1       4.866  -2.328  -1.474  0.00  0.00    +0.380 N 
ATOM     24  H   UNL     1       5.289  -2.604  -0.580  0.00  0.00    -0.082 HD
BRANCH  23  26
ATOM     25  C   UNL     1       3.277  -4.168  -1.188  0.00  0.00    -0.017 C 
ATOM     26  C   UNL     1       3.428  -2.668  -1.450  0.00  0.00    -0.082 C 
ENDBRANCH  23  26
BRANCH  23  27
ATOM     27  C   UNL     1       5.539  -3.058  -2.569  0.00  0.00    -0.082 C 
ATOM     28  C   UNL     1       7.045  -3.070  -2.297  0.00  0.00    -0.017 C 
ENDBRANCH  23  27
ENDBRANCH  22  23
ENDBRANCH  21  22
ENDBRANCH   1  21
TORSDOF 6
