REMARK  Name = ZINC39655388
REMARK  9 active torsions:
REMARK  status: ('A' for Active; 'I' for Inactive)
REMARK    1  A    between atoms: C_1  and  C_2
REMARK    2  A    between atoms: C_2  and  C_4
REMARK    3  A    between atoms: C_2  and  O_29
REMARK    4  A    between atoms: C_8  and  C_17
REMARK    5  A    between atoms: N_19  and  C_20
REMARK    6  A    between atoms: C_20  and  C_21
REMARK    7  A    between atoms: C_21  and  N_22
REMARK    8  A    between atoms: N_22  and  C_23
REMARK    9  A    between atoms: O_29  and  C_30
REMARK                            x       y       z     vdW  Elec       q    Type
REMARK                         _______ _______ _______ _____ _____    ______ ____
ROOT
ATOM      1  C   UNL     1       0.494  -0.470   1.122  0.00  0.00    +0.256 C 
ATOM      2  O   UNL     1      -0.219  -0.911   1.998  0.00  0.00    -0.272 OA
ATOM      3  N   UNL     1       1.833  -0.463   1.282  0.00  0.00    -0.297 N 
ATOM      4  C   UNL     1       2.862  -0.040   0.303  0.00  0.00    +0.121 C 
ATOM      5  C   UNL     1       3.919   0.708   1.147  0.00  0.00    +0.100 C 
ATOM      6  C   UNL     1       3.747   0.155   2.571  0.00  0.00    -0.004 C 
ATOM      7  C   UNL     1       2.607  -0.869   2.479  0.00  0.00    +0.115 C 
ATOM      8  C   UNL     1       3.365   1.277   3.532  0.00  0.00    -0.010 C 
ATOM      9  C   UNL     1       3.256   0.713   4.951  0.00  0.00    -0.082 C 
ATOM     10  N   UNL     1       4.541   0.122   5.344  0.00  0.00    +0.379 N 
ATOM     11  C   UNL     1       4.857  -1.016   4.472  0.00  0.00    -0.082 C 
ATOM     12  C   UNL     1       5.033  -0.525   3.033  0.00  0.00    -0.010 C 
ATOM     13  H   UNL     1       5.268   0.817   5.264  0.00  0.00    -0.086 HD
ATOM     14  H   UNL     1       4.486  -0.194   6.301  0.00  0.00    -0.086 HD
ENDROOT
BRANCH   5  15
ATOM     15  C   UNL     1       5.304   0.417   0.631  0.00  0.00    +0.218 C 
ATOM     16  O   UNL     1       5.546  -0.653   0.113  0.00  0.00    -0.275 OA
ATOM     17  N   UNL     1       6.275   1.345   0.745  0.00  0.00    -0.314 N 
ATOM     18  H   UNL     1       6.082   2.200   1.159  0.00  0.00    +0.149 HD
BRANCH  17  19
ATOM     19  C   UNL     1       7.622   1.061   0.244  0.00  0.00    +0.123 C 
BRANCH  19  20
ATOM     20  C   UNL     1       8.525   2.270   0.495  0.00  0.00    +0.120 C 
BRANCH  20  21
ATOM     21  N   UNL     1       9.872   1.987  -0.006  0.00  0.00    -0.342 N 
ATOM     22  H   UNL     1      10.065   1.131  -0.420  0.00  0.00    +0.146 HD
BRANCH  21  23
ATOM     23  C   UNL     1      10.878   2.948   0.112  0.00  0.00    +0.027 A 
ATOM     24  C   UNL     1      10.604   4.172   0.710  0.00  0.00    +0.023 A 
ATOM     25  C   UNL     1      11.601   5.120   0.826  0.00  0.00    +0.002 A 
ATOM     26  C   UNL     1      12.871   4.853   0.347  0.00  0.00    +0.000 A 
ATOM     27  C   UNL     1      13.147   3.636  -0.248  0.00  0.00    +0.002 A 
ATOM     28  C   UNL     1      12.156   2.681  -0.362  0.00  0.00    +0.023 A 
ENDBRANCH  21  23
ENDBRANCH  20  21
ENDBRANCH  19  20
ENDBRANCH  17  19
ENDBRANCH   5  15
BRANCH   1  30
ATOM     29  C   UNL     1       0.093   1.585  -0.207  0.00  0.00    +0.062 C 
ATOM     30  C   UNL     1      -0.116   0.071  -0.145  0.00  0.00    +0.256 C 
BRANCH  30  31
ATOM     31  O   UNL     1      -1.516  -0.217  -0.161  0.00  0.00    -0.480 OA
BRANCH  31  32
ATOM     32  C   UNL     1      -2.117  -0.291  -1.378  0.00  0.00    +0.122 A 
ATOM     33  C   UNL     1      -1.399   0.009  -2.526  0.00  0.00    +0.045 A 
ATOM     34  C   UNL     1      -2.013  -0.067  -3.762  0.00  0.00    +0.004 A 
ATOM     35  C   UNL     1      -3.341  -0.441  -3.854  0.00  0.00    +0.000 A 
ATOM     36  C   UNL     1      -4.058  -0.739  -2.710  0.00  0.00    +0.004 A 
ATOM     37  C   UNL     1      -3.448  -0.671  -1.473  0.00  0.00    +0.045 A 
ENDBRANCH  31  32
ENDBRANCH  30  31
ENDBRANCH   1  30
TORSDOF 8
