REMARK  Name = ZINC16908604
REMARK  9 active torsions:
REMARK  status: ('A' for Active; 'I' for Inactive)
REMARK    1  A    between atoms: C_1  and  C_2
REMARK    2  A    between atoms: C_2  and  C_3
REMARK    3  A    between atoms: C_3  and  C_5
REMARK    4  A    between atoms: C_3  and  O_7
REMARK    5  A    between atoms: O_7  and  C_8
REMARK    6  A    between atoms: C_12  and  C_14
REMARK    7  A    between atoms: N_18  and  N_22
REMARK    8  A    between atoms: C_23  and  C_25
REMARK    9  A    between atoms: C_29  and  N_31
REMARK                            x       y       z     vdW  Elec       q    Type
REMARK                         _______ _______ _______ _____ _____    ______ ____
ROOT
ATOM      1  C   UNL     1      -2.751   0.679  -0.317  0.00  0.00    +0.028 C 
ATOM      2  C   UNL     1      -2.546  -0.564   0.185  0.00  0.00    +0.079 C 
ATOM      3  C   UNL     1      -1.326  -1.151   0.779  0.00  0.00    +0.275 C 
ATOM      4  O   UNL     1      -0.294  -0.514   0.883  0.00  0.00    -0.267 OA
ATOM      5  N   UNL     1      -1.413  -2.405   1.191  0.00  0.00    -0.169 N 
ATOM      6  C   UNL     1      -2.558  -3.107   1.074  0.00  0.00    +0.138 C 
ATOM      7  S   UNL     1      -2.865  -4.724   1.544  0.00  0.00    -0.026 S 
ATOM      8  S   UNL     1      -3.678  -1.941   0.317  0.00  0.00    -0.059 S 
ENDROOT
BRANCH   1  13
ATOM      9  C   UNL     1       0.681   2.008  -1.054  0.00  0.00    +0.122 A 
ATOM     10  C   UNL     1       0.513   3.356  -0.760  0.00  0.00    +0.046 A 
ATOM     11  C   UNL     1      -0.713   3.828  -0.327  0.00  0.00    +0.004 A 
ATOM     12  C   UNL     1      -1.779   2.965  -0.184  0.00  0.00    +0.008 A 
ATOM     13  C   UNL     1      -1.620   1.605  -0.473  0.00  0.00    -0.020 A 
ATOM     14  C   UNL     1      -0.380   1.131  -0.915  0.00  0.00    +0.053 A 
BRANCH   9  15
ATOM     15  O   UNL     1       1.888   1.552  -1.478  0.00  0.00    -0.477 OA
BRANCH  15  16
ATOM     16  C   UNL     1       2.951   2.504  -1.556  0.00  0.00    +0.285 C 
BRANCH  16  17
ATOM     17  C   UNL     1       2.862   3.251  -2.861  0.00  0.00    +0.396 C 
ATOM     18  O   UNL     1       1.979   2.995  -3.645  0.00  0.00    -0.242 OA
ATOM     19  O   UNL     1       3.764   4.202  -3.153  0.00  0.00    -0.242 OA
ENDBRANCH  16  17
BRANCH  16  21
ATOM     20  C   UNL     1       4.438   1.120  -0.101  0.00  0.00    +0.008 C 
ATOM     21  C   UNL     1       4.295   1.776  -1.475  0.00  0.00    +0.053 C 
ENDBRANCH  16  21
ENDBRANCH  15  16
ENDBRANCH   9  15
ENDBRANCH   1  13
BRANCH   5  22
ATOM     22  N   UNL     1      -0.290  -3.016   1.764  0.00  0.00    -0.222 N 
ATOM     23  C   UNL     1      -0.232  -3.207   3.097  0.00  0.00    +0.261 C 
ATOM     24  O   UNL     1      -1.155  -2.849   3.802  0.00  0.00    -0.269 OA
ATOM     25  H   UNL     1       0.446  -3.303   1.201  0.00  0.00    +0.174 HD
BRANCH  23  26
ATOM     26  C   UNL     1       0.953  -3.853   3.701  0.00  0.00    +0.040 A 
ATOM     27  C   UNL     1       2.014  -4.266   2.893  0.00  0.00    +0.013 A 
ATOM     28  C   UNL     1       3.116  -4.868   3.463  0.00  0.00    +0.003 A 
ATOM     29  C   UNL     1       3.172  -5.062   4.832  0.00  0.00    +0.033 A 
ATOM     30  C   UNL     1       2.124  -4.655   5.638  0.00  0.00    +0.127 A 
ATOM     31  C   UNL     1       1.018  -4.047   5.081  0.00  0.00    +0.045 A 
BRANCH  30  32
ATOM     32  N   UNL     1       2.193  -4.866   7.101  0.00  0.00    +0.056 N 
ATOM     33  O   UNL     1       3.171  -5.399   7.594  0.00  0.00    -0.126 OA
ATOM     34  O   UNL     1       1.271  -4.508   7.812  0.00  0.00    -0.126 OA
ENDBRANCH  30  32
ENDBRANCH  23  26
ENDBRANCH   5  22
TORSDOF 8
