REMARK  Name = ZINC00888078
REMARK  12 active torsions:
REMARK  status: ('A' for Active; 'I' for Inactive)
REMARK    1  A    between atoms: C_1  and  C_2
REMARK    2  A    between atoms: C_5  and  C_8
REMARK    3  A    between atoms: N_11  and  C_13
REMARK    4  A    between atoms: C_13  and  C_14
REMARK    5  A    between atoms: N_16  and  C_17
REMARK    6  A    between atoms: N_16  and  C_24
REMARK    7  A    between atoms: C_21  and  O_23
REMARK    8  A    between atoms: C_24  and  C_26
REMARK    9  A    between atoms: C_24  and  C_32
REMARK   10  A    between atoms: C_29  and  C_31
REMARK   11  A    between atoms: N_34  and  C_35
REMARK   12  A    between atoms: C_35  and  C_36
REMARK                            x       y       z     vdW  Elec       q    Type
REMARK                         _______ _______ _______ _____ _____    ______ ____
ROOT
ATOM      1  C   UNL     1      -2.373  -0.068   0.127  0.00  0.00    +0.244 C 
ATOM      2  O   UNL     1      -3.366  -0.691  -0.185  0.00  0.00    -0.273 OA
ATOM      3  N   UNL     1      -1.246  -0.724   0.467  0.00  0.00    -0.251 N 
ENDROOT
BRANCH   3   4
ATOM      4  C   UNL     1      -0.096  -0.006   0.816  0.00  0.00    +0.041 A 
ATOM      5  C   UNL     1       0.064   1.303   0.381  0.00  0.00    +0.024 A 
ATOM      6  C   UNL     1       1.199   2.012   0.725  0.00  0.00    +0.005 A 
ATOM      7  C   UNL     1       2.177   1.420   1.503  0.00  0.00    +0.045 A 
ATOM      8  C   UNL     1       2.022   0.112   1.940  0.00  0.00    +0.119 A 
ATOM      9  C   UNL     1       0.884  -0.602   1.596  0.00  0.00    +0.069 A 
BRANCH   8  10
ATOM     10  O   UNL     1       2.984  -0.468   2.704  0.00  0.00    -0.507 OA
ATOM     11  H   UNL     1       3.666  -0.928   2.196  0.00  0.00    +0.292 HD
ENDBRANCH   8  10
ENDBRANCH   3   4
BRANCH   1  12
ATOM     12  C   UNL     1      -2.399   1.438   0.136  0.00  0.00    +0.264 C 
BRANCH  12  16
ATOM     13  C   UNL     1      -5.753   2.536   0.098  0.00  0.00    +0.205 A 
ATOM     14  N   UNL     1      -5.488   2.527   1.412  0.00  0.00    -0.108 NA
ATOM     15  N   UNL     1      -4.267   2.135   1.554  0.00  0.00    -0.045 NA
ATOM     16  N   UNL     1      -3.766   1.901   0.391  0.00  0.00    -0.154 N 
ATOM     17  N   UNL     1      -4.652   2.144  -0.512  0.00  0.00    -0.130 NA
BRANCH  13  22
ATOM     18  C   UNL     1     -10.725   4.025  -2.399  0.00  0.00    +0.044 C 
ATOM     19  C   UNL     1      -9.424   3.635  -1.746  0.00  0.00    -0.050 A 
ATOM     20  C   UNL     1      -9.305   3.677  -0.368  0.00  0.00    +0.004 A 
ATOM     21  C   UNL     1      -8.116   3.321   0.235  0.00  0.00    +0.012 A 
ATOM     22  C   UNL     1      -7.035   2.920  -0.546  0.00  0.00    +0.023 A 
ATOM     23  C   UNL     1      -7.158   2.885  -1.933  0.00  0.00    +0.012 A 
ATOM     24  C   UNL     1      -8.353   3.238  -2.526  0.00  0.00    +0.004 A 
ENDBRANCH  13  22
ENDBRANCH  12  16
ENDBRANCH   1  12
BRANCH   3  25
ATOM     25  C   UNL     1      -1.223  -2.189   0.470  0.00  0.00    +0.233 C 
BRANCH  25  26
ATOM     26  C   UNL     1      -0.180  -2.678  -0.501  0.00  0.00    +0.135 A 
ATOM     27  C   UNL     1      -0.304  -3.736  -1.323  0.00  0.00    +0.047 A 
ATOM     28  C   UNL     1       0.903  -3.830  -2.054  0.00  0.00    +0.045 A 
ATOM     29  C   UNL     1       1.695  -2.830  -1.629  0.00  0.00    +0.102 A 
ATOM     30  O   UNL     1       1.034  -2.135  -0.688  0.00  0.00    -0.462 OA
ATOM     31  C   UNL     1       3.088  -2.538  -2.124  0.00  0.00    +0.086 C 
ENDBRANCH  25  26
BRANCH  25  32
ATOM     32  C   UNL     1      -0.892  -2.683   1.855  0.00  0.00    +0.242 C 
ATOM     33  O   UNL     1      -0.694  -1.890   2.750  0.00  0.00    -0.273 OA
ATOM     34  N   UNL     1      -0.816  -4.007   2.097  0.00  0.00    -0.309 N 
ATOM     35  H   UNL     1      -0.974  -4.641   1.381  0.00  0.00    +0.149 HD
BRANCH  34  36
ATOM     36  C   UNL     1      -0.494  -4.487   3.443  0.00  0.00    +0.139 C 
BRANCH  36  37
ATOM     37  C   UNL     1      -0.471  -5.994   3.447  0.00  0.00    -0.030 A 
ATOM     38  C   UNL     1      -1.625  -6.702   3.727  0.00  0.00    +0.008 A 
ATOM     39  C   UNL     1      -1.607  -8.084   3.726  0.00  0.00    +0.038 A 
ATOM     40  C   UNL     1      -0.429  -8.759   3.454  0.00  0.00    +0.123 A 
ATOM     41  C   UNL     1       0.728  -8.050   3.179  0.00  0.00    +0.038 A 
ATOM     42  C   UNL     1       0.705  -6.668   3.176  0.00  0.00    +0.008 A 
ATOM     43  F   UNL     1      -0.409 -10.110   3.457  0.00  0.00    -0.205 F 
ENDBRANCH  36  37
ENDBRANCH  34  36
ENDBRANCH  25  32
ENDBRANCH   3  25
TORSDOF 10
