REMARK  Name = ZINC13264994
REMARK  9 active torsions:
REMARK  status: ('A' for Active; 'I' for Inactive)
REMARK    1  A    between atoms: C_1  and  C_2
REMARK    2  A    between atoms: C_2  and  N_3
REMARK    3  A    between atoms: N_3  and  C_4
REMARK    4  A    between atoms: C_7  and  C_13
REMARK    5  A    between atoms: C_9  and  N_10
REMARK    6  A    between atoms: N_15  and  N_16
REMARK    7  A    between atoms: N_16  and  S_17
REMARK    8  A    between atoms: S_17  and  C_20
REMARK    9  A    between atoms: C_22  and  C_27
REMARK                            x       y       z     vdW  Elec       q    Type
REMARK                         _______ _______ _______ _____ _____    ______ ____
ROOT
ATOM      1  C   UNL     1      -2.423  -6.654   0.009  0.00  0.00    +0.259 C 
ATOM      2  O   UNL     1      -3.527  -7.155  -0.079  0.00  0.00    -0.269 OA
ATOM      3  N   UNL     1      -1.323  -7.426  -0.088  0.00  0.00    -0.228 N 
ATOM      4  H   UNL     1      -0.442  -7.026  -0.018  0.00  0.00    +0.171 HD
ENDROOT
BRANCH   1   8
ATOM      5  C   UNL     1      -2.034  -2.470   0.625  0.00  0.00    +0.058 A 
ATOM      6  C   UNL     1      -0.896  -3.267   0.525  0.00  0.00    +0.026 A 
ATOM      7  C   UNL     1      -1.019  -4.622   0.326  0.00  0.00    +0.015 A 
ATOM      8  C   UNL     1      -2.288  -5.200   0.224  0.00  0.00    +0.040 A 
ATOM      9  C   UNL     1      -3.428  -4.398   0.325  0.00  0.00    +0.047 A 
ATOM     10  C   UNL     1      -3.299  -3.044   0.530  0.00  0.00    +0.148 A 
BRANCH  10  11
ATOM     11  N   UNL     1      -4.506  -2.194   0.642  0.00  0.00    +0.058 N 
ATOM     12  O   UNL     1      -5.491  -2.610   1.226  0.00  0.00    -0.126 OA
ATOM     13  O   UNL     1      -4.515  -1.080   0.151  0.00  0.00    -0.126 OA
ENDBRANCH  10  11
BRANCH   5  14
ATOM     14  N   UNL     1      -1.907  -1.100   0.827  0.00  0.00    -0.342 N 
ATOM     15  H   UNL     1      -2.696  -0.537   0.840  0.00  0.00    +0.146 HD
BRANCH  14  17
ATOM     16  C   UNL     1      -0.720   1.002   1.220  0.00  0.00    +0.024 C 
ATOM     17  C   UNL     1      -0.581  -0.509   1.021  0.00  0.00    +0.098 C 
ENDBRANCH  14  17
ENDBRANCH   5  14
ENDBRANCH   1   8
BRANCH   3  18
ATOM     18  N   UNL     1      -1.451  -8.806  -0.292  0.00  0.00    -0.108 NA
ATOM     19  H   UNL     1      -1.971  -9.341   0.328  0.00  0.00    +0.172 HD
BRANCH  18  20
ATOM     20  S   UNL     1      -0.714  -9.524  -1.590  0.00  0.00    +0.075 S 
ATOM     21  O   UNL     1      -0.805 -10.927  -1.384  0.00  0.00    -0.152 OA
ATOM     22  O   UNL     1      -1.231  -8.889  -2.752  0.00  0.00    -0.152 OA
BRANCH  20  23
ATOM     23  C   UNL     1       0.997  -9.113  -1.510  0.00  0.00    +0.121 A 
ATOM     24  C   UNL     1       1.568  -8.347  -2.505  0.00  0.00    +0.044 A 
ATOM     25  C   UNL     1       2.924  -8.018  -2.438  0.00  0.00    +0.065 A 
ATOM     26  C   UNL     1       3.695  -8.477  -1.368  0.00  0.00    +0.016 A 
ATOM     27  C   UNL     1       3.114  -9.246  -0.382  0.00  0.00    +0.018 A 
ATOM     28  C   UNL     1       1.768  -9.564  -0.452  0.00  0.00    +0.044 A 
ATOM     29 BR   UNL     1       0.978 -10.619   0.905  0.00  0.00    -0.048 Br
BRANCH  25  30
ATOM     30  C   UNL     1       3.540  -7.194  -3.497  0.00  0.00    +0.387 C 
ATOM     31  O   UNL     1       2.867  -6.797  -4.427  0.00  0.00    -0.241 OA
ATOM     32  O   UNL     1       4.849  -6.882  -3.432  0.00  0.00    -0.241 OA
ENDBRANCH  25  30
ENDBRANCH  20  23
ENDBRANCH  18  20
ENDBRANCH   3  18
TORSDOF 8
