REMARK  Name = ZINC21676801
REMARK  12 active torsions:
REMARK  status: ('A' for Active; 'I' for Inactive)
REMARK    1  A    between atoms: C_1  and  C_2
REMARK    2  A    between atoms: C_3  and  N_11
REMARK    3  A    between atoms: C_7  and  N_8
REMARK    4  A    between atoms: C_12  and  C_14
REMARK    5  A    between atoms: C_14  and  O_15
REMARK    6  A    between atoms: O_15  and  C_16
REMARK    7  A    between atoms: C_16  and  C_18
REMARK    8  A    between atoms: C_19  and  C_20
REMARK    9  A    between atoms: C_21  and  C_34
REMARK   10  A    between atoms: N_23  and  C_26
REMARK   11  A    between atoms: C_24  and  C_25
REMARK   12  A    between atoms: C_26  and  C_27
REMARK                            x       y       z     vdW  Elec       q    Type
REMARK                         _______ _______ _______ _____ _____    ______ ____
ROOT
ATOM      1  C   UNL     1      -1.260   7.033   2.120  0.00  0.00    +0.332 C 
ATOM      2  O   UNL     1      -0.430   7.896   2.336  0.00  0.00    -0.246 OA
ENDROOT
BRANCH   1   3
ATOM      3  C   UNL     1      -2.635   7.306   2.321  0.00  0.00    +0.092 C 
ATOM      4  C   UNL     1      -3.025   8.527   2.751  0.00  0.00    +0.018 C 
BRANCH   4   5
ATOM      5  C   UNL     1      -4.451   8.810   2.959  0.00  0.00    +0.018 A 
ATOM      6  C   UNL     1      -5.499   8.568   2.040  0.00  0.00    +0.067 A 
ATOM      7  N   UNL     1      -6.617   8.950   2.593  0.00  0.00    -0.175 NA
ATOM      8  N   UNL     1      -6.345   9.458   3.868  0.00  0.00    -0.263 N 
ATOM      9  C   UNL     1      -5.022   9.371   4.088  0.00  0.00    +0.044 A 
ATOM     10  C   UNL     1      -4.294   9.805   5.334  0.00  0.00    +0.066 C 
ATOM     11  C   UNL     1      -5.350   7.969   0.665  0.00  0.00    +0.068 C 
BRANCH   8  12
ATOM     12  C   UNL     1      -7.335   9.993   4.806  0.00  0.00    +0.180 C 
BRANCH  12  13
ATOM     13  C   UNL     1      -7.774   8.903   5.748  0.00  0.00    -0.008 A 
ATOM     14  C   UNL     1      -7.247   8.838   7.025  0.00  0.00    +0.007 A 
ATOM     15  C   UNL     1      -7.650   7.838   7.889  0.00  0.00    +0.000 A 
ATOM     16  C   UNL     1      -8.581   6.902   7.479  0.00  0.00    +0.001 A 
ATOM     17  C   UNL     1      -9.109   6.965   6.203  0.00  0.00    +0.020 A 
ATOM     18  C   UNL     1      -8.710   7.969   5.339  0.00  0.00    +0.046 A 
ATOM     19 CL   UNL     1      -9.378   8.054   3.739  0.00  0.00    -0.083 Cl
ENDBRANCH  12  13
ENDBRANCH   8  12
ENDBRANCH   4   5
ENDBRANCH   1   3
BRANCH   1  20
ATOM     20  O   UNL     1      -0.870   5.815   1.690  0.00  0.00    -0.452 OA
BRANCH  20  21
ATOM     21  C   UNL     1       0.532   5.609   1.510  0.00  0.00    +0.328 C 
BRANCH  21  23
ATOM     22  N   UNL     1       2.033   3.778   0.790  0.00  0.00    -0.282 N 
ATOM     23  C   UNL     1       0.776   4.201   1.029  0.00  0.00    +0.255 C 
ATOM     24  O   UNL     1      -0.160   3.448   0.859  0.00  0.00    -0.272 OA
ATOM     25  H   UNL     1       2.875   4.480   0.878  0.00  0.00    +0.155 HD
BRANCH  22  28
ATOM     26  C   UNL     1       4.454   2.557   1.653  0.00  0.00    +0.048 C 
ATOM     27  C   UNL     1       3.435   1.812   0.829  0.00  0.00    +0.001 A 
ATOM     28  C   UNL     1       2.267   2.447   0.429  0.00  0.00    +0.039 A 
ATOM     29  C   UNL     1       1.330   1.757  -0.330  0.00  0.00    +0.024 A 
ATOM     30  C   UNL     1       1.564   0.443  -0.685  0.00  0.00    +0.004 A 
ATOM     31  C   UNL     1       2.729  -0.186  -0.286  0.00  0.00    +0.033 A 
ATOM     32  C   UNL     1       3.663   0.498   0.470  0.00  0.00    +0.131 A 
BRANCH  32  33
ATOM     33  N   UNL     1       4.909  -0.179   0.895  0.00  0.00    +0.057 N 
ATOM     34  O   UNL     1       5.053  -1.371   0.695  0.00  0.00    -0.126 OA
ATOM     35  O   UNL     1       5.790   0.457   1.445  0.00  0.00    -0.126 OA
ENDBRANCH  32  33
ENDBRANCH  22  28
ENDBRANCH  21  23
ENDBRANCH  20  21
ENDBRANCH   1  20
TORSDOF 9
