REMARK  Name = ZINC39527435
REMARK  8 active torsions:
REMARK  status: ('A' for Active; 'I' for Inactive)
REMARK    1  A    between atoms: C_1  and  C_2
REMARK    2  A    between atoms: C_2  and  O_3
REMARK    3  A    between atoms: O_3  and  C_4
REMARK    4  A    between atoms: N_10  and  S_11
REMARK    5  A    between atoms: S_11  and  O_14
REMARK    6  A    between atoms: O_14  and  C_15
REMARK    7  A    between atoms: C_24  and  C_27
REMARK    8  A    between atoms: C_32  and  O_33
REMARK                            x       y       z     vdW  Elec       q    Type
REMARK                         _______ _______ _______ _____ _____    ______ ____
ROOT
ATOM      1  C   UNL     1       5.626   2.333  -1.753  0.00  0.00    +0.213 C 
ATOM      2  C   UNL     1       6.227   1.161  -0.972  0.00  0.00    +0.050 C 
ATOM      3  C   UNL     1       5.137   0.512  -0.117  0.00  0.00    +0.006 C 
ATOM      4  C   UNL     1       4.031  -0.035  -1.023  0.00  0.00    +0.024 C 
ATOM      5  C   UNL     1       3.407   1.121  -1.808  0.00  0.00    +0.049 C 
ATOM      6  N   UNL     1       4.477   1.835  -2.521  0.00  0.00    -0.113 NA
ATOM      7  C   UNL     1       2.708   2.081  -0.845  0.00  0.00    +0.024 C 
ATOM      8  C   UNL     1       2.096   3.240  -1.636  0.00  0.00    +0.002 C 
ATOM      9  C   UNL     1       1.083   2.691  -2.643  0.00  0.00    +0.008 C 
ATOM     10  C   UNL     1       1.788   1.735  -3.608  0.00  0.00    +0.024 C 
ATOM     11  C   UNL     1       2.399   0.574  -2.819  0.00  0.00    +0.032 C 
ENDROOT
BRANCH  10  12
ATOM     12  C   UNL     1       0.790   1.197  -4.601  0.00  0.00    -0.003 A 
ATOM     13  C   UNL     1       0.000   0.113  -4.269  0.00  0.00    +0.007 A 
ATOM     14  C   UNL     1      -0.915  -0.381  -5.180  0.00  0.00    +0.001 A 
ATOM     15  C   UNL     1      -1.043   0.208  -6.424  0.00  0.00    +0.004 A 
ATOM     16  C   UNL     1      -0.257   1.293  -6.760  0.00  0.00    +0.046 A 
ATOM     17  C   UNL     1       0.659   1.794  -5.846  0.00  0.00    +0.120 A 
BRANCH  17  18
ATOM     18  O   UNL     1       1.431   2.864  -6.172  0.00  0.00    -0.506 OA
ATOM     19  H   UNL     1       2.216   2.639  -6.689  0.00  0.00    +0.292 HD
ENDBRANCH  17  18
ENDBRANCH  10  12
BRANCH   6  20
ATOM     20  S   UNL     1       4.393   2.071  -4.158  0.00  0.00    +0.197 S 
ATOM     21  O   UNL     1       3.608   1.008  -4.681  0.00  0.00    -0.119 OA
ATOM     22  O   UNL     1       4.052   3.437  -4.354  0.00  0.00    -0.119 OA
BRANCH  20  23
ATOM     23  O   UNL     1       5.798   1.889  -4.712  0.00  0.00    -0.333 OA
BRANCH  23  24
ATOM     24  C   UNL     1       5.931   2.257  -6.013  0.00  0.00    +0.158 A 
ATOM     25  C   UNL     1       5.843   1.304  -7.018  0.00  0.00    +0.048 A 
ATOM     26  C   UNL     1       5.978   1.681  -8.340  0.00  0.00    +0.004 A 
ATOM     27  C   UNL     1       6.202   3.007  -8.662  0.00  0.00    +0.000 A 
ATOM     28  C   UNL     1       6.291   3.958  -7.663  0.00  0.00    +0.004 A 
ATOM     29  C   UNL     1       6.151   3.588  -6.340  0.00  0.00    +0.048 A 
ENDBRANCH  23  24
ENDBRANCH  20  23
ENDBRANCH   6  20
BRANCH   1  30
ATOM     30  O   UNL     1       5.194   3.347  -0.843  0.00  0.00    -0.360 OA
BRANCH  30  32
ATOM     31  C   UNL     1       5.694   5.151   0.686  0.00  0.00    +0.034 C 
ATOM     32  C   UNL     1       6.261   4.013  -0.165  0.00  0.00    +0.158 C 
ENDBRANCH  30  32
ENDBRANCH   1  30
TORSDOF 7
