REMARK  Name = ZINC04730365
REMARK  6 active torsions:
REMARK  status: ('A' for Active; 'I' for Inactive)
REMARK    1  A    between atoms: C_1  and  N_2
REMARK    2  A    between atoms: C_9  and  C_21
REMARK    3  A    between atoms: C_11  and  C_17
REMARK    4  A    between atoms: C_11  and  C_19
REMARK    5  A    between atoms: C_12  and  N_16
REMARK    6  A    between atoms: C_13  and  C_14
REMARK                            x       y       z     vdW  Elec       q    Type
REMARK                         _______ _______ _______ _____ _____    ______ ____
ROOT
ATOM      1  C   UNL     1      -0.776   1.497   0.081  0.00  0.00    +0.105 C 
ATOM      2  N   UNL     1      -0.544   0.047   0.038  0.00  0.00    -0.301 NA
ATOM      3  C   UNL     1       0.050  -0.355  -1.249  0.00  0.00    +0.111 C 
ATOM      4  C   UNL     1       0.092  -1.863  -1.280  0.00  0.00    -0.007 C 
ATOM      5  C   UNL     1       0.282  -2.540  -0.163  0.00  0.00    -0.026 C 
ATOM      6  C   UNL     1       0.517  -1.877   1.164  0.00  0.00    +0.044 C 
ATOM      7  C   UNL     1       0.315  -0.380   1.147  0.00  0.00    +0.093 C 
ATOM      8  C   UNL     1      -0.369  -2.566   2.203  0.00  0.00    +0.067 C 
ATOM      9  C   UNL     1       0.060  -4.029   2.328  0.00  0.00    +0.188 C 
ATOM     10  C   UNL     1       0.149  -4.699   0.990  0.00  0.00    +0.054 C 
ATOM     11  C   UNL     1       0.265  -4.024  -0.182  0.00  0.00    +0.074 C 
ENDROOT
BRANCH   8  12
ATOM     12  C   UNL     1      -0.215  -1.877   3.535  0.00  0.00    -0.040 A 
ATOM     13  C   UNL     1      -1.332  -1.596   4.300  0.00  0.00    +0.007 A 
ATOM     14  C   UNL     1      -1.193  -0.965   5.521  0.00  0.00    +0.040 A 
ATOM     15  C   UNL     1       0.066  -0.614   5.979  0.00  0.00    +0.137 A 
ATOM     16  C   UNL     1       1.184  -0.896   5.212  0.00  0.00    +0.053 A 
ATOM     17  C   UNL     1       1.042  -1.533   3.992  0.00  0.00    +0.022 A 
ATOM     18 BR   UNL     1       2.904  -0.418   5.835  0.00  0.00    -0.047 Br
ATOM     19  F   UNL     1       0.203   0.003   7.173  0.00  0.00    -0.204 F 
ENDBRANCH   8  12
BRANCH  10  20
ATOM     20  N   UNL     1       0.111  -6.065   0.948  0.00  0.00    -0.358 N 
ATOM     21  H   UNL     1       0.029  -6.573   1.770  0.00  0.00    +0.142 HD
ATOM     22  H   UNL     1       0.167  -6.526   0.097  0.00  0.00    +0.142 HD
ENDBRANCH  10  20
BRANCH  11  23
ATOM     23  C   UNL     1       0.370  -4.734  -1.421  0.00  0.00    +0.101 C 
ATOM     24  N   UNL     1       0.453  -5.298  -2.404  0.00  0.00    -0.191 NA
ENDBRANCH  11  23
BRANCH   9  25
ATOM     25  C   UNL     1       1.377  -4.088   2.982  0.00  0.00    +0.091 C 
ATOM     26  N   UNL     1       2.393  -4.134   3.487  0.00  0.00    -0.194 NA
ENDBRANCH   9  25
BRANCH   9  27
ATOM     27  C   UNL     1      -0.920  -4.746   3.160  0.00  0.00    +0.091 C 
ATOM     28  N   UNL     1      -1.676  -5.300   3.802  0.00  0.00    -0.194 NA
ENDBRANCH   9  27
TORSDOF 5
