REMARK  Name = ZINC38547012
REMARK  8 active torsions:
REMARK  status: ('A' for Active; 'I' for Inactive)
REMARK    1  A    between atoms: C_1  and  C_2
REMARK    2  A    between atoms: C_4  and  C_15
REMARK    3  A    between atoms: C_5  and  N_7
REMARK    4  A    between atoms: C_8  and  C_10
REMARK    5  A    between atoms: C_15  and  C_17
REMARK    6  A    between atoms: C_15  and  N_25
REMARK    7  A    between atoms: C_20  and  S_23
REMARK    8  A    between atoms: S_23  and  C_24
REMARK                            x       y       z     vdW  Elec       q    Type
REMARK                         _______ _______ _______ _____ _____    ______ ____
ROOT
ATOM      1  C   UNL     1      -2.036  -3.110  -0.018  0.00  0.00    +0.135 C 
ENDROOT
BRANCH   1   2
ATOM      2  N   UNL     1      -3.299  -2.723  -0.651  0.00  0.00    -0.320 N 
ATOM      3  C   UNL     1      -3.468  -2.886  -2.021  0.00  0.00    +0.097 A 
ATOM      4  C   UNL     1      -2.409  -3.347  -2.797  0.00  0.00    +0.041 A 
ATOM      5  C   UNL     1      -2.592  -3.504  -4.159  0.00  0.00    +0.005 A 
ATOM      6  C   UNL     1      -3.832  -3.193  -4.702  0.00  0.00    +0.018 A 
ATOM      7  C   UNL     1      -4.838  -2.740  -3.873  0.00  0.00    +0.084 A 
ATOM      8  N   UNL     1      -4.638  -2.605  -2.576  0.00  0.00    -0.350 N 
ATOM      9  H   UNL     1      -4.017  -2.354  -0.114  0.00  0.00    +0.148 HD
ATOM     10  H   UNL     1      -5.363  -2.289  -2.015  0.00  0.00    +0.166 HD
ENDBRANCH   1   2
BRANCH   1  14
ATOM     11  C   UNL     1      -0.832   1.822  -0.416  0.00  0.00    +0.051 C 
ATOM     12  C   UNL     1      -0.596   0.338  -0.298  0.00  0.00    -0.011 A 
ATOM     13  C   UNL     1      -1.504  -0.664  -0.216  0.00  0.00    +0.018 A 
ATOM     14  C   UNL     1      -1.056  -1.969  -0.112  0.00  0.00    +0.006 A 
ATOM     15  C   UNL     1       0.286  -2.203  -0.096  0.00  0.00    +0.078 A 
ATOM     16  S   UNL     1       0.950  -0.552  -0.238  0.00  0.00    -0.078 S 
BRANCH  15  17
ATOM     17  N   UNL     1       0.965  -3.419  -0.000  0.00  0.00    -0.273 N 
ATOM     18  C   UNL     1       2.313  -3.440  -0.002  0.00  0.00    +0.284 C 
ATOM     19  O   UNL     1       2.938  -2.399  -0.086  0.00  0.00    -0.266 OA
ATOM     20  H   UNL     1       0.467  -4.249   0.067  0.00  0.00    +0.156 HD
BRANCH  18  21
ATOM     21  C   UNL     1       3.026  -4.717   0.099  0.00  0.00    +0.189 A 
ATOM     22  C   UNL     1       4.382  -4.880   0.115  0.00  0.00    +0.054 A 
ATOM     23  C   UNL     1       4.622  -6.259   0.223  0.00  0.00    +0.042 A 
ATOM     24  C   UNL     1       3.417  -6.870   0.268  0.00  0.00    +0.196 A 
ATOM     25  O   UNL     1       2.458  -5.937   0.198  0.00  0.00    -0.458 OA
ENDBRANCH  18  21
ENDBRANCH  15  17
ENDBRANCH   1  14
BRANCH   1  26
ATOM     26  C   UNL     1      -2.281  -3.444   1.431  0.00  0.00    -0.023 A 
ATOM     27  C   UNL     1      -3.068  -2.611   2.206  0.00  0.00    +0.007 A 
ATOM     28  C   UNL     1      -3.295  -2.913   3.534  0.00  0.00    +0.015 A 
ATOM     29  C   UNL     1      -2.732  -4.056   4.091  0.00  0.00    +0.008 A 
ATOM     30  C   UNL     1      -1.943  -4.890   3.309  0.00  0.00    +0.015 A 
ATOM     31  C   UNL     1      -1.724  -4.584   1.980  0.00  0.00    +0.007 A 
BRANCH  29  32
ATOM     32  S   UNL     1      -3.018  -4.445   5.786  0.00  0.00    -0.129 S 
ATOM     33  C   UNL     1      -2.100  -5.988   6.043  0.00  0.00    +0.090 C 
ENDBRANCH  29  32
ENDBRANCH   1  26
TORSDOF 6
