REMARK  Name = ZINC13499791
REMARK  7 active torsions:
REMARK  status: ('A' for Active; 'I' for Inactive)
REMARK    1  A    between atoms: C_1  and  C_2
REMARK    2  A    between atoms: C_2  and  C_3
REMARK    3  A    between atoms: C_11  and  C_15
REMARK    4  A    between atoms: C_18  and  S_21
REMARK    5  A    between atoms: S_21  and  C_22
REMARK    6  A    between atoms: C_22  and  C_23
REMARK    7  A    between atoms: N_25  and  C_26
REMARK                            x       y       z     vdW  Elec       q    Type
REMARK                         _______ _______ _______ _____ _____    ______ ____
ROOT
ATOM      1  C   UNL     1      -0.725   3.968   0.034  0.00  0.00    +0.118 A 
ATOM      2  N   UNL     1      -0.982   2.691   0.029  0.00  0.00    -0.226 NA
ATOM      3  C   UNL     1      -0.021   1.772   0.029  0.00  0.00    +0.114 A 
ATOM      4  C   UNL     1       1.341   2.107   0.026  0.00  0.00    +0.056 A 
ATOM      5  C   UNL     1       2.264   1.031   0.021  0.00  0.00    -0.024 A 
ATOM      6  C   UNL     1       1.763  -0.226   0.020  0.00  0.00    -0.004 A 
ATOM      7  S   UNL     1       0.004  -0.004   0.025  0.00  0.00    -0.073 S 
ATOM      8  C   UNL     1       2.528  -1.512   0.015  0.00  0.00    +0.046 C 
ATOM      9  C   UNL     1       3.989  -1.208   0.381  0.00  0.00    -0.009 C 
ATOM     10  C   UNL     1       4.466  -0.017  -0.456  0.00  0.00    +0.008 C 
ATOM     11  C   UNL     1       3.774   1.262   0.015  0.00  0.00    +0.037 C 
ATOM     12  C   UNL     1       4.859  -2.429   0.079  0.00  0.00    +0.008 C 
ATOM     13  C   UNL     1       1.622   3.560   0.029  0.00  0.00    +0.173 A 
ATOM     14  N   UNL     1       0.558   4.436   0.033  0.00  0.00    -0.257 N 
ATOM     15  C   UNL     1       1.114   5.684   0.035  0.00  0.00    +0.198 A 
ATOM     16  N   UNL     1       2.418   5.529   0.033  0.00  0.00    -0.122 NA
ATOM     17  N   UNL     1       2.719   4.276   0.030  0.00  0.00    -0.128 NA
ENDROOT
BRANCH   1  19
ATOM     18  C   UNL     1      -2.256   5.286  -1.403  0.00  0.00    +0.012 C 
ATOM     19  C   UNL     1      -1.867   4.951   0.038  0.00  0.00    +0.071 C 
ENDBRANCH   1  19
BRANCH  15  20
ATOM     20  S   UNL     1       0.244   7.217   0.038  0.00  0.00    -0.076 S 
BRANCH  20  21
ATOM     21  C   UNL     1       1.558   8.467   0.039  0.00  0.00    +0.173 C 
BRANCH  21  22
ATOM     22  C   UNL     1       0.943   9.843   0.042  0.00  0.00    +0.227 C 
ATOM     23  O   UNL     1      -0.264   9.967   0.043  0.00  0.00    -0.275 OA
ATOM     24  N   UNL     1       1.733  10.935   0.043  0.00  0.00    -0.285 N 
ATOM     25  H   UNL     1       2.696  10.837   0.110  0.00  0.00    +0.155 HD
BRANCH  24  26
ATOM     26  C   UNL     1       1.164  12.211  -0.052  0.00  0.00    +0.037 A 
ATOM     27  C   UNL     1       1.826  13.217  -0.744  0.00  0.00    +0.027 A 
ATOM     28  C   UNL     1       1.264  14.475  -0.842  0.00  0.00    +0.051 A 
ATOM     29  C   UNL     1       0.043  14.740  -0.243  0.00  0.00    +0.166 A 
ATOM     30  C   UNL     1      -0.621  13.735   0.456  0.00  0.00    +0.168 A 
ATOM     31  C   UNL     1      -0.059  12.473   0.550  0.00  0.00    +0.072 A 
ATOM     32  O   UNL     1      -1.790  14.243   0.946  0.00  0.00    -0.453 OA
ATOM     33  C   UNL     1      -1.641  15.674   0.889  0.00  0.00    +0.466 C 
ATOM     34  O   UNL     1      -0.711  15.878  -0.191  0.00  0.00    -0.453 OA
ENDBRANCH  24  26
ENDBRANCH  21  22
ENDBRANCH  20  21
ENDBRANCH  15  20
TORSDOF 5
