REMARK  Name = ZINC50394486
REMARK  5 active torsions:
REMARK  status: ('A' for Active; 'I' for Inactive)
REMARK    1  A    between atoms: C_1  and  C_2
REMARK    2  A    between atoms: C_5  and  O_23
REMARK    3  A    between atoms: C_8  and  C_22
REMARK    4  A    between atoms: C_11  and  N_13
REMARK    5  A    between atoms: N_13  and  C_14
REMARK                            x       y       z     vdW  Elec       q    Type
REMARK                         _______ _______ _______ _____ _____    ______ ____
ROOT
ATOM      1  C   UNL     1      -1.011   0.571  -0.217  0.00  0.00    +0.044 C 
ATOM      2  C   UNL     1      -0.809  -0.871   0.174  0.00  0.00    -0.046 A 
ATOM      3  C   UNL     1      -1.139  -1.877  -0.714  0.00  0.00    +0.007 A 
ATOM      4  C   UNL     1      -0.954  -3.199  -0.358  0.00  0.00    +0.046 A 
ATOM      5  C   UNL     1      -0.438  -3.513   0.890  0.00  0.00    +0.122 A 
ATOM      6  C   UNL     1      -0.107  -2.500   1.782  0.00  0.00    +0.015 A 
ATOM      7  C   UNL     1      -0.288  -1.179   1.420  0.00  0.00    -0.033 A 
ATOM      8  C   UNL     1       0.150  -0.274   2.551  0.00  0.00    +0.018 C 
ATOM      9  C   UNL     1       0.212  -1.185   3.796  0.00  0.00    +0.031 C 
ATOM     10  C   UNL     1       0.464  -2.574   3.182  0.00  0.00    +0.089 C 
ATOM     11  C   UNL     1      -0.871   0.846   2.760  0.00  0.00    +0.012 C 
ENDROOT
BRANCH  10  12
ATOM     12  N   UNL     1       1.908  -2.841   3.130  0.00  0.00    -0.299 NA
ATOM     13  H   UNL     1       2.139  -3.428   2.343  0.00  0.00    +0.123 HD
BRANCH  12  14
ATOM     14  C   UNL     1       2.378  -3.437   4.388  0.00  0.00    +0.141 C 
ATOM     15  C   UNL     1       3.840  -3.046   4.620  0.00  0.00    +0.029 C 
ATOM     16  C   UNL     1       4.389  -3.891   5.776  0.00  0.00    +0.021 C 
ATOM     17  C   UNL     1       4.463  -5.350   5.324  0.00  0.00    +0.104 C 
ATOM     18  N   UNL     1       3.191  -5.772   4.752  0.00  0.00    -0.314 N 
ATOM     19  C   UNL     1       2.257  -4.931   4.307  0.00  0.00    +0.230 C 
ATOM     20  O   UNL     1       1.254  -5.400   3.813  0.00  0.00    -0.274 OA
ATOM     21  H   UNL     1       3.013  -6.723   4.690  0.00  0.00    +0.149 HD
ENDBRANCH  12  14
ENDBRANCH  10  12
BRANCH   5  22
ATOM     22  O   UNL     1      -0.256  -4.813   1.241  0.00  0.00    -0.506 OA
ATOM     23  H   UNL     1       0.636  -5.145   1.071  0.00  0.00    +0.292 HD
ENDBRANCH   5  22
TORSDOF 3
