REMARK  Name = ZINC09446721
REMARK  3 active torsions:
REMARK  status: ('A' for Active; 'I' for Inactive)
REMARK    1  A    between atoms: C_10  and  C_32
REMARK    2  A    between atoms: C_11  and  C_27
REMARK    3  A    between atoms: C_17  and  C_22
REMARK                            x       y       z     vdW  Elec       q    Type
REMARK                         _______ _______ _______ _____ _____    ______ ____
ROOT
ATOM      1  C   UNL     1       1.204  -0.693  -0.029  0.00  0.00    +0.001 A 
ATOM      2  C   UNL     1       0.002  -0.004   0.002  0.00  0.00    +0.002 A 
ATOM      3  C   UNL     1      -0.017   1.377   0.010  0.00  0.00    +0.024 A 
ATOM      4  C   UNL     1       1.168   2.093   0.002  0.00  0.00    +0.050 A 
ATOM      5  C   UNL     1       2.385   1.391  -0.118  0.00  0.00    +0.036 A 
ATOM      6  C   UNL     1       2.395  -0.002  -0.105  0.00  0.00    +0.013 A 
ATOM      7  C   UNL     1       3.624   2.164  -0.292  0.00  0.00    +0.127 C 
ATOM      8  N   UNL     1       3.547   3.478  -0.354  0.00  0.00    -0.215 NA
ATOM      9  C   UNL     1       2.385   4.130  -0.212  0.00  0.00    +0.146 C 
ATOM     10  C   UNL     1       2.379   5.502  -0.451  0.00  0.00    +0.082 C 
ATOM     11  C   UNL     1       1.048   6.213  -0.317  0.00  0.00    +0.104 C 
ATOM     12  C   UNL     1       0.017   5.492   0.530  0.00  0.00    +0.026 C 
ATOM     13  C   UNL     1       0.162   4.155   0.698  0.00  0.00    +0.025 C 
ATOM     14  N   UNL     1       1.218   3.476   0.143  0.00  0.00    -0.256 N 
ATOM     15  C   UNL     1      -0.830   3.411   1.560  0.00  0.00    +0.063 C 
ATOM     16  C   UNL     1      -1.333   4.334   2.675  0.00  0.00    +0.068 C 
ATOM     17  C   UNL     1      -2.018   5.544   2.029  0.00  0.00    +0.091 C 
ATOM     18  C   UNL     1      -1.025   6.218   1.117  0.00  0.00    +0.162 C 
ATOM     19  O   UNL     1      -1.137   7.408   0.896  0.00  0.00    -0.292 OA
ATOM     20  N   UNL     1       4.841   1.537  -0.384  0.00  0.00    -0.343 N 
ATOM     21  H   UNL     1       4.893   0.569  -0.335  0.00  0.00    +0.144 HD
ATOM     22  H   UNL     1       5.649   2.061  -0.498  0.00  0.00    +0.144 HD
ENDROOT
BRANCH  16  23
ATOM     23  C   UNL     1      -2.319   3.594   3.541  0.00  0.00    +0.109 A 
ATOM     24  C   UNL     1      -2.199   3.381   4.864  0.00  0.00    +0.045 A 
ATOM     25  C   UNL     1      -3.340   2.650   5.266  0.00  0.00    +0.041 A 
ATOM     26  C   UNL     1      -4.090   2.461   4.165  0.00  0.00    +0.195 A 
ATOM     27  O   UNL     1      -3.469   3.039   3.124  0.00  0.00    -0.468 OA
ENDBRANCH  16  23
BRANCH  11  28
ATOM     28  C   UNL     1       0.478   6.397  -1.700  0.00  0.00    +0.002 A 
ATOM     29  C   UNL     1       0.153   7.544  -2.344  0.00  0.00    +0.012 A 
ATOM     30  C   UNL     1      -0.357   7.472  -3.627  0.00  0.00    +0.008 A 
ATOM     31  C   UNL     1      -0.526   6.255  -4.199  0.00  0.00    +0.045 A 
ATOM     32  S   UNL     1       0.052   5.159  -2.914  0.00  0.00    -0.101 S 
ENDBRANCH  11  28
BRANCH  10  33
ATOM     33  C   UNL     1       3.570   6.206  -0.806  0.00  0.00    +0.099 C 
ATOM     34  N   UNL     1       4.517   6.767  -1.088  0.00  0.00    -0.191 NA
ENDBRANCH  10  33
TORSDOF 3
