REMARK  Name = ZINC39330509
REMARK  6 active torsions:
REMARK  status: ('A' for Active; 'I' for Inactive)
REMARK    1  A    between atoms: C_1  and  N_2
REMARK    2  A    between atoms: C_4  and  C_12
REMARK    3  A    between atoms: N_16  and  C_26
REMARK    4  A    between atoms: C_17  and  C_19
REMARK    5  A    between atoms: C_26  and  C_27
REMARK    6  A    between atoms: C_27  and  C_28
REMARK                            x       y       z     vdW  Elec       q    Type
REMARK                         _______ _______ _______ _____ _____    ______ ____
ROOT
ATOM      1  C   UNL     1      -0.927  -3.159   1.192  0.00  0.00    +0.016 C 
ATOM      2  C   UNL     1      -1.767  -4.211   1.095  0.00  0.00    +0.125 C 
ATOM      3  C   UNL     1      -2.460  -4.905   2.204  0.00  0.00    +0.270 C 
ATOM      4  O   UNL     1      -2.393  -4.649   3.392  0.00  0.00    -0.268 OA
ATOM      5  N   UNL     1      -3.184  -5.884   1.617  0.00  0.00    -0.250 N 
ATOM      6  C   UNL     1      -2.974  -5.823   0.259  0.00  0.00    +0.137 C 
ATOM      7  N   UNL     1      -2.158  -4.851  -0.049  0.00  0.00    -0.227 NA
ENDROOT
BRANCH   1  11
ATOM      8  C   UNL     1       0.668   1.109  -0.266  0.00  0.00    +0.129 C 
ATOM      9  N   UNL     1       0.550  -0.348  -0.160  0.00  0.00    -0.332 N 
ATOM     10  C   UNL     1      -0.711  -1.093  -0.199  0.00  0.00    +0.117 C 
ATOM     11  C   UNL     1      -0.312  -2.570  -0.051  0.00  0.00    +0.063 C 
ATOM     12  C   UNL     1       1.196  -2.546   0.064  0.00  0.00    -0.018 A 
ATOM     13  C   UNL     1       1.623  -1.229  -0.013  0.00  0.00    +0.033 A 
ATOM     14  C   UNL     1       2.989  -0.954   0.065  0.00  0.00    +0.023 A 
ATOM     15  C   UNL     1       3.898  -1.980   0.212  0.00  0.00    +0.002 A 
ATOM     16  C   UNL     1       3.462  -3.291   0.283  0.00  0.00    +0.000 A 
ATOM     17  C   UNL     1       2.109  -3.570   0.216  0.00  0.00    +0.006 A 
ENDBRANCH   1  11
BRANCH   6  18
ATOM     18  C   UNL     1      -3.595  -6.734  -0.724  0.00  0.00    +0.034 A 
ATOM     19  C   UNL     1      -4.385  -6.221  -1.754  0.00  0.00    +0.013 A 
ATOM     20  C   UNL     1      -4.962  -7.078  -2.668  0.00  0.00    +0.001 A 
ATOM     21  C   UNL     1      -4.760  -8.443  -2.566  0.00  0.00    +0.001 A 
ATOM     22  C   UNL     1      -3.978  -8.959  -1.549  0.00  0.00    +0.021 A 
ATOM     23  C   UNL     1      -3.389  -8.113  -0.630  0.00  0.00    +0.051 A 
ATOM     24 CL   UNL     1      -2.402  -8.761   0.643  0.00  0.00    -0.083 Cl
ENDBRANCH   6  18
BRANCH   5  25
ATOM     25  C   UNL     1      -4.044  -6.847   2.309  0.00  0.00    +0.120 C 
BRANCH  25  26
ATOM     26  C   UNL     1      -5.422  -6.223   2.544  0.00  0.00    +0.056 C 
BRANCH  26  27
ATOM     27  C   UNL     1      -6.307  -7.213   3.256  0.00  0.00    -0.021 A 
ATOM     28  C   UNL     1      -6.377  -7.438   4.702  0.00  0.00    +0.003 A 
ATOM     29  C   UNL     1      -5.725  -6.878   5.803  0.00  0.00    +0.013 A 
ATOM     30  C   UNL     1      -6.022  -7.317   7.062  0.00  0.00    +0.039 A 
ATOM     31  C   UNL     1      -6.968  -8.316   7.257  0.00  0.00    +0.125 A 
ATOM     32  C   UNL     1      -7.623  -8.883   6.183  0.00  0.00    +0.064 A 
ATOM     33  C   UNL     1      -7.336  -8.450   4.893  0.00  0.00    +0.049 A 
ATOM     34  N   UNL     1      -7.805  -8.804   3.648  0.00  0.00    -0.360 N 
ATOM     35  C   UNL     1      -7.184  -8.054   2.685  0.00  0.00    +0.087 A 
ATOM     36  F   UNL     1      -7.248  -8.738   8.510  0.00  0.00    -0.205 F 
ATOM     37  H   UNL     1      -8.477  -9.483   3.478  0.00  0.00    +0.165 HD
ENDBRANCH  26  27
ENDBRANCH  25  26
ENDBRANCH   5  25
TORSDOF 5
