REMARK  Name = ZINC47486190
REMARK  8 active torsions:
REMARK  status: ('A' for Active; 'I' for Inactive)
REMARK    1  A    between atoms: C_1  and  C_2
REMARK    2  A    between atoms: N_6  and  C_7
REMARK    3  A    between atoms: C_7  and  C_8
REMARK    4  A    between atoms: C_8  and  C_9
REMARK    5  A    between atoms: C_9  and  N_10
REMARK    6  A    between atoms: N_13  and  C_14
REMARK    7  A    between atoms: C_16  and  N_21
REMARK    8  A    between atoms: C_22  and  C_24
REMARK                            x       y       z     vdW  Elec       q    Type
REMARK                         _______ _______ _______ _____ _____    ______ ____
ROOT
ATOM      1  N   UNL     1      -2.818   0.664   4.827  0.00  0.00    -0.299 N 
ATOM      2  C   UNL     1      -3.044   1.063   6.094  0.00  0.00    +0.304 C 
ATOM      3  O   UNL     1      -2.108   1.249   6.848  0.00  0.00    -0.253 OA
ATOM      4  N   UNL     1      -4.306   1.254   6.526  0.00  0.00    -0.267 N 
ATOM      5  H   UNL     1      -3.564   0.515   4.225  0.00  0.00    +0.150 HD
ATOM      6  H   UNL     1      -5.048   1.171   5.907  0.00  0.00    +0.156 HD
ENDROOT
BRANCH   4   7
ATOM      7  C   UNL     1      -4.546   1.573   7.868  0.00  0.00    +0.072 A 
ATOM      8  C   UNL     1      -3.647   2.366   8.565  0.00  0.00    +0.049 A 
ATOM      9  C   UNL     1      -3.888   2.681   9.895  0.00  0.00    +0.035 A 
ATOM     10  C   UNL     1      -5.029   2.201  10.525  0.00  0.00    +0.026 A 
ATOM     11  C   UNL     1      -5.925   1.412   9.829  0.00  0.00    +0.042 A 
ATOM     12  C   UNL     1      -5.690   1.100   8.502  0.00  0.00    +0.145 A 
ATOM     13  F   UNL     1      -6.570   0.332   7.823  0.00  0.00    -0.204 F 
BRANCH   9  14
ATOM     14  N   UNL     1      -2.981   3.480  10.601  0.00  0.00    -0.286 N 
ATOM     15  C   UNL     1      -3.404   4.213  11.651  0.00  0.00    +0.214 C 
ATOM     16  O   UNL     1      -4.586   4.262  11.919  0.00  0.00    -0.276 OA
ATOM     17  C   UNL     1      -2.408   4.969  12.492  0.00  0.00    +0.109 C 
ATOM     18  H   UNL     1      -2.049   3.507  10.335  0.00  0.00    +0.155 HD
ENDBRANCH   9  14
ENDBRANCH   4   7
BRANCH   1  19
ATOM     19  C   UNL     1      -1.446   0.456   4.357  0.00  0.00    +0.107 C 
BRANCH  19  20
ATOM     20  C   UNL     1      -1.469   0.010   2.894  0.00  0.00    +0.040 C 
BRANCH  20  21
ATOM     21  C   UNL     1      -0.036  -0.208   2.404  0.00  0.00    +0.124 C 
BRANCH  21  27
ATOM     22  C   UNL     1      -0.171   1.676  -0.052  0.00  0.00    +0.084 C 
ATOM     23  C   UNL     1      -0.117   0.170  -0.080  0.00  0.00    +0.084 A 
ATOM     24  N   UNL     1      -0.114  -0.572  -1.153  0.00  0.00    -0.350 N 
ATOM     25  C   UNL     1      -0.059  -1.864  -0.798  0.00  0.00    +0.101 A 
ATOM     26  C   UNL     1      -0.028  -1.925   0.547  0.00  0.00    +0.104 A 
ATOM     27  N   UNL     1      -0.059  -0.635   1.003  0.00  0.00    -0.336 N 
ATOM     28  H   UNL     1      -0.146  -0.241  -2.064  0.00  0.00    +0.166 HD
ENDBRANCH  21  27
ENDBRANCH  20  21
ENDBRANCH  19  20
ENDBRANCH   1  19
TORSDOF 6
