REMARK  Name = ZINC10731669
REMARK  8 active torsions:
REMARK  status: ('A' for Active; 'I' for Inactive)
REMARK    1  A    between atoms: C_1  and  C_2
REMARK    2  A    between atoms: C_5  and  N_8
REMARK    3  A    between atoms: C_9  and  C_28
REMARK    4  A    between atoms: C_12  and  S_13
REMARK    5  A    between atoms: S_13  and  C_14
REMARK    6  A    between atoms: C_14  and  C_16
REMARK    7  A    between atoms: C_14  and  C_17
REMARK    8  A    between atoms: N_19  and  C_20
REMARK                            x       y       z     vdW  Elec       q    Type
REMARK                         _______ _______ _______ _____ _____    ______ ____
ROOT
ATOM      1  N   UNL     1      -1.468   3.473   0.264  0.00  0.00    -0.270 N 
ATOM      2  C   UNL     1      -1.301   2.139  -0.039  0.00  0.00    +0.169 A 
ATOM      3  N   UNL     1      -2.491   1.654  -0.310  0.00  0.00    -0.128 NA
ATOM      4  N   UNL     1      -3.379   2.575  -0.191  0.00  0.00    -0.122 NA
ATOM      5  C   UNL     1      -2.810   3.710   0.155  0.00  0.00    +0.197 A 
ENDROOT
BRANCH   1  10
ATOM      6  C   UNL     1       2.572   7.202   1.671  0.00  0.00    +0.044 C 
ATOM      7  C   UNL     1       1.500   6.212   1.297  0.00  0.00    -0.050 A 
ATOM      8  C   UNL     1       0.788   6.376   0.123  0.00  0.00    +0.005 A 
ATOM      9  C   UNL     1      -0.196   5.470  -0.222  0.00  0.00    +0.026 A 
ATOM     10  C   UNL     1      -0.470   4.394   0.611  0.00  0.00    +0.051 A 
ATOM     11  C   UNL     1       0.242   4.235   1.793  0.00  0.00    +0.026 A 
ATOM     12  C   UNL     1       1.228   5.141   2.130  0.00  0.00    +0.005 A 
ENDBRANCH   1  10
BRANCH   2  13
ATOM     13  C   UNL     1      -0.024   1.396  -0.061  0.00  0.00    +0.022 A 
ATOM     14  C   UNL     1       1.202   2.072  -0.074  0.00  0.00    +0.031 A 
ATOM     15  C   UNL     1       2.369   1.339  -0.100  0.00  0.00    +0.111 A 
ATOM     16  N   UNL     1       2.341   0.020  -0.114  0.00  0.00    -0.263 NA
ATOM     17  C   UNL     1       1.208  -0.657  -0.103  0.00  0.00    +0.111 A 
ATOM     18  C   UNL     1      -0.006  -0.005  -0.077  0.00  0.00    +0.031 A 
ENDBRANCH   2  13
BRANCH   5  19
ATOM     19  S   UNL     1      -3.625   5.248   0.426  0.00  0.00    -0.073 S 
BRANCH  19  20
ATOM     20  C   UNL     1      -5.336   4.759   0.096  0.00  0.00    +0.137 C 
ATOM     21  C   UNL     1      -5.477   4.358  -1.374  0.00  0.00    +0.029 C 
BRANCH  20  22
ATOM     22  C   UNL     1      -6.255   5.917   0.391  0.00  0.00    +0.230 C 
ATOM     23  O   UNL     1      -5.834   7.053   0.340  0.00  0.00    -0.274 OA
ATOM     24  N   UNL     1      -7.544   5.689   0.710  0.00  0.00    -0.282 N 
ATOM     25  H   UNL     1      -7.897   4.786   0.688  0.00  0.00    +0.155 HD
BRANCH  24  26
ATOM     26  C   UNL     1      -8.374   6.757   1.075  0.00  0.00    +0.072 A 
ATOM     27  C   UNL     1      -8.210   8.000   0.480  0.00  0.00    +0.064 A 
ATOM     28  C   UNL     1      -9.032   9.053   0.842  0.00  0.00    +0.125 A 
ATOM     29  C   UNL     1     -10.017   8.867   1.797  0.00  0.00    +0.041 A 
ATOM     30  C   UNL     1     -10.183   7.630   2.392  0.00  0.00    +0.043 A 
ATOM     31  C   UNL     1      -9.368   6.572   2.030  0.00  0.00    +0.145 A 
ATOM     32  F   UNL     1      -9.534   5.362   2.607  0.00  0.00    -0.204 F 
ATOM     33  F   UNL     1      -8.873  10.263   0.263  0.00  0.00    -0.205 F 
ENDBRANCH  24  26
ENDBRANCH  20  22
ENDBRANCH  19  20
ENDBRANCH   5  19
TORSDOF 6
