REMARK  Name = ZINC59795022
REMARK  11 active torsions:
REMARK  status: ('A' for Active; 'I' for Inactive)
REMARK    1  A    between atoms: C_1  and  C_2
REMARK    2  A    between atoms: C_2  and  C_30
REMARK    3  A    between atoms: C_4  and  N_10
REMARK    4  A    between atoms: C_6  and  C_8
REMARK    5  A    between atoms: C_6  and  C_9
REMARK    6  A    between atoms: C_11  and  C_13
REMARK    7  A    between atoms: C_13  and  S_14
REMARK    8  A    between atoms: S_14  and  C_15
REMARK    9  A    between atoms: C_18  and  C_23
REMARK   10  A    between atoms: N_19  and  C_20
REMARK   11  A    between atoms: C_20  and  C_21
REMARK                            x       y       z     vdW  Elec       q    Type
REMARK                         _______ _______ _______ _____ _____    ______ ____
ROOT
ATOM      1  C   UNL     1       4.567  -1.361  -4.366  0.00  0.00    +0.173 C 
ENDROOT
BRANCH   1   3
ATOM      2  N   UNL     1       3.064  -1.635  -2.420  0.00  0.00    -0.312 N 
ATOM      3  C   UNL     1       3.938  -0.859  -3.092  0.00  0.00    +0.224 C 
ATOM      4  O   UNL     1       4.218   0.243  -2.671  0.00  0.00    -0.275 OA
ATOM      5  H   UNL     1       2.840  -2.517  -2.756  0.00  0.00    +0.149 HD
BRANCH   2   9
ATOM      6  C   UNL     1      -0.101   0.016   0.159  0.00  0.00    -0.010 C 
ATOM      7  C   UNL     1       0.473  -1.393   0.342  0.00  0.00    -0.072 C 
ATOM      8  C   UNL     1       1.117  -1.860  -0.960  0.00  0.00    +0.009 C 
ATOM      9  C   UNL     1       2.452  -1.146  -1.179  0.00  0.00    +0.070 C 
ATOM     10  C   UNL     1       3.368  -1.476  -0.000  0.00  0.00    +0.009 C 
ATOM     11  C   UNL     1       2.740  -1.007   1.308  0.00  0.00    -0.072 C 
ATOM     12  N   UNL     1       1.369  -1.454   1.482  0.00  0.00    +0.386 N 
ATOM     13  C   UNL     1       2.846   0.518   1.417  0.00  0.00    -0.010 C 
ATOM     14  C   UNL     1       3.579  -1.602   2.463  0.00  0.00    -0.010 C 
ATOM     15  C   UNL     1      -0.720  -2.334   0.629  0.00  0.00    -0.010 C 
ATOM     16  H   UNL     1       0.951  -0.918   2.249  0.00  0.00    -0.084 HD
ATOM     17  H   UNL     1       1.389  -2.421   1.822  0.00  0.00    -0.084 HD
ENDBRANCH   2   9
ENDBRANCH   1   3
BRANCH   1  18
ATOM     18  S   UNL     1       5.687  -0.097  -5.026  0.00  0.00    -0.077 S 
BRANCH  18  19
ATOM     19  C   UNL     1       6.334  -0.826  -6.495  0.00  0.00    +0.193 A 
ATOM     20  N   UNL     1       6.039  -2.015  -6.970  0.00  0.00    -0.122 NA
ATOM     21  N   UNL     1       6.689  -2.229  -8.057  0.00  0.00    -0.128 NA
ATOM     22  C   UNL     1       7.439  -1.190  -8.343  0.00  0.00    +0.165 A 
ATOM     23  N   UNL     1       7.231  -0.257  -7.354  0.00  0.00    -0.298 N 
BRANCH  22  24
ATOM     24  C   UNL     1       8.334  -1.048  -9.511  0.00  0.00    +0.019 A 
ATOM     25  C   UNL     1       9.522  -0.324  -9.399  0.00  0.00    +0.013 A 
ATOM     26  C   UNL     1      10.354  -0.194 -10.492  0.00  0.00    +0.021 A 
ATOM     27  C   UNL     1      10.011  -0.780 -11.699  0.00  0.00    +0.041 A 
ATOM     28  C   UNL     1       8.834  -1.499 -11.816  0.00  0.00    +0.021 A 
ATOM     29  C   UNL     1       7.997  -1.641 -10.729  0.00  0.00    +0.013 A 
ATOM     30 CL   UNL     1      11.063  -0.613 -13.070  0.00  0.00    -0.084 Cl
ENDBRANCH  22  24
BRANCH  23  31
ATOM     31  C   UNL     1       7.844   1.068  -7.244  0.00  0.00    +0.152 C 
BRANCH  31  32
ATOM     32  C   UNL     1       9.039   0.994  -6.328  0.00  0.00    -0.013 C 
ATOM     33  C   UNL     1      10.202   1.441  -6.731  0.00  0.00    +0.005 C 
ENDBRANCH  31  32
ENDBRANCH  23  31
ENDBRANCH  18  19
ENDBRANCH   1  18
TORSDOF 7
