REMARK  Name = ZINC02685717
REMARK  7 active torsions:
REMARK  status: ('A' for Active; 'I' for Inactive)
REMARK    1  A    between atoms: C_4  and  C_8
REMARK    2  A    between atoms: C_5  and  O_7
REMARK    3  A    between atoms: N_9  and  N_10
REMARK    4  A    between atoms: C_11  and  C_13
REMARK    5  A    between atoms: N_15  and  N_16
REMARK    6  A    between atoms: C_17  and  C_18
REMARK    7  A    between atoms: C_19  and  O_25
REMARK                            x       y       z     vdW  Elec       q    Type
REMARK                         _______ _______ _______ _____ _____    ______ ____
ROOT
ATOM      1  N   UNL     1       4.954  -2.649  -0.062  0.00  0.00    -0.199 N 
ATOM      2  C   UNL     1       4.980  -3.996  -0.069  0.00  0.00    +0.320 C 
ATOM      3  O   UNL     1       3.941  -4.624  -0.062  0.00  0.00    -0.263 OA
ATOM      4  H   UNL     1       5.784  -2.147  -0.068  0.00  0.00    +0.178 HD
ENDROOT
BRANCH   2   5
ATOM      5  C   UNL     1       6.284  -4.715  -0.086  0.00  0.00    +0.320 C 
ATOM      6  O   UNL     1       7.324  -4.088  -0.094  0.00  0.00    -0.263 OA
ATOM      7  N   UNL     1       6.311  -6.063  -0.094  0.00  0.00    -0.199 N 
ATOM      8  H   UNL     1       5.480  -6.564  -0.088  0.00  0.00    +0.178 HD
BRANCH   7   9
ATOM      9  N   UNL     1       7.537  -6.739  -0.110  0.00  0.00    -0.187 NA
ATOM     10  C   UNL     1       7.563  -8.039  -0.117  0.00  0.00    +0.142 C 
BRANCH  10  11
ATOM     11  C   UNL     1       8.852  -8.750  -0.134  0.00  0.00    +0.037 A 
ATOM     12  C   UNL     1      10.055  -8.029  -0.137  0.00  0.00    +0.126 A 
ATOM     13  C   UNL     1      11.263  -8.707  -0.152  0.00  0.00    +0.047 A 
ATOM     14  C   UNL     1      11.281 -10.089  -0.166  0.00  0.00    +0.019 A 
ATOM     15  C   UNL     1      10.096 -10.806  -0.164  0.00  0.00    +0.019 A 
ATOM     16  C   UNL     1       8.884 -10.146  -0.142  0.00  0.00    +0.028 A 
ATOM     17 BR   UNL     1      10.139 -12.697  -0.183  0.00  0.00    -0.050 Br
BRANCH  12  18
ATOM     18  O   UNL     1      10.036  -6.671  -0.125  0.00  0.00    -0.506 OA
ATOM     19  H   UNL     1      10.037  -6.286   0.762  0.00  0.00    +0.292 HD
ENDBRANCH  12  18
ENDBRANCH  10  11
ENDBRANCH   7   9
ENDBRANCH   2   5
BRANCH   1  21
ATOM     20  C   UNL     1       3.702  -0.673  -0.038  0.00  0.00    +0.142 C 
ATOM     21  N   UNL     1       3.727  -1.972  -0.045  0.00  0.00    -0.187 NA
BRANCH  20  25
ATOM     22  C   UNL     1      -0.017   1.378   0.010  0.00  0.00    +0.019 A 
ATOM     23  C   UNL     1       1.169   2.095   0.002  0.00  0.00    +0.019 A 
ATOM     24  C   UNL     1       2.380   1.435  -0.013  0.00  0.00    +0.028 A 
ATOM     25  C   UNL     1       2.412   0.038  -0.021  0.00  0.00    +0.037 A 
ATOM     26  C   UNL     1       1.210  -0.683  -0.013  0.00  0.00    +0.126 A 
ATOM     27  C   UNL     1       0.002  -0.004   0.002  0.00  0.00    +0.047 A 
ATOM     28 BR   UNL     1       1.126   3.985   0.013  0.00  0.00    -0.050 Br
BRANCH  26  29
ATOM     29  O   UNL     1       1.228  -2.041  -0.021  0.00  0.00    -0.506 OA
ATOM     30  H   UNL     1       1.243  -2.439   0.860  0.00  0.00    +0.292 HD
ENDBRANCH  26  29
ENDBRANCH  20  25
ENDBRANCH   1  21
TORSDOF 7
