REMARK  Name = ZINC36072275
REMARK  11 active torsions:
REMARK  status: ('A' for Active; 'I' for Inactive)
REMARK    1  A    between atoms: C_1  and  C_2
REMARK    2  A    between atoms: C_2  and  O_3
REMARK    3  A    between atoms: O_3  and  C_4
REMARK    4  A    between atoms: C_4  and  C_6
REMARK    5  A    between atoms: C_13  and  C_15
REMARK    6  A    between atoms: C_18  and  C_20
REMARK    7  A    between atoms: C_20  and  N_21
REMARK    8  A    between atoms: N_21  and  C_22
REMARK    9  A    between atoms: N_21  and  C_29
REMARK   10  A    between atoms: C_22  and  C_23
REMARK   11  A    between atoms: C_29  and  C_30
REMARK                            x       y       z     vdW  Elec       q    Type
REMARK                         _______ _______ _______ _____ _____    ______ ____
ROOT
ATOM      1  C   UNL     1       5.201  -2.850   4.926  0.00  0.00    +0.164 A 
ATOM      2  C   UNL     1       5.684  -2.087   5.944  0.00  0.00    +0.230 A 
ATOM      3  O   UNL     1       6.027  -2.926   6.934  0.00  0.00    -0.449 OA
ATOM      4  C   UNL     1       5.761  -4.177   6.533  0.00  0.00    +0.179 A 
ATOM      5  N   UNL     1       5.261  -4.146   5.335  0.00  0.00    -0.210 NA
ENDROOT
BRANCH   1  12
ATOM      6  C   UNL     1       2.100  -3.234   1.403  0.00  0.00    +0.115 C 
ATOM      7  C   UNL     1       2.074  -4.755   1.565  0.00  0.00    +0.018 C 
ATOM      8  C   UNL     1       2.622  -5.133   2.943  0.00  0.00    +0.020 C 
ATOM      9  C   UNL     1       4.074  -4.661   3.058  0.00  0.00    +0.108 C 
ATOM     10  N   UNL     1       4.128  -3.223   2.761  0.00  0.00    -0.295 N 
ATOM     11  C   UNL     1       3.547  -2.739   1.501  0.00  0.00    +0.122 C 
ATOM     12  C   UNL     1       4.700  -2.364   3.627  0.00  0.00    +0.268 C 
ATOM     13  O   UNL     1       4.804  -1.187   3.338  0.00  0.00    -0.268 OA
BRANCH   6  14
ATOM     14  C   UNL     1       1.531  -2.861   0.059  0.00  0.00    +0.312 C 
ATOM     15  O   UNL     1       1.142  -3.723  -0.693  0.00  0.00    -0.250 OA
BRANCH  14  16
ATOM     16  O   UNL     1       1.456  -1.570  -0.303  0.00  0.00    -0.465 OA
BRANCH  16  18
ATOM     17  C   UNL     1       0.900   0.223  -1.825  0.00  0.00    +0.048 C 
ATOM     18  C   UNL     1       0.904  -1.289  -1.591  0.00  0.00    +0.229 C 
ENDBRANCH  16  18
ENDBRANCH  14  16
ENDBRANCH   6  14
ENDBRANCH   1  12
BRANCH   4  19
ATOM     19  C   UNL     1       6.000  -5.423   7.347  0.00  0.00    +0.020 C 
BRANCH  19  20
ATOM     20  N   UNL     1       7.381  -5.882   7.147  0.00  0.00    +0.391 N 
ATOM     21  H   UNL     1       7.563  -5.979   6.159  0.00  0.00    -0.080 HD
BRANCH  20  22
ATOM     22  C   UNL     1       7.567  -7.180   7.809  0.00  0.00    -0.042 C 
BRANCH  22  23
ATOM     23  C   UNL     1       6.718  -8.219   7.125  0.00  0.00    -0.064 A 
ATOM     24  C   UNL     1       5.421  -8.442   7.550  0.00  0.00    +0.002 A 
ATOM     25  C   UNL     1       4.642  -9.395   6.922  0.00  0.00    +0.000 A 
ATOM     26  C   UNL     1       5.159 -10.126   5.869  0.00  0.00    +0.000 A 
ATOM     27  C   UNL     1       6.455  -9.903   5.443  0.00  0.00    +0.000 A 
ATOM     28  C   UNL     1       7.232  -8.946   6.068  0.00  0.00    +0.002 A 
ENDBRANCH  22  23
ENDBRANCH  20  22
BRANCH  20  29
ATOM     29  C   UNL     1       8.311  -4.901   7.722  0.00  0.00    -0.040 C 
BRANCH  29  30
ATOM     30  C   UNL     1       9.728  -5.309   7.409  0.00  0.00    -0.046 A 
ATOM     31  C   UNL     1      10.487  -5.958   8.364  0.00  0.00    +0.003 A 
ATOM     32  C   UNL     1      11.787  -6.332   8.078  0.00  0.00    +0.000 A 
ATOM     33  C   UNL     1      12.328  -6.057   6.835  0.00  0.00    +0.001 A 
ATOM     34  C   UNL     1      11.570  -5.408   5.880  0.00  0.00    +0.020 A 
ATOM     35  C   UNL     1      10.267  -5.038   6.164  0.00  0.00    +0.042 A 
ATOM     36 CL   UNL     1       9.312  -4.229   4.962  0.00  0.00    -0.083 Cl
ENDBRANCH  29  30
ENDBRANCH  20  29
ENDBRANCH  19  20
ENDBRANCH   4  19
TORSDOF 10
