REMARK  Name = ZINC13070156
REMARK  11 active torsions:
REMARK  status: ('A' for Active; 'I' for Inactive)
REMARK    1  A    between atoms: C_1  and  C_2
REMARK    2  A    between atoms: C_2  and  C_3
REMARK    3  A    between atoms: C_3  and  C_5
REMARK    4  A    between atoms: C_3  and  C_6
REMARK    5  A    between atoms: C_9  and  N_12
REMARK    6  A    between atoms: N_24  and  C_27
REMARK    7  A    between atoms: C_27  and  N_67
REMARK    8  A    between atoms: C_28  and  N_67
REMARK    9  A    between atoms: C_29  and  C_30
REMARK   10  A    between atoms: C_29  and  N_67
REMARK   11  A    between atoms: C_33  and  C_36
REMARK                            x       y       z     vdW  Elec       q    Type
REMARK                         _______ _______ _______ _____ _____    ______ ____
ROOT
ATOM      1  N   UNL     1       2.403   1.106  -0.015  0.00  0.00    -0.245 N 
ATOM      2  C   UNL     1       2.415  -0.238   0.086  0.00  0.00    +0.268 A 
ATOM      3  O   UNL     1       1.374  -0.859   0.189  0.00  0.00    -0.267 OA
ATOM      4  C   UNL     1       3.708  -0.945   0.065  0.00  0.00    +0.064 A 
ATOM      5  C   UNL     1       3.775  -2.334   0.161  0.00  0.00    +0.015 A 
ATOM      6  C   UNL     1       5.003  -2.960   0.141  0.00  0.00    +0.001 A 
ATOM      7  C   UNL     1       6.167  -2.216   0.028  0.00  0.00    +0.002 A 
ATOM      8  C   UNL     1       6.115  -0.840  -0.068  0.00  0.00    +0.027 A 
ATOM      9  C   UNL     1       4.888  -0.193  -0.050  0.00  0.00    +0.064 A 
ATOM     10  N   UNL     1       4.809   1.194  -0.145  0.00  0.00    -0.256 N 
ATOM     11  C   UNL     1       3.586   1.827  -0.127  0.00  0.00    +0.243 A 
ATOM     12  N   UNL     1       3.786   3.113  -0.230  0.00  0.00    -0.133 NA
ATOM     13  N   UNL     1       5.166   3.335  -0.318  0.00  0.00    -0.255 N 
ATOM     14  C   UNL     1       5.772   2.132  -0.263  0.00  0.00    +0.182 A 
ATOM     15  S   UNL     1       7.459   1.846  -0.330  0.00  0.00    -0.011 S 
ENDROOT
BRANCH   1  19
ATOM     16  C   UNL     1      -1.237   3.133   0.030  0.00  0.00    -0.044 A 
ATOM     17  C   UNL     1      -0.696   2.714  -1.171  0.00  0.00    +0.006 A 
ATOM     18  C   UNL     1       0.508   2.037  -1.189  0.00  0.00    +0.026 A 
ATOM     19  C   UNL     1       1.180   1.787   0.000  0.00  0.00    +0.053 A 
ATOM     20  C   UNL     1       0.636   2.214   1.205  0.00  0.00    +0.026 A 
ATOM     21  C   UNL     1      -0.571   2.885   1.216  0.00  0.00    +0.006 A 
BRANCH  16  22
ATOM     22  C   UNL     1      -2.554   3.865   0.046  0.00  0.00    +0.016 C 
ATOM     23  C   UNL     1      -2.435   5.148  -0.779  0.00  0.00    +0.012 C 
BRANCH  22  25
ATOM     24  C   UNL     1      -5.000   3.665  -0.425  0.00  0.00    +0.004 C 
ATOM     25  C   UNL     1      -3.642   2.972  -0.554  0.00  0.00    +0.004 C 
ENDBRANCH  22  25
ENDBRANCH  16  22
ENDBRANCH   1  19
BRANCH  13  26
ATOM     26  C   UNL     1       5.829   4.635  -0.446  0.00  0.00    +0.072 C 
BRANCH  26  28
ATOM     27  C   UNL     1       4.884   5.479   1.617  0.00  0.00    -0.093 C 
ATOM     28  N   UNL     1       6.136   5.149   0.905  0.00  0.00    +0.394 N 
ATOM     29  H   UNL     1       6.638   4.424   1.431  0.00  0.00    -0.079 HD
BRANCH  28  30
ATOM     30  C   UNL     1       6.992   6.350   0.806  0.00  0.00    -0.041 C 
BRANCH  30  31
ATOM     31  C   UNL     1       7.470   6.722   2.186  0.00  0.00    -0.064 A 
ATOM     32  C   UNL     1       6.739   7.608   2.955  0.00  0.00    +0.002 A 
ATOM     33  C   UNL     1       7.175   7.946   4.223  0.00  0.00    +0.003 A 
ATOM     34  C   UNL     1       8.347   7.404   4.718  0.00  0.00    -0.050 A 
ATOM     35  C   UNL     1       9.080   6.521   3.947  0.00  0.00    +0.003 A 
ATOM     36  C   UNL     1       8.642   6.180   2.681  0.00  0.00    +0.002 A 
ATOM     37  C   UNL     1       8.824   7.775   6.098  0.00  0.00    +0.044 C 
ENDBRANCH  30  31
ENDBRANCH  28  30
ENDBRANCH  26  28
ENDBRANCH  13  26
TORSDOF 7
