REMARK  Name = ZINC36619346
REMARK  6 active torsions:
REMARK  status: ('A' for Active; 'I' for Inactive)
REMARK    1  A    between atoms: C_1  and  C_2
REMARK    2  A    between atoms: C_4  and  C_17
REMARK    3  A    between atoms: C_6  and  C_11
REMARK    4  A    between atoms: N_14  and  C_16
REMARK    5  A    between atoms: N_19  and  C_20
REMARK    6  A    between atoms: C_20  and  C_21
REMARK                            x       y       z     vdW  Elec       q    Type
REMARK                         _______ _______ _______ _____ _____    ______ ____
ROOT
ATOM      1  C   UNL     1      -1.637   1.321  -0.393  0.00  0.00    +0.070 C 
ATOM      2  C   UNL     1      -1.337  -0.155  -0.332  0.00  0.00    +0.091 A 
ATOM      3  C   UNL     1      -0.700  -0.953  -1.378  0.00  0.00    +0.076 A 
ATOM      4  C   UNL     1      -0.201  -0.659  -2.664  0.00  0.00    +0.053 A 
ATOM      5  C   UNL     1       0.354  -1.701  -3.401  0.00  0.00    +0.042 A 
ATOM      6  C   UNL     1       0.393  -2.982  -2.844  0.00  0.00    +0.079 A 
ATOM      7  N   UNL     1      -0.085  -3.223  -1.633  0.00  0.00    -0.210 NA
ATOM      8  C   UNL     1      -0.623  -2.268  -0.890  0.00  0.00    +0.260 A 
ATOM      9  O   UNL     1      -1.167  -2.261   0.344  0.00  0.00    -0.334 OA
ATOM     10  N   UNL     1      -1.592  -0.951   0.662  0.00  0.00    -0.080 NA
ENDROOT
BRANCH   6  11
ATOM     11  C   UNL     1       0.982  -4.095  -3.626  0.00  0.00    +0.038 A 
ATOM     12  C   UNL     1       1.536  -4.004  -4.919  0.00  0.00    +0.144 A 
ATOM     13  N   UNL     1       1.950  -5.193  -5.267  0.00  0.00    -0.179 NA
ATOM     14  N   UNL     1       1.679  -6.083  -4.221  0.00  0.00    -0.274 N 
ATOM     15  C   UNL     1       1.093  -5.396  -3.222  0.00  0.00    +0.118 A 
ATOM     16  C   UNL     1       1.987  -7.515  -4.211  0.00  0.00    +0.172 C 
ENDBRANCH   6  11
BRANCH   4  17
ATOM     17  C   UNL     1      -0.265   0.714  -3.213  0.00  0.00    +0.245 C 
ATOM     18  O   UNL     1      -0.115   1.670  -2.477  0.00  0.00    -0.270 OA
ATOM     19  N   UNL     1      -0.489   0.905  -4.528  0.00  0.00    -0.307 N 
ATOM     20  H   UNL     1      -0.608   0.142  -5.115  0.00  0.00    +0.149 HD
BRANCH  19  21
ATOM     21  C   UNL     1      -0.552   2.264  -5.071  0.00  0.00    +0.147 C 
BRANCH  21  22
ATOM     22  C   UNL     1      -0.811   2.201  -6.554  0.00  0.00    +0.007 A 
ATOM     23  C   UNL     1      -1.992   2.194  -7.214  0.00  0.00    +0.016 A 
ATOM     24  C   UNL     1      -2.014   2.131  -8.607  0.00  0.00    -0.037 A 
ATOM     25  C   UNL     1      -0.807   2.077  -9.232  0.00  0.00    -0.007 A 
ATOM     26  S   UNL     1       0.362   2.123  -7.899  0.00  0.00    -0.096 S 
ATOM     27  C   UNL     1      -0.544   2.002 -10.701  0.00  0.00    +0.043 C 
ATOM     28  C   UNL     1      -1.855   1.624 -11.407  0.00  0.00    +0.005 C 
ATOM     29  C   UNL     1      -2.979   2.511 -10.864  0.00  0.00    +0.005 C 
ATOM     30  C   UNL     1      -3.304   2.120  -9.422  0.00  0.00    +0.036 C 
ENDBRANCH  21  22
ENDBRANCH  19  21
ENDBRANCH   4  17
TORSDOF 4
