REMARK  Name = ZINC13270127
REMARK  11 active torsions:
REMARK  status: ('A' for Active; 'I' for Inactive)
REMARK    1  A    between atoms: C_1  and  C_2
REMARK    2  A    between atoms: C_2  and  C_3
REMARK    3  A    between atoms: C_2  and  N_4
REMARK    4  A    between atoms: N_4  and  S_5
REMARK    5  A    between atoms: S_5  and  C_8
REMARK    6  A    between atoms: C_8  and  C_9
REMARK    7  A    between atoms: C_14  and  C_15
REMARK    8  A    between atoms: C_15  and  N_16
REMARK    9  A    between atoms: N_16  and  S_17
REMARK   10  A    between atoms: S_17  and  C_20
REMARK   11  A    between atoms: C_22  and  C_28
REMARK                            x       y       z     vdW  Elec       q    Type
REMARK                         _______ _______ _______ _____ _____    ______ ____
ROOT
ATOM      1  C   UNL     1      -0.018   1.503   0.010  0.00  0.00    +0.141 C 
ENDROOT
BRANCH   1   7
ATOM      2  C   UNL     1       0.231  -0.699   1.175  0.00  0.00    -0.021 A 
ATOM      3  C   UNL     1       0.249  -2.081   1.167  0.00  0.00    +0.005 A 
ATOM      4  C   UNL     1       0.039  -2.768  -0.013  0.00  0.00    +0.000 A 
ATOM      5  C   UNL     1      -0.190  -2.074  -1.186  0.00  0.00    +0.000 A 
ATOM      6  C   UNL     1      -0.213  -0.692  -1.178  0.00  0.00    +0.005 A 
ATOM      7  C   UNL     1       0.002  -0.004   0.002  0.00  0.00    -0.027 A 
BRANCH   2   8
ATOM      8  C   UNL     1       0.459   0.051   2.462  0.00  0.00    +0.220 C 
BRANCH   8   9
ATOM      9  S   UNL     1      -1.130   0.327   3.292  0.00  0.00    +0.034 S 
ATOM     10  O   UNL     1      -1.925   1.233   2.538  0.00  0.00    -0.158 OA
ATOM     11  O   UNL     1      -1.670  -0.909   3.740  0.00  0.00    -0.158 OA
BRANCH   9  12
ATOM     12  N   UNL     1      -0.750   1.150   4.677  0.00  0.00    -0.192 NA
ATOM     13  H   UNL     1      -0.903   0.740   5.543  0.00  0.00    +0.148 HD
BRANCH  12  15
ATOM     14  C   UNL     1      -1.302   3.532   4.724  0.00  0.00    +0.025 C 
ATOM     15  C   UNL     1      -0.182   2.498   4.596  0.00  0.00    +0.070 C 
ATOM     16  C   UNL     1       0.827   2.695   5.730  0.00  0.00    +0.025 C 
ENDBRANCH  12  15
ENDBRANCH   9  12
ENDBRANCH   8   9
ENDBRANCH   2   8
ENDBRANCH   1   7
BRANCH   1  17
ATOM     17  N   UNL     1       1.356   2.010  -0.000  0.00  0.00    -0.186 NA
ATOM     18  H   UNL     1       2.094   1.415   0.207  0.00  0.00    +0.148 HD
BRANCH  17  19
ATOM     19  S   UNL     1       1.650   3.598  -0.366  0.00  0.00    +0.060 S 
ATOM     20  O   UNL     1       3.055   3.784  -0.267  0.00  0.00    -0.153 OA
ATOM     21  O   UNL     1       0.926   3.882  -1.555  0.00  0.00    -0.153 OA
BRANCH  19  22
ATOM     22  C   UNL     1       0.922   4.570   0.911  0.00  0.00    +0.124 A 
ATOM     23  C   UNL     1       1.722   5.327   1.740  0.00  0.00    +0.046 A 
ATOM     24  C   UNL     1       1.144   6.098   2.752  0.00  0.00    +0.083 A 
ATOM     25  C   UNL     1      -0.244   6.095   2.917  0.00  0.00    +0.057 A 
ATOM     26  C   UNL     1      -1.034   5.332   2.081  0.00  0.00    +0.042 A 
ATOM     27  C   UNL     1      -0.454   4.575   1.077  0.00  0.00    +0.069 A 
ATOM     28 CL   UNL     1      -1.454   3.623   0.025  0.00  0.00    -0.081 Cl
ATOM     29 CL   UNL     1      -0.973   7.048   4.172  0.00  0.00    -0.083 Cl
BRANCH  24  30
ATOM     30  C   UNL     1       1.995   6.911   3.641  0.00  0.00    +0.388 C 
ATOM     31  O   UNL     1       1.490   7.580   4.521  0.00  0.00    -0.241 OA
ATOM     32  O   UNL     1       3.333   6.912   3.479  0.00  0.00    -0.241 OA
ENDBRANCH  24  30
ENDBRANCH  19  22
ENDBRANCH  17  19
ENDBRANCH   1  17
TORSDOF 9
