REMARK  Name = ZINC18326701
REMARK  7 active torsions:
REMARK  status: ('A' for Active; 'I' for Inactive)
REMARK    1  A    between atoms: C_1  and  C_2
REMARK    2  A    between atoms: C_5  and  N_9
REMARK    3  A    between atoms: C_13  and  S_14
REMARK    4  A    between atoms: S_14  and  C_15
REMARK    5  A    between atoms: C_15  and  C_17
REMARK    6  A    between atoms: C_15  and  C_18
REMARK    7  A    between atoms: C_24  and  C_29
REMARK                            x       y       z     vdW  Elec       q    Type
REMARK                         _______ _______ _______ _____ _____    ______ ____
ROOT
ATOM      1  C   UNL     1      -0.729   1.579   1.267  0.00  0.00    +0.117 C 
ATOM      2  C   UNL     1      -0.013   1.086   0.008  0.00  0.00    +0.027 C 
ENDROOT
BRANCH   1   3
ATOM      3  C   UNL     1       0.000   1.080   2.488  0.00  0.00    +0.124 A 
ATOM      4  N   UNL     1      -0.413  -0.065   3.090  0.00  0.00    -0.309 N 
ATOM      5  H   UNL     1      -1.172  -0.546   2.726  0.00  0.00    +0.170 HD
ATOM      6  C   UNL     1       0.210  -0.544   4.182  0.00  0.00    +0.260 A 
ATOM      7  O   UNL     1      -0.172  -1.574   4.711  0.00  0.00    -0.267 OA
ATOM      8  C   UNL     1       1.330   0.172   4.713  0.00  0.00    +0.083 A 
ATOM      9  C   UNL     1       2.161  -0.140   5.871  0.00  0.00    +0.039 A 
ATOM     10  C   UNL     1       3.181   0.698   6.185  0.00  0.00    +0.059 A 
ATOM     11  S   UNL     1       3.078   1.962   4.932  0.00  0.00    -0.076 S 
ATOM     12  C   UNL     1       1.684   1.344   4.024  0.00  0.00    +0.116 A 
ATOM     13  N   UNL     1       1.022   1.753   2.945  0.00  0.00    -0.225 NA
BRANCH   9  14
ATOM     14  C   UNL     1       1.897  -1.344   6.684  0.00  0.00    +0.136 A 
ATOM     15  C   UNL     1       2.816  -2.278   7.049  0.00  0.00    +0.050 A 
ATOM     16  C   UNL     1       2.131  -3.243   7.817  0.00  0.00    +0.042 A 
ATOM     17  C   UNL     1       0.842  -2.859   7.875  0.00  0.00    +0.196 A 
ATOM     18  O   UNL     1       0.703  -1.711   7.190  0.00  0.00    -0.463 OA
ENDBRANCH   9  14
ENDBRANCH   1   3
BRANCH   1  19
ATOM     19  S   UNL     1      -0.753   3.389   1.277  0.00  0.00    -0.075 S 
BRANCH  19  24
ATOM     20  N   UNL     1      -2.138   4.911  -0.623  0.00  0.00    -0.277 N 
ATOM     21  C   UNL     1      -2.916   4.649  -1.720  0.00  0.00    +0.230 A 
ATOM     22  N   UNL     1      -2.983   3.353  -1.846  0.00  0.00    -0.137 NA
ATOM     23  N   UNL     1      -2.303   2.782  -0.917  0.00  0.00    -0.122 NA
ATOM     24  C   UNL     1      -1.766   3.689  -0.134  0.00  0.00    +0.197 A 
BRANCH  20  29
ATOM     25  C   UNL     1      -0.748  10.007   1.457  0.00  0.00    +0.045 C 
ATOM     26  C   UNL     1      -1.116   8.654   0.904  0.00  0.00    -0.032 A 
ATOM     27  C   UNL     1      -1.627   7.682   1.744  0.00  0.00    +0.007 A 
ATOM     28  C   UNL     1      -1.971   6.443   1.240  0.00  0.00    +0.026 A 
ATOM     29  C   UNL     1      -1.794   6.170  -0.110  0.00  0.00    +0.051 A 
ATOM     30  C   UNL     1      -1.281   7.147  -0.951  0.00  0.00    +0.046 A 
ATOM     31  C   UNL     1      -0.943   8.388  -0.442  0.00  0.00    +0.046 A 
ATOM     32 CL   UNL     1      -0.302   9.611  -1.493  0.00  0.00    -0.083 Cl
ENDBRANCH  20  29
ENDBRANCH  19  24
ENDBRANCH   1  19
TORSDOF 5
