REMARK  Name = ZINC12035394
REMARK  11 active torsions:
REMARK  status: ('A' for Active; 'I' for Inactive)
REMARK    1  A    between atoms: C_1  and  C_2
REMARK    2  A    between atoms: C_4  and  C_10
REMARK    3  A    between atoms: C_6  and  C_9
REMARK    4  A    between atoms: C_7  and  O_8
REMARK    5  A    between atoms: C_10  and  N_67
REMARK    6  A    between atoms: C_13  and  C_16
REMARK    7  A    between atoms: C_16  and  C_18
REMARK    8  A    between atoms: C_16  and  N_27
REMARK    9  A    between atoms: C_18  and  C_19
REMARK   10  A    between atoms: N_27  and  C_28
REMARK   11  A    between atoms: C_29  and  C_31
REMARK                            x       y       z     vdW  Elec       q    Type
REMARK                         _______ _______ _______ _____ _____    ______ ____
ROOT
ATOM      1  C   UNL     1      -3.899   2.581   5.253  0.00  0.00    +0.083 C 
ENDROOT
BRANCH   1   4
ATOM      2  C   UNL     1      -1.675   1.394   2.343  0.00  0.00    -0.078 C 
ATOM      3  C   UNL     1      -2.152   1.552   3.788  0.00  0.00    -0.013 C 
ATOM      4  C   UNL     1      -3.448   2.368   3.807  0.00  0.00    +0.006 C 
ATOM      5  C   UNL     1      -3.196   3.725   3.144  0.00  0.00    -0.013 C 
ATOM      6  C   UNL     1      -2.689   3.504   1.717  0.00  0.00    -0.078 C 
ATOM      7  N   UNL     1      -1.428   2.735   1.770  0.00  0.00    +0.382 N 
ATOM      8  H   UNL     1      -0.758   3.234   2.367  0.00  0.00    -0.081 HD
BRANCH   7   9
ATOM      9  C   UNL     1      -0.857   2.606   0.413  0.00  0.00    -0.043 C 
BRANCH   9  13
ATOM     10  C   UNL     1       2.148  -1.394   0.488  0.00  0.00    +0.047 C 
ATOM     11  C   UNL     1       1.962   0.100   0.555  0.00  0.00    -0.009 A 
ATOM     12  C   UNL     1       0.696   0.644   0.461  0.00  0.00    +0.008 A 
ATOM     13  C   UNL     1       0.525   2.015   0.522  0.00  0.00    -0.063 A 
ATOM     14  C   UNL     1       1.620   2.844   0.676  0.00  0.00    +0.008 A 
ATOM     15  C   UNL     1       2.889   2.305   0.770  0.00  0.00    -0.009 A 
ATOM     16  C   UNL     1       3.063   0.930   0.709  0.00  0.00    +0.123 A 
ATOM     17  C   UNL     1       4.082   3.210   0.938  0.00  0.00    +0.047 C 
BRANCH  16  18
ATOM     18  O   UNL     1       4.309   0.397   0.802  0.00  0.00    -0.506 OA
ATOM     19  H   UNL     1       4.756   0.292  -0.049  0.00  0.00    +0.292 HD
ENDBRANCH  16  18
ENDBRANCH   9  13
ENDBRANCH   7   9
ENDBRANCH   1   4
BRANCH   1  20
ATOM     20  N   UNL     1      -5.072   3.458   5.274  0.00  0.00    -0.294 N 
ATOM     21  C   UNL     1      -6.341   2.998   4.705  0.00  0.00    +0.132 C 
ATOM     22  C   UNL     1      -4.984   4.688   5.818  0.00  0.00    +0.282 C 
ATOM     23  O   UNL     1      -5.936   5.445   5.769  0.00  0.00    -0.267 OA
BRANCH  22  24
ATOM     24  C   UNL     1      -3.740   5.115   6.467  0.00  0.00    +0.189 A 
ATOM     25  C   UNL     1      -3.559   6.270   7.174  0.00  0.00    +0.054 A 
ATOM     26  C   UNL     1      -2.226   6.269   7.614  0.00  0.00    +0.042 A 
ATOM     27  C   UNL     1      -1.659   5.129   7.162  0.00  0.00    +0.196 A 
ATOM     28  O   UNL     1      -2.576   4.434   6.476  0.00  0.00    -0.458 OA
ENDBRANCH  22  24
ENDBRANCH   1  20
BRANCH   1  29
ATOM     29  C   UNL     1      -4.259   1.232   5.879  0.00  0.00    +0.060 C 
BRANCH  29  30
ATOM     30  C   UNL     1      -4.563   1.422   7.343  0.00  0.00    -0.010 A 
ATOM     31  C   UNL     1      -5.875   1.489   7.773  0.00  0.00    +0.009 A 
ATOM     32  C   UNL     1      -6.155   1.663   9.115  0.00  0.00    +0.039 A 
ATOM     33  C   UNL     1      -5.121   1.771  10.030  0.00  0.00    +0.126 A 
ATOM     34  C   UNL     1      -3.807   1.705   9.600  0.00  0.00    +0.077 A 
ATOM     35  C   UNL     1      -3.528   1.525   8.257  0.00  0.00    +0.129 A 
ATOM     36  F   UNL     1      -2.246   1.454   7.836  0.00  0.00    -0.205 F 
ATOM     37  F   UNL     1      -5.395   1.941  11.342  0.00  0.00    -0.205 F 
ENDBRANCH  29  30
ENDBRANCH   1  29
TORSDOF 8
