REMARK  Name = ZINC39686831
REMARK  9 active torsions:
REMARK  status: ('A' for Active; 'I' for Inactive)
REMARK    1  A    between atoms: C_1  and  C_2
REMARK    2  A    between atoms: C_2  and  C_4
REMARK    3  A    between atoms: C_2  and  N_12
REMARK    4  A    between atoms: C_4  and  C_5
REMARK    5  A    between atoms: C_13  and  C_15
REMARK    6  A    between atoms: C_26  and  C_28
REMARK    7  A    between atoms: C_33  and  O_34
REMARK    8  A    between atoms: O_34  and  C_35
REMARK    9  A    between atoms: C_35  and  C_37
REMARK                            x       y       z     vdW  Elec       q    Type
REMARK                         _______ _______ _______ _____ _____    ______ ____
ROOT
ATOM      1  C   UNL     1      -3.656  -1.666   1.248  0.00  0.00    +0.100 C 
ATOM      2  C   UNL     1      -4.441  -0.530   0.556  0.00  0.00    +0.121 C 
ATOM      3  N   UNL     1      -5.676  -0.383   1.363  0.00  0.00    -0.296 N 
ATOM      4  C   UNL     1      -5.222  -0.551   2.764  0.00  0.00    +0.115 C 
ATOM      5  C   UNL     1      -4.171  -1.676   2.698  0.00  0.00    -0.004 C 
ATOM      6  C   UNL     1      -3.028  -1.387   3.666  0.00  0.00    -0.010 C 
ATOM      7  C   UNL     1      -3.552  -1.460   5.103  0.00  0.00    -0.082 C 
ATOM      8  N   UNL     1      -4.109  -2.794   5.356  0.00  0.00    +0.379 N 
ATOM      9  C   UNL     1      -5.266  -3.027   4.484  0.00  0.00    -0.082 C 
ATOM     10  C   UNL     1      -4.815  -3.021   3.021  0.00  0.00    -0.010 C 
ATOM     11  C   UNL     1      -6.928  -0.149   0.922  0.00  0.00    +0.250 C 
ATOM     12  O   UNL     1      -7.828   0.035   1.718  0.00  0.00    -0.270 OA
ATOM     13  H   UNL     1      -3.404  -3.492   5.171  0.00  0.00    -0.086 HD
ATOM     14  H   UNL     1      -4.398  -2.859   6.321  0.00  0.00    -0.086 HD
ENDROOT
BRANCH  11  15
ATOM     15  C   UNL     1      -7.206  -0.117  -0.527  0.00  0.00    +0.079 A 
ATOM     16  C   UNL     1      -6.253   0.389  -1.414  0.00  0.00    +0.017 A 
ATOM     17  C   UNL     1      -6.518   0.416  -2.766  0.00  0.00    +0.001 A 
ATOM     18  C   UNL     1      -7.727  -0.056  -3.251  0.00  0.00    +0.004 A 
ATOM     19  C   UNL     1      -8.678  -0.558  -2.385  0.00  0.00    +0.047 A 
ATOM     20  C   UNL     1      -8.425  -0.598  -1.022  0.00  0.00    +0.144 A 
BRANCH  20  21
ATOM     21  O   UNL     1      -9.357  -1.096  -0.170  0.00  0.00    -0.425 OA
BRANCH  21  22
ATOM     22  C   UNL     1      -9.269  -2.391   0.174  0.00  0.00    +0.309 C 
ATOM     23  O   UNL     1      -8.329  -3.053  -0.199  0.00  0.00    -0.251 OA
ATOM     24  C   UNL     1     -10.342  -3.020   1.024  0.00  0.00    +0.136 C 
ENDBRANCH  21  22
ENDBRANCH  20  21
ENDBRANCH  11  15
BRANCH   1  26
ATOM     25  N   UNL     1      -1.293  -2.390   1.144  0.00  0.00    -0.312 N 
ATOM     26  C   UNL     1      -2.177  -1.376   1.219  0.00  0.00    +0.218 C 
ATOM     27  O   UNL     1      -1.784  -0.229   1.262  0.00  0.00    -0.275 OA
ATOM     28  H   UNL     1      -1.608  -3.307   1.109  0.00  0.00    +0.149 HD
BRANCH  25  30
ATOM     29  C   UNL     1       0.578  -1.817  -0.323  0.00  0.00    +0.028 C 
ATOM     30  C   UNL     1       0.144  -2.107   1.115  0.00  0.00    +0.074 C 
BRANCH  30  31
ATOM     31  C   UNL     1       0.913  -3.320   1.645  0.00  0.00    +0.060 C 
BRANCH  31  32
ATOM     32  C   UNL     1       0.578  -3.531   3.099  0.00  0.00    -0.010 A 
ATOM     33  C   UNL     1       1.389  -2.995   4.080  0.00  0.00    +0.006 A 
ATOM     34  C   UNL     1       1.082  -3.189   5.414  0.00  0.00    +0.000 A 
ATOM     35  C   UNL     1      -0.038  -3.919   5.767  0.00  0.00    +0.003 A 
ATOM     36  C   UNL     1      -0.851  -4.455   4.787  0.00  0.00    +0.038 A 
ATOM     37  C   UNL     1      -0.547  -4.257   3.451  0.00  0.00    +0.127 A 
ATOM     38  F   UNL     1      -1.344  -4.777   2.492  0.00  0.00    -0.205 F 
ENDBRANCH  31  32
ENDBRANCH  30  31
ENDBRANCH  25  30
ENDBRANCH   1  26
TORSDOF 7
