REMARK  Name = ZINC18125803
REMARK  9 active torsions:
REMARK  status: ('A' for Active; 'I' for Inactive)
REMARK    1  A    between atoms: C_1  and  C_2
REMARK    2  A    between atoms: C_2  and  C_3
REMARK    3  A    between atoms: C_2  and  C_4
REMARK    4  A    between atoms: C_2  and  C_5
REMARK    5  A    between atoms: C_8  and  C_22
REMARK    6  A    between atoms: N_14  and  C_16
REMARK    7  A    between atoms: C_22  and  N_23
REMARK    8  A    between atoms: N_23  and  C_24
REMARK    9  A    between atoms: C_24  and  C_25
REMARK                            x       y       z     vdW  Elec       q    Type
REMARK                         _______ _______ _______ _____ _____    ______ ____
ROOT
ATOM      1  C   UNL     1       0.707  -0.490  -1.238  0.00  0.00    +0.078 A 
ATOM      2  C   UNL     1       0.917  -1.843  -1.595  0.00  0.00    +0.041 A 
ATOM      3  C   UNL     1       0.578  -3.072  -0.985  0.00  0.00    +0.020 A 
ATOM      4  C   UNL     1       0.931  -4.234  -1.597  0.00  0.00    +0.001 A 
ATOM      5  C   UNL     1       1.624  -4.202  -2.821  0.00  0.00    +0.252 A 
ATOM      6  O   UNL     1       1.937  -5.249  -3.362  0.00  0.00    -0.268 OA
ATOM      7  N   UNL     1       1.946  -3.031  -3.401  0.00  0.00    -0.307 N 
ATOM      8  H   UNL     1       2.424  -3.028  -4.245  0.00  0.00    +0.170 HD
ATOM      9  C   UNL     1       1.605  -1.844  -2.811  0.00  0.00    +0.145 A 
ATOM     10  N   UNL     1       1.795  -0.544  -3.158  0.00  0.00    -0.216 N 
ATOM     11  N   UNL     1       1.224   0.264  -2.167  0.00  0.00    -0.168 NA
ENDROOT
BRANCH  10  12
ATOM     12  C   UNL     1       2.447  -0.090  -4.312  0.00  0.00    +0.068 A 
ATOM     13  C   UNL     1       3.527  -0.795  -4.824  0.00  0.00    +0.028 A 
ATOM     14  C   UNL     1       4.167  -0.345  -5.963  0.00  0.00    +0.002 A 
ATOM     15  C   UNL     1       3.733   0.807  -6.592  0.00  0.00    +0.000 A 
ATOM     16  C   UNL     1       2.657   1.512  -6.084  0.00  0.00    +0.002 A 
ATOM     17  C   UNL     1       2.009   1.064  -4.949  0.00  0.00    +0.028 A 
ENDBRANCH  10  12
BRANCH   1  19
ATOM     18  C   UNL     1      -0.019   1.526   0.010  0.00  0.00    +0.017 C 
ATOM     19  C   UNL     1       0.002  -0.004   0.002  0.00  0.00    +0.007 C 
ATOM     20  C   UNL     1       0.742  -0.511   1.242  0.00  0.00    +0.017 C 
ATOM     21  C   UNL     1      -1.433  -0.534   0.013  0.00  0.00    +0.017 C 
ENDBRANCH   1  19
BRANCH   4  22
ATOM     22  C   UNL     1       0.580  -5.555  -0.963  0.00  0.00    -0.041 C 
BRANCH  22  23
ATOM     23  N   UNL     1      -0.682  -6.050  -1.529  0.00  0.00    +0.384 N 
ATOM     24  H   UNL     1      -1.417  -5.383  -1.345  0.00  0.00    -0.085 HD
ATOM     25  H   UNL     1      -0.579  -6.171  -2.525  0.00  0.00    -0.085 HD
BRANCH  23  26
ATOM     26  C   UNL     1      -1.024  -7.338  -0.912  0.00  0.00    -0.046 C 
BRANCH  26  27
ATOM     27  C   UNL     1      -2.319  -7.845  -1.492  0.00  0.00    -0.061 A 
ATOM     28  C   UNL     1      -3.521  -7.500  -0.903  0.00  0.00    +0.005 A 
ATOM     29  C   UNL     1      -4.712  -7.962  -1.432  0.00  0.00    +0.050 A 
ATOM     30  C   UNL     1      -4.703  -8.774  -2.555  0.00  0.00    +0.166 A 
ATOM     31  C   UNL     1      -3.492  -9.122  -3.148  0.00  0.00    +0.166 A 
ATOM     32  C   UNL     1      -2.303  -8.650  -2.616  0.00  0.00    +0.051 A 
ATOM     33  O   UNL     1      -3.747  -9.919  -4.226  0.00  0.00    -0.453 OA
ATOM     34  C   UNL     1      -5.096 -10.389  -4.045  0.00  0.00    +0.466 C 
ATOM     35  O   UNL     1      -5.717  -9.353  -3.261  0.00  0.00    -0.453 OA
ENDBRANCH  26  27
ENDBRANCH  23  26
ENDBRANCH  22  23
ENDBRANCH   4  22
TORSDOF 6
