REMARK  Name = ZINC20246675
REMARK  6 active torsions:
REMARK  status: ('A' for Active; 'I' for Inactive)
REMARK    1  A    between atoms: C_4  and  N_8
REMARK    2  A    between atoms: C_5  and  N_7
REMARK    3  A    between atoms: N_8  and  C_9
REMARK    4  A    between atoms: C_9  and  C_10
REMARK    5  A    between atoms: C_10  and  N_11
REMARK    6  A    between atoms: C_15  and  C_18
REMARK                            x       y       z     vdW  Elec       q    Type
REMARK                         _______ _______ _______ _____ _____    ______ ____
ROOT
ATOM      1  C   UNL     1       6.069  -0.857  -0.064  0.00  0.00    +0.121 C 
ENDROOT
BRANCH   1   2
ATOM      2  N   UNL     1       7.324  -0.101  -0.073  0.00  0.00    -0.326 N 
ATOM      3  C   UNL     1       8.541  -0.773  -0.089  0.00  0.00    +0.137 A 
ATOM      4  C   UNL     1       9.730  -0.049  -0.091  0.00  0.00    +0.081 A 
ATOM      5  C   UNL     1      10.934  -0.732  -0.107  0.00  0.00    +0.037 A 
ATOM      6  C   UNL     1      10.908  -2.120  -0.120  0.00  0.00    +0.074 A 
ATOM      7  C   UNL     1       9.692  -2.774  -0.116  0.00  0.00    +0.125 A 
ATOM      8  N   UNL     1       8.559  -2.097  -0.096  0.00  0.00    -0.238 NA
ATOM      9 CL   UNL     1       9.703   1.687  -0.076  0.00  0.00    -0.080 Cl
ATOM     10  H   UNL     1       7.306   0.869  -0.067  0.00  0.00    +0.148 HD
BRANCH   6  11
ATOM     11  C   UNL     1      12.194  -2.905  -0.138  0.00  0.00    +0.419 C 
ATOM     12  F   UNL     1      12.602  -3.161   1.176  0.00  0.00    -0.166 F 
ATOM     13  F   UNL     1      11.991  -4.117  -0.807  0.00  0.00    -0.166 F 
ATOM     14  F   UNL     1      13.182  -2.167  -0.798  0.00  0.00    -0.166 F 
ENDBRANCH   6  11
ENDBRANCH   1   2
BRANCH   1  15
ATOM     15  C   UNL     1       4.888   0.116  -0.046  0.00  0.00    +0.120 C 
BRANCH  15  16
ATOM     16  N   UNL     1       3.633  -0.640  -0.037  0.00  0.00    -0.341 N 
ATOM     17  H   UNL     1       3.651  -1.610  -0.043  0.00  0.00    +0.146 HD
BRANCH  16  21
ATOM     18  C   UNL     1      -0.017   1.379   0.010  0.00  0.00    +0.002 A 
ATOM     19  C   UNL     1       1.169   2.090   0.002  0.00  0.00    +0.002 A 
ATOM     20  C   UNL     1       2.380   1.423  -0.013  0.00  0.00    +0.025 A 
ATOM     21  C   UNL     1       2.408   0.037  -0.021  0.00  0.00    +0.048 A 
ATOM     22  C   UNL     1       1.212  -0.681  -0.013  0.00  0.00    +0.046 A 
ATOM     23  C   UNL     1       0.002  -0.004   0.002  0.00  0.00    +0.024 A 
BRANCH  22  24
ATOM     24  N   UNL     1       1.234  -2.081  -0.021  0.00  0.00    -0.357 N 
ATOM     25  H   UNL     1       2.081  -2.553  -0.033  0.00  0.00    +0.142 HD
ATOM     26  H   UNL     1       0.401  -2.579  -0.016  0.00  0.00    +0.142 HD
ENDBRANCH  22  24
ENDBRANCH  16  21
ENDBRANCH  15  16
ENDBRANCH   1  15
TORSDOF 6
