REMARK  Name = ZINC20510071
REMARK  11 active torsions:
REMARK  status: ('A' for Active; 'I' for Inactive)
REMARK    1  A    between atoms: C_1  and  C_2
REMARK    2  A    between atoms: C_2  and  C_3
REMARK    3  A    between atoms: C_3  and  C_5
REMARK    4  A    between atoms: C_3  and  N_6
REMARK    5  A    between atoms: N_6  and  C_7
REMARK    6  A    between atoms: N_6  and  C_26
REMARK    7  A    between atoms: C_7  and  C_8
REMARK    8  A    between atoms: C_8  and  N_9
REMARK    9  A    between atoms: C_10  and  C_12
REMARK   10  A    between atoms: C_19  and  C_25
REMARK   11  A    between atoms: C_26  and  C_27
REMARK                            x       y       z     vdW  Elec       q    Type
REMARK                         _______ _______ _______ _____ _____    ______ ____
ROOT
ATOM      1  N   UNL     1       3.324   7.019   3.720  0.00  0.00    -0.312 N 
ATOM      2  C   UNL     1       3.491   7.519   4.960  0.00  0.00    +0.266 C 
ATOM      3  O   UNL     1       3.341   6.802   5.929  0.00  0.00    -0.268 OA
ATOM      4  H   UNL     1       3.460   7.668   2.842  0.00  0.00    +0.149 HD
ENDROOT
BRANCH   2   5
ATOM      5  C   UNL     1       3.860   8.944   5.141  0.00  0.00    +0.175 A 
ATOM      6  C   UNL     1       4.069   9.611   6.351  0.00  0.00    +0.069 A 
ATOM      7  C   UNL     1       4.389  10.902   5.975  0.00  0.00    +0.178 A 
ATOM      8  O   UNL     1       4.351  10.930   4.653  0.00  0.00    -0.353 OA
ATOM      9  N   UNL     1       4.062   9.839   4.194  0.00  0.00    -0.073 NA
ATOM     10  C   UNL     1       4.684  11.893   7.022  0.00  0.00    +0.062 A 
ATOM     11  C   UNL     1       4.765  13.254   6.771  0.00  0.00    +0.018 A 
ATOM     12  C   UNL     1       5.030  14.124   7.811  0.00  0.00    -0.050 A 
ATOM     13  C   UNL     1       5.212  13.637   9.094  0.00  0.00    +0.007 A 
ATOM     14  C   UNL     1       5.141  12.281   9.352  0.00  0.00    +0.046 A 
ATOM     15  C   UNL     1       4.884  11.389   8.323  0.00  0.00    +0.132 A 
ATOM     16  O   UNL     1       4.855  10.056   8.560  0.00  0.00    -0.486 OA
ATOM     17  C   UNL     1       4.005   9.199   7.789  0.00  0.00    +0.270 C 
ATOM     18  C   UNL     1       5.120  15.606   7.549  0.00  0.00    +0.044 C 
ENDBRANCH   2   5
BRANCH   1  19
ATOM     19  C   UNL     1       2.959   5.611   3.541  0.00  0.00    +0.086 C 
BRANCH  19  20
ATOM     20  C   UNL     1       2.832   5.303   2.047  0.00  0.00    -0.059 C 
BRANCH  20  21
ATOM     21  N   UNL     1       2.346   3.928   1.871  0.00  0.00    +0.387 N 
ATOM     22  H   UNL     1       1.504   3.776   2.561  0.00  0.00    -0.081 HD
BRANCH  21  23
ATOM     23  C   UNL     1       3.390   2.953   2.210  0.00  0.00    -0.071 C 
ATOM     24  C   UNL     1       2.739   1.655   2.691  0.00  0.00    -0.013 C 
BRANCH  23  26
ATOM     25  C   UNL     1       4.936   3.955   0.522  0.00  0.00    +0.002 C 
ATOM     26  C   UNL     1       4.243   2.667   0.973  0.00  0.00    -0.019 C 
ENDBRANCH  23  26
ENDBRANCH  21  23
BRANCH  21  27
ATOM     27  C   UNL     1       1.852   3.716   0.503  0.00  0.00    -0.003 C 
BRANCH  27  28
ATOM     28  C   UNL     1       0.959   2.503   0.474  0.00  0.00    +0.089 A 
ATOM     29  C   UNL     1      -0.345   2.478   0.803  0.00  0.00    +0.042 A 
ATOM     30  C   UNL     1      -0.785   1.145   0.632  0.00  0.00    +0.041 A 
ATOM     31  C   UNL     1       0.276   0.436   0.209  0.00  0.00    +0.195 A 
ATOM     32  O   UNL     1       1.330   1.263   0.116  0.00  0.00    -0.470 OA
ENDBRANCH  27  28
ENDBRANCH  21  27
ENDBRANCH  20  21
ENDBRANCH  19  20
ENDBRANCH   1  19
TORSDOF 8
