REMARK  Name = ZINC35789046
REMARK  15 active torsions:
REMARK  status: ('A' for Active; 'I' for Inactive)
REMARK    1  A    between atoms: C_1  and  C_2
REMARK    2  A    between atoms: C_5  and  O_8
REMARK    3  A    between atoms: O_8  and  C_9
REMARK    4  A    between atoms: C_10  and  C_21
REMARK    5  A    between atoms: C_11  and  C_20
REMARK    6  A    between atoms: N_13  and  C_14
REMARK    7  A    between atoms: C_21  and  N_22
REMARK    8  A    between atoms: N_22  and  C_23
REMARK    9  A    between atoms: N_22  and  C_27
REMARK   10  A    between atoms: C_23  and  C_24
REMARK   11  A    between atoms: C_27  and  C_28
REMARK   12  A    between atoms: C_28  and  C_30
REMARK   13  A    between atoms: C_28  and  O_38
REMARK   14  A    between atoms: C_30  and  O_31
REMARK   15  A    between atoms: O_31  and  C_32
REMARK                            x       y       z     vdW  Elec       q    Type
REMARK                         _______ _______ _______ _____ _____    ______ ____
ROOT
ATOM      1  C   UNL     1       0.775  -4.531   1.294  0.00  0.00    +0.225 A 
ATOM      2  C   UNL     1       0.443  -5.836   1.481  0.00  0.00    +0.021 A 
ATOM      3  C   UNL     1       0.157  -6.016   2.837  0.00  0.00    +0.065 A 
ATOM      4  N   UNL     1       0.309  -4.870   3.449  0.00  0.00    -0.168 NA
ATOM      5  N   UNL     1       0.704  -3.914   2.504  0.00  0.00    -0.200 N 
ATOM      6  C   UNL     1      -0.258  -7.312   3.486  0.00  0.00    +0.068 C 
ENDROOT
BRANCH   5   7
ATOM      7  C   UNL     1       0.975  -2.563   2.760  0.00  0.00    +0.069 A 
ATOM      8  C   UNL     1       2.050  -1.940   2.140  0.00  0.00    +0.028 A 
ATOM      9  C   UNL     1       2.315  -0.608   2.394  0.00  0.00    +0.002 A 
ATOM     10  C   UNL     1       1.510   0.105   3.264  0.00  0.00    +0.000 A 
ATOM     11  C   UNL     1       0.439  -0.513   3.882  0.00  0.00    +0.002 A 
ATOM     12  C   UNL     1       0.166  -1.843   3.628  0.00  0.00    +0.028 A 
ENDBRANCH   5   7
BRANCH   1  13
ATOM     13  O   UNL     1       1.121  -3.951   0.116  0.00  0.00    -0.438 OA
BRANCH  13  18
ATOM     14  C   UNL     1      -2.935  -1.460  -2.894  0.00  0.00    +0.044 C 
ATOM     15  C   UNL     1      -1.850  -2.126  -2.089  0.00  0.00    -0.050 A 
ATOM     16  C   UNL     1      -0.533  -2.042  -2.502  0.00  0.00    +0.007 A 
ATOM     17  C   UNL     1       0.463  -2.652  -1.765  0.00  0.00    +0.046 A 
ATOM     18  C   UNL     1       0.142  -3.350  -0.610  0.00  0.00    +0.130 A 
ATOM     19  C   UNL     1      -1.180  -3.433  -0.197  0.00  0.00    +0.046 A 
ATOM     20  C   UNL     1      -2.172  -2.816  -0.935  0.00  0.00    +0.007 A 
ENDBRANCH  13  18
ENDBRANCH   1  13
BRANCH   2  21
ATOM     21  C   UNL     1       0.391  -6.899   0.414  0.00  0.00    -0.036 C 
BRANCH  21  22
ATOM     22  N   UNL     1       1.740  -7.438   0.194  0.00  0.00    +0.384 N 
ATOM     23  H   UNL     1       2.375  -6.681  -0.009  0.00  0.00    -0.081 HD
BRANCH  22  24
ATOM     24  C   UNL     1       1.715  -8.374  -0.938  0.00  0.00    -0.075 C 
BRANCH  24  25
ATOM     25  C   UNL     1       1.364  -7.615  -2.219  0.00  0.00    -0.028 C 
ATOM     26  C   UNL     1       0.054  -7.981  -2.920  0.00  0.00    +0.002 C 
ATOM     27  C   UNL     1       1.393  -8.398  -3.534  0.00  0.00    +0.002 C 
ENDBRANCH  24  25
ENDBRANCH  22  24
BRANCH  22  28
ATOM     28  C   UNL     1       2.189  -8.143   1.402  0.00  0.00    -0.043 C 
BRANCH  28  29
ATOM     29  C   UNL     1       3.639  -8.595   1.220  0.00  0.00    +0.135 C 
BRANCH  29  30
ATOM     30  O   UNL     1       4.486  -7.450   1.113  0.00  0.00    -0.390 OA
ATOM     31  H   UNL     1       4.464  -6.871   1.887  0.00  0.00    +0.210 HD
ENDBRANCH  29  30
BRANCH  29  32
ATOM     32  C   UNL     1       4.067  -9.436   2.424  0.00  0.00    +0.258 C 
BRANCH  32  33
ATOM     33  O   UNL     1       5.379  -9.956   2.201  0.00  0.00    -0.489 OA
BRANCH  33  34
ATOM     34  C   UNL     1       5.912 -10.730   3.183  0.00  0.00    +0.121 A 
ATOM     35  C   UNL     1       5.184 -10.989   4.335  0.00  0.00    +0.045 A 
ATOM     36  C   UNL     1       5.727 -11.776   5.331  0.00  0.00    +0.004 A 
ATOM     37  C   UNL     1       6.995 -12.306   5.181  0.00  0.00    +0.000 A 
ATOM     38  C   UNL     1       7.723 -12.049   4.034  0.00  0.00    +0.004 A 
ATOM     39  C   UNL     1       7.182 -11.267   3.032  0.00  0.00    +0.045 A 
ENDBRANCH  33  34
ENDBRANCH  32  33
ENDBRANCH  29  32
ENDBRANCH  28  29
ENDBRANCH  22  28
ENDBRANCH  21  22
ENDBRANCH   2  21
TORSDOF 13
