REMARK  Name = ZINC37731875
REMARK  7 active torsions:
REMARK  status: ('A' for Active; 'I' for Inactive)
REMARK    1  A    between atoms: C_1  and  C_2
REMARK    2  A    between atoms: C_3  and  C_22
REMARK    3  A    between atoms: C_5  and  N_9
REMARK    4  A    between atoms: C_6  and  C_7
REMARK    5  A    between atoms: N_9  and  S_10
REMARK    6  A    between atoms: S_10  and  C_13
REMARK    7  A    between atoms: C_14  and  C_19
REMARK                            x       y       z     vdW  Elec       q    Type
REMARK                         _______ _______ _______ _____ _____    ______ ____
ROOT
ATOM      1  S   UNL     1       0.075  -4.724   1.685  0.00  0.00    +0.110 S 
ATOM      2  O   UNL     1      -1.169  -5.005   1.059  0.00  0.00    -0.147 OA
ATOM      3  O   UNL     1       1.321  -4.970   1.048  0.00  0.00    -0.147 OA
ENDROOT
BRANCH   1   4
ATOM      4  C   UNL     1       0.095  -5.631   3.196  0.00  0.00    +0.209 A 
ATOM      5  C   UNL     1       1.107  -5.631   4.138  0.00  0.00    +0.127 A 
ATOM      6  C   UNL     1       0.703  -6.495   5.183  0.00  0.00    +0.151 A 
ATOM      7  N   UNL     1      -0.471  -6.974   4.878  0.00  0.00    -0.180 NA
ATOM      8  N   UNL     1      -0.872  -6.445   3.646  0.00  0.00    -0.259 N 
ATOM      9  H   UNL     1      -1.708  -6.636   3.193  0.00  0.00    +0.190 HD
BRANCH   5  10
ATOM     10  C   UNL     1       2.366  -4.875   4.067  0.00  0.00    +0.391 C 
ATOM     11  O   UNL     1       3.184  -4.963   4.973  0.00  0.00    -0.240 OA
ATOM     12  O   UNL     1       2.596  -4.159   3.102  0.00  0.00    -0.240 OA
ENDBRANCH   5  10
ENDBRANCH   1   4
BRANCH   1  13
ATOM     13  N   UNL     1       0.054  -3.116   2.080  0.00  0.00    -0.088 NA
BRANCH  13  18
ATOM     14  C   UNL     1      -0.018   1.503   0.010  0.00  0.00    +0.046 C 
ATOM     15  C   UNL     1       0.002  -0.004   0.002  0.00  0.00    -0.021 A 
ATOM     16  C   UNL     1       0.006  -0.712  -1.142  0.00  0.00    -0.007 A 
ATOM     17  S   UNL     1       0.032  -2.400  -0.579  0.00  0.00    -0.074 S 
ATOM     18  C   UNL     1       0.037  -2.159   1.081  0.00  0.00    +0.129 A 
ATOM     19  C   UNL     1       0.025  -0.778   1.223  0.00  0.00    +0.087 A 
ATOM     20  C   UNL     1      -0.008  -0.200  -2.559  0.00  0.00    +0.052 C 
BRANCH  19  21
ATOM     21  C   UNL     1       0.029  -0.153   2.511  0.00  0.00    +0.102 C 
ATOM     22  N   UNL     1       0.033   0.343   3.533  0.00  0.00    -0.191 NA
ENDBRANCH  19  21
ENDBRANCH  13  18
ENDBRANCH   1  13
TORSDOF 5
