REMARK  Name = ZINC27662244
REMARK  8 active torsions:
REMARK  status: ('A' for Active; 'I' for Inactive)
REMARK    1  A    between atoms: C_1  and  C_2
REMARK    2  A    between atoms: C_10  and  C_11
REMARK    3  A    between atoms: N_13  and  C_14
REMARK    4  A    between atoms: C_14  and  C_15
REMARK    5  A    between atoms: C_15  and  C_17
REMARK    6  A    between atoms: C_15  and  N_25
REMARK    7  A    between atoms: C_20  and  O_23
REMARK    8  A    between atoms: O_23  and  C_24
REMARK                            x       y       z     vdW  Elec       q    Type
REMARK                         _______ _______ _______ _____ _____    ______ ____
ROOT
ATOM      1  C   UNL     1       1.849   2.176  -1.337  0.00  0.00    -0.020 C 
ENDROOT
BRANCH   1   2
ATOM      2  N   UNL     1       0.909   1.827  -0.264  0.00  0.00    +0.385 N 
ATOM      3  C   UNL     1      -0.082   2.906  -0.055  0.00  0.00    -0.078 C 
ATOM      4  C   UNL     1      -1.257   2.810  -0.990  0.00  0.00    -0.019 C 
ATOM      5  C   UNL     1      -2.380   2.022  -0.284  0.00  0.00    -0.002 C 
ATOM      6  C   UNL     1      -2.142   0.583  -0.306  0.00  0.00    -0.002 C 
ATOM      7  C   UNL     1      -0.839   0.197   0.423  0.00  0.00    -0.019 C 
ATOM      8  C   UNL     1       0.322   0.487  -0.489  0.00  0.00    -0.078 C 
ATOM      9  H   UNL     1       1.463   1.749   0.683  0.00  0.00    -0.081 HD
ENDBRANCH   1   2
BRANCH   1  10
ATOM     10  C   UNL     1       2.232   0.931  -2.095  0.00  0.00    -0.059 A 
ATOM     11  C   UNL     1       2.900  -0.092  -1.450  0.00  0.00    +0.005 A 
ATOM     12  C   UNL     1       3.246  -1.237  -2.141  0.00  0.00    +0.046 A 
ATOM     13  C   UNL     1       2.934  -1.353  -3.488  0.00  0.00    +0.120 A 
ATOM     14  C   UNL     1       2.269  -0.322  -4.135  0.00  0.00    +0.046 A 
ATOM     15  C   UNL     1       1.919   0.818  -3.437  0.00  0.00    +0.005 A 
BRANCH  13  16
ATOM     16  O   UNL     1       3.279  -2.476  -4.172  0.00  0.00    -0.495 OA
ATOM     17  C   UNL     1       3.963  -3.496  -3.442  0.00  0.00    +0.277 C 
ENDBRANCH  13  16
ENDBRANCH   1  10
BRANCH   1  18
ATOM     18  C   UNL     1       3.103   2.809  -0.730  0.00  0.00    +0.094 C 
BRANCH  18  21
ATOM     19  C   UNL     1       3.659   4.697   0.706  0.00  0.00    +0.280 C 
ATOM     20  O   UNL     1       4.796   4.271   0.778  0.00  0.00    -0.267 OA
ATOM     21  N   UNL     1       2.737   4.039  -0.023  0.00  0.00    -0.310 N 
ATOM     22  H   UNL     1       1.709   4.425  -0.088  0.00  0.00    +0.149 HD
BRANCH  19  32
ATOM     23  C   UNL     1       5.587   6.395   2.460  0.00  0.00    +0.048 C 
ATOM     24  C   UNL     1       4.132   6.673   2.180  0.00  0.00    +0.008 A 
ATOM     25  C   UNL     1       3.342   7.799   2.677  0.00  0.00    +0.025 A 
ATOM     26  C   UNL     1       3.618   8.896   3.496  0.00  0.00    +0.027 A 
ATOM     27  C   UNL     1       2.627   9.793   3.784  0.00  0.00    +0.019 A 
ATOM     28  C   UNL     1       1.349   9.619   3.268  0.00  0.00    +0.019 A 
ATOM     29  C   UNL     1       1.057   8.543   2.458  0.00  0.00    +0.048 A 
ATOM     30  C   UNL     1       2.049   7.618   2.151  0.00  0.00    +0.136 A 
ATOM     31  O   UNL     1       2.065   6.495   1.407  0.00  0.00    -0.450 OA
ATOM     32  C   UNL     1       3.291   5.931   1.415  0.00  0.00    +0.193 A 
ATOM     33 BR   UNL     1       2.998  11.279   4.893  0.00  0.00    -0.050 Br
ENDBRANCH  19  32
ENDBRANCH  18  21
ENDBRANCH   1  18
TORSDOF 6
