REMARK  Name = ZINC21257703
REMARK  11 active torsions:
REMARK  status: ('A' for Active; 'I' for Inactive)
REMARK    1  A    between atoms: C_1  and  C_2
REMARK    2  A    between atoms: C_2  and  O_3
REMARK    3  A    between atoms: O_3  and  C_4
REMARK    4  A    between atoms: C_7  and  C_12
REMARK    5  A    between atoms: C_9  and  O_10
REMARK    6  A    between atoms: O_10  and  C_11
REMARK    7  A    between atoms: C_17  and  C_22
REMARK    8  A    between atoms: C_25  and  O_30
REMARK    9  A    between atoms: C_26  and  O_28
REMARK   10  A    between atoms: O_28  and  C_29
REMARK   11  A    between atoms: O_30  and  C_31
REMARK                            x       y       z     vdW  Elec       q    Type
REMARK                         _______ _______ _______ _____ _____    ______ ____
ROOT
ATOM      1  C   UNL     1       2.280   0.454   3.589  0.00  0.00    +0.136 C 
ATOM      2  C   UNL     1       1.556   0.858   2.326  0.00  0.00    +0.036 C 
ATOM      3  C   UNL     1       0.237   1.083   2.211  0.00  0.00    +0.017 C 
ATOM      4  C   UNL     1      -0.357   1.509   0.879  0.00  0.00    +0.059 C 
ATOM      5  C   UNL     1       0.429   0.877  -0.268  0.00  0.00    +0.032 C 
ATOM      6  C   UNL     1       1.881   1.355  -0.158  0.00  0.00    +0.088 C 
ATOM      7  C   UNL     1       2.403   0.991   1.200  0.00  0.00    +0.163 C 
ATOM      8  O   UNL     1       3.596   0.803   1.338  0.00  0.00    -0.292 OA
ATOM      9  N   UNL     1      -0.662   0.964   3.221  0.00  0.00    -0.316 N 
ATOM     10  C   UNL     1      -0.493   1.486   4.498  0.00  0.00    +0.052 A 
ATOM     11  C   UNL     1      -1.311   2.481   5.005  0.00  0.00    +0.025 A 
ATOM     12  C   UNL     1      -1.117   2.924   6.302  0.00  0.00    +0.002 A 
ATOM     13  C   UNL     1      -0.117   2.377   7.084  0.00  0.00    +0.002 A 
ATOM     14  C   UNL     1       0.714   1.394   6.573  0.00  0.00    +0.025 A 
ATOM     15  C   UNL     1       0.535   0.963   5.268  0.00  0.00    +0.049 A 
ATOM     16  N   UNL     1       1.411   0.055   4.676  0.00  0.00    -0.331 N 
ATOM     17  H   UNL     1      -1.605   0.422   3.057  0.00  0.00    +0.152 HD
ATOM     18  H   UNL     1       1.436  -0.980   5.048  0.00  0.00    +0.147 HD
ENDROOT
BRANCH   1  22
ATOM     19  C   UNL     1       4.657   3.759   4.901  0.00  0.00    +0.162 A 
ATOM     20  C   UNL     1       3.277   3.870   4.853  0.00  0.00    +0.050 A 
ATOM     21  C   UNL     1       2.511   2.800   4.428  0.00  0.00    +0.009 A 
ATOM     22  C   UNL     1       3.120   1.617   4.051  0.00  0.00    -0.019 A 
ATOM     23  C   UNL     1       4.496   1.498   4.101  0.00  0.00    +0.055 A 
ATOM     24  C   UNL     1       5.270   2.568   4.521  0.00  0.00    +0.162 A 
BRANCH  24  25
ATOM     25  O   UNL     1       6.624   2.454   4.566  0.00  0.00    -0.491 OA
ATOM     26  C   UNL     1       7.183   1.202   4.161  0.00  0.00    +0.277 C 
ENDBRANCH  24  25
BRANCH  19  27
ATOM     27  O   UNL     1       5.412   4.810   5.318  0.00  0.00    -0.489 OA
BRANCH  27  29
ATOM     28  C   UNL     1       5.723   7.064   6.131  0.00  0.00    +0.048 C 
ATOM     29  C   UNL     1       4.715   6.000   5.693  0.00  0.00    +0.226 C 
ENDBRANCH  27  29
ENDBRANCH  19  27
ENDBRANCH   1  22
BRANCH   5  30
ATOM     30  C   UNL     1      -0.153   1.311  -1.588  0.00  0.00    -0.040 A 
ATOM     31  C   UNL     1      -0.208   2.654  -1.909  0.00  0.00    +0.008 A 
ATOM     32  C   UNL     1      -0.742   3.058  -3.119  0.00  0.00    +0.049 A 
ATOM     33  C   UNL     1      -1.221   2.115  -4.014  0.00  0.00    +0.161 A 
ATOM     34  C   UNL     1      -1.165   0.762  -3.691  0.00  0.00    +0.162 A 
ATOM     35  C   UNL     1      -0.625   0.364  -2.478  0.00  0.00    +0.053 A 
BRANCH  34  36
ATOM     36  O   UNL     1      -1.635  -0.167  -4.566  0.00  0.00    -0.491 OA
ATOM     37  C   UNL     1      -1.545  -1.537  -4.167  0.00  0.00    +0.277 C 
ENDBRANCH  34  36
BRANCH  33  38
ATOM     38  O   UNL     1      -1.746   2.510  -5.205  0.00  0.00    -0.491 OA
ATOM     39  C   UNL     1      -1.770   3.914  -5.469  0.00  0.00    +0.277 C 
ENDBRANCH  33  38
ENDBRANCH   5  30
TORSDOF 7
