REMARK  Name = ZINC03129124
REMARK  8 active torsions:
REMARK  status: ('A' for Active; 'I' for Inactive)
REMARK    1  A    between atoms: C_1  and  N_2
REMARK    2  A    between atoms: N_2  and  C_3
REMARK    3  A    between atoms: N_2  and  C_16
REMARK    4  A    between atoms: C_3  and  C_4
REMARK    5  A    between atoms: C_4  and  O_5
REMARK    6  A    between atoms: O_5  and  C_6
REMARK    7  A    between atoms: C_6  and  C_8
REMARK    8  A    between atoms: C_18  and  C_25
REMARK                            x       y       z     vdW  Elec       q    Type
REMARK                         _______ _______ _______ _____ _____    ______ ____
ROOT
ATOM      1  C   UNL     1       2.756  -3.696   1.135  0.00  0.00    +0.129 C 
ATOM      2  N   UNL     1       2.573  -2.810  -0.022  0.00  0.00    -0.329 N 
ENDROOT
BRANCH   2   3
ATOM      3  C   UNL     1       1.428  -2.040   0.118  0.00  0.00    +0.041 A 
ATOM      4  C   UNL     1       0.173  -2.626   0.160  0.00  0.00    +0.054 A 
ATOM      5  C   UNL     1      -0.954  -1.829   0.301  0.00  0.00    +0.122 A 
ATOM      6  C   UNL     1       0.307   0.111   0.363  0.00  0.00    +0.049 A 
ATOM      7  C   UNL     1       1.504  -0.631   0.222  0.00  0.00    +0.019 A 
ATOM      8  C   UNL     1       2.736   0.038   0.187  0.00  0.00    +0.012 A 
ATOM      9  C   UNL     1       2.768   1.396   0.290  0.00  0.00    +0.001 A 
ATOM     10  C   UNL     1       1.592   2.129   0.429  0.00  0.00    +0.002 A 
ATOM     11  C   UNL     1       0.380   1.511   0.467  0.00  0.00    +0.026 A 
ATOM     12  N   UNL     1      -0.938  -0.480   0.405  0.00  0.00    -0.351 N 
ATOM     13  H   UNL     1      -1.799   0.070   0.508  0.00  0.00    +0.166 HD
BRANCH   5  14
ATOM     14  C   UNL     1      -2.312  -2.481   0.345  0.00  0.00    +0.432 C 
ATOM     15  F   UNL     1      -3.303  -1.494   0.375  0.00  0.00    -0.164 F 
ATOM     16  F   UNL     1      -2.483  -3.279  -0.791  0.00  0.00    -0.164 F 
ATOM     17  F   UNL     1      -2.411  -3.276   1.492  0.00  0.00    -0.164 F 
ENDBRANCH   5  14
ENDBRANCH   2   3
BRANCH   2  18
ATOM     18  C   UNL     1       2.541  -3.579  -1.273  0.00  0.00    +0.146 C 
BRANCH  18  19
ATOM     19  C   UNL     1       2.840  -2.649  -2.451  0.00  0.00    +0.251 C 
BRANCH  19  20
ATOM     20  O   UNL     1       4.201  -2.154  -2.344  0.00  0.00    -0.460 OA
BRANCH  20  21
ATOM     21  C   UNL     1       4.625  -1.317  -3.310  0.00  0.00    +0.341 C 
ATOM     22  O   UNL     1       3.878  -1.008  -4.217  0.00  0.00    -0.245 OA
BRANCH  21  23
ATOM     23  C   UNL     1       5.997  -0.775  -3.267  0.00  0.00    +0.077 A 
ATOM     24  C   UNL     1       6.859  -1.128  -2.225  0.00  0.00    +0.018 A 
ATOM     25  C   UNL     1       8.139  -0.619  -2.190  0.00  0.00    +0.021 A 
ATOM     26  C   UNL     1       8.573   0.242  -3.185  0.00  0.00    +0.042 A 
ATOM     27  C   UNL     1       7.726   0.597  -4.221  0.00  0.00    +0.040 A 
ATOM     28  C   UNL     1       6.442   0.090  -4.271  0.00  0.00    +0.056 A 
ATOM     29 CL   UNL     1       5.383   0.530  -5.574  0.00  0.00    -0.083 Cl
ATOM     30 CL   UNL     1      10.188   0.878  -3.133  0.00  0.00    -0.083 Cl
ENDBRANCH  21  23
ENDBRANCH  20  21
ENDBRANCH  19  20
ENDBRANCH  18  19
ENDBRANCH   2  18
TORSDOF 7
