REMARK  Name = ZINC12386159
REMARK  8 active torsions:
REMARK  status: ('A' for Active; 'I' for Inactive)
REMARK    1  A    between atoms: C_1  and  C_2
REMARK    2  A    between atoms: C_2  and  O_3
REMARK    3  A    between atoms: O_3  and  C_4
REMARK    4  A    between atoms: C_4  and  C_6
REMARK    5  A    between atoms: C_12  and  C_14
REMARK    6  A    between atoms: C_14  and  C_15
REMARK    7  A    between atoms: C_22  and  C_23
REMARK    8  A    between atoms: C_22  and  N_63
REMARK                            x       y       z     vdW  Elec       q    Type
REMARK                         _______ _______ _______ _____ _____    ______ ____
ROOT
ATOM      1  C   UNL     1       5.360   2.896  -2.126  0.00  0.00    +0.028 C 
ATOM      2  C   UNL     1       5.728   3.102  -3.568  0.00  0.00    +0.200 C 
ATOM      3  O   UNL     1       6.147   2.156  -4.201  0.00  0.00    -0.278 OA
ATOM      4  N   UNL     1       5.613   4.284  -4.182  0.00  0.00    -0.318 N 
ATOM      5  C   UNL     1       5.154   5.491  -3.500  0.00  0.00    +0.085 C 
ATOM      6  C   UNL     1       4.428   5.119  -2.207  0.00  0.00    -0.058 C 
ATOM      7  H   UNL     1       5.846   4.343  -5.122  0.00  0.00    +0.149 HD
ATOM      8  N   UNL     1       5.297   4.201  -1.442  0.00  0.00    +0.391 N 
ATOM      9  H   UNL     1       6.242   4.599  -1.391  0.00  0.00    -0.080 HD
ENDROOT
BRANCH   1  10
ATOM     10  C   UNL     1       6.424   2.030  -1.448  0.00  0.00    +0.090 C 
BRANCH  10  17
ATOM     11  C   UNL     1      11.168   0.681  -0.554  0.00  0.00    +0.101 C 
ATOM     12  C   UNL     1      11.183   1.979  -1.364  0.00  0.00    +0.033 C 
ATOM     13  C   UNL     1      10.104   2.924  -0.826  0.00  0.00    +0.108 C 
ATOM     14  N   UNL     1       8.813   2.222  -0.835  0.00  0.00    -0.301 N 
ATOM     15  C   UNL     1       8.711   0.922  -0.157  0.00  0.00    +0.108 C 
ATOM     16  C   UNL     1       9.807  -0.003  -0.708  0.00  0.00    +0.033 C 
ATOM     17  C   UNL     1       7.741   2.763  -1.448  0.00  0.00    +0.214 C 
ATOM     18  O   UNL     1       7.837   3.839  -1.999  0.00  0.00    -0.276 OA
BRANCH  11  19
ATOM     19  C   UNL     1      12.251  -0.238  -1.059  0.00  0.00    +0.310 C 
ATOM     20  O   UNL     1      12.961   0.110  -1.972  0.00  0.00    -0.251 OA
BRANCH  19  21
ATOM     21  O   UNL     1      12.426  -1.443  -0.494  0.00  0.00    -0.465 OA
BRANCH  21  23
ATOM     22  C   UNL     1      13.534  -3.599  -0.266  0.00  0.00    +0.048 C 
ATOM     23  C   UNL     1      13.488  -2.275  -1.031  0.00  0.00    +0.229 C 
ENDBRANCH  21  23
ENDBRANCH  19  21
ENDBRANCH  11  19
ENDBRANCH  10  17
ENDBRANCH   1  10
BRANCH   8  24
ATOM     24  C   UNL     1       4.771   4.029  -0.069  0.00  0.00    -0.042 C 
BRANCH  24  25
ATOM     25  C   UNL     1       3.415   3.372  -0.107  0.00  0.00    -0.063 A 
ATOM     26  C   UNL     1       3.317   1.991   0.050  0.00  0.00    +0.002 A 
ATOM     27  C   UNL     1       2.109   1.366   0.021  0.00  0.00    +0.009 A 
ATOM     28  C   UNL     1       0.940   2.123  -0.170  0.00  0.00    -0.018 A 
ATOM     29  C   UNL     1      -0.326   1.513  -0.206  0.00  0.00    +0.008 A 
ATOM     30  C   UNL     1      -1.436   2.277  -0.399  0.00  0.00    +0.001 A 
ATOM     31  C   UNL     1      -1.339   3.659  -0.550  0.00  0.00    +0.001 A 
ATOM     32  C   UNL     1      -0.130   4.284  -0.520  0.00  0.00    +0.008 A 
ATOM     33  C   UNL     1       1.039   3.527  -0.329  0.00  0.00    -0.018 A 
ATOM     34  C   UNL     1       2.305   4.137  -0.294  0.00  0.00    +0.010 A 
ENDBRANCH  24  25
ENDBRANCH   8  24
TORSDOF 7
