REMARK  Name = ZINC15959434
REMARK  7 active torsions:
REMARK  status: ('A' for Active; 'I' for Inactive)
REMARK    1  A    between atoms: C_1  and  C_2
REMARK    2  A    between atoms: C_13  and  C_16
REMARK    3  A    between atoms: C_16  and  C_17
REMARK    4  A    between atoms: C_20  and  O_23
REMARK    5  A    between atoms: N_26  and  C_29
REMARK    6  A    between atoms: C_29  and  C_30
REMARK    7  A    between atoms: C_30  and  C_31
REMARK                            x       y       z     vdW  Elec       q    Type
REMARK                         _______ _______ _______ _____ _____    ______ ____
ROOT
ATOM      1  C   UNL     1      -0.018   1.503   0.010  0.00  0.00    +0.044 C 
ATOM      2  C   UNL     1       0.002  -0.004   0.002  0.00  0.00    -0.050 A 
ATOM      3  C   UNL     1       0.006  -0.691  -1.199  0.00  0.00    +0.005 A 
ATOM      4  C   UNL     1       0.026  -2.070  -1.212  0.00  0.00    +0.024 A 
ATOM      5  C   UNL     1       0.042  -2.782  -0.015  0.00  0.00    +0.039 A 
ATOM      6  C   UNL     1       0.037  -2.081   1.187  0.00  0.00    +0.004 A 
ATOM      7  C   UNL     1       0.023  -0.704   1.195  0.00  0.00    +0.011 A 
ATOM      8  C   UNL     1       0.058  -3.122   2.270  0.00  0.00    +0.136 C 
ATOM      9  C   UNL     1       1.282  -2.963   3.179  0.00  0.00    +0.122 C 
ATOM     10  C   UNL     1       0.752  -2.190   4.418  0.00  0.00    +0.107 C 
ATOM     11  C   UNL     1      -0.740  -1.934   4.117  0.00  0.00    +0.072 C 
ATOM     12  N   UNL     1      -1.119  -3.009   3.152  0.00  0.00    -0.295 NA
ATOM     13  C   UNL     1       0.885  -3.195   5.540  0.00  0.00    +0.227 C 
ATOM     14  O   UNL     1       0.569  -3.002   6.694  0.00  0.00    -0.275 OA
ATOM     15  N   UNL     1       1.406  -4.330   5.060  0.00  0.00    -0.241 N 
ATOM     16  C   UNL     1       1.680  -4.312   3.735  0.00  0.00    +0.228 C 
ATOM     17  O   UNL     1       2.162  -5.221   3.093  0.00  0.00    -0.275 OA
ATOM     18  C   UNL     1       0.076  -4.440   1.545  0.00  0.00    +0.243 C 
ATOM     19  O   UNL     1       0.097  -5.543   2.049  0.00  0.00    -0.273 OA
ATOM     20  N   UNL     1       0.063  -4.157   0.228  0.00  0.00    -0.283 N 
ATOM     21  H   UNL     1      -1.940  -2.745   2.628  0.00  0.00    +0.124 HD
ATOM     22  H   UNL     1       0.068  -4.831  -0.470  0.00  0.00    +0.155 HD
ENDROOT
BRANCH  11  23
ATOM     23  C   UNL     1      -1.571  -2.067   5.395  0.00  0.00    +0.054 C 
BRANCH  23  24
ATOM     24  C   UNL     1      -3.002  -1.694   5.104  0.00  0.00    -0.046 A 
ATOM     25  C   UNL     1      -3.414  -0.381   5.242  0.00  0.00    +0.007 A 
ATOM     26  C   UNL     1      -4.726  -0.036   4.977  0.00  0.00    +0.045 A 
ATOM     27  C   UNL     1      -5.629  -1.008   4.572  0.00  0.00    +0.117 A 
ATOM     28  C   UNL     1      -5.212  -2.325   4.434  0.00  0.00    +0.045 A 
ATOM     29  C   UNL     1      -3.899  -2.663   4.695  0.00  0.00    +0.007 A 
BRANCH  27  30
ATOM     30  O   UNL     1      -6.919  -0.672   4.311  0.00  0.00    -0.507 OA
ATOM     31  H   UNL     1      -7.082  -0.419   3.392  0.00  0.00    +0.292 HD
ENDBRANCH  27  30
ENDBRANCH  23  24
ENDBRANCH  11  23
BRANCH  15  32
ATOM     32  C   UNL     1       1.666  -5.500   5.902  0.00  0.00    +0.121 C 
BRANCH  32  33
ATOM     33  C   UNL     1       0.429  -6.401   5.920  0.00  0.00    +0.054 C 
BRANCH  33  34
ATOM     34  C   UNL     1       0.697  -7.604   6.787  0.00  0.00    -0.046 A 
ATOM     35  C   UNL     1       1.243  -8.747   6.233  0.00  0.00    +0.004 A 
ATOM     36  C   UNL     1       1.488  -9.851   7.028  0.00  0.00    +0.000 A 
ATOM     37  C   UNL     1       1.188  -9.812   8.377  0.00  0.00    +0.000 A 
ATOM     38  C   UNL     1       0.644  -8.669   8.931  0.00  0.00    +0.000 A 
ATOM     39  C   UNL     1       0.402  -7.563   8.137  0.00  0.00    +0.004 A 
ENDBRANCH  33  34
ENDBRANCH  32  33
ENDBRANCH  15  32
TORSDOF 6
