REMARK  Name = ZINC08969482
REMARK  8 active torsions:
REMARK  status: ('A' for Active; 'I' for Inactive)
REMARK    1  A    between atoms: C_1  and  C_2
REMARK    2  A    between atoms: C_2  and  O_4
REMARK    3  A    between atoms: O_4  and  C_5
REMARK    4  A    between atoms: C_8  and  N_11
REMARK    5  A    between atoms: C_26  and  C_32
REMARK    6  A    between atoms: C_32  and  C_34
REMARK    7  A    between atoms: C_37  and  O_40
REMARK    8  A    between atoms: O_40  and  C_41
REMARK                            x       y       z     vdW  Elec       q    Type
REMARK                         _______ _______ _______ _____ _____    ______ ____
ROOT
ATOM      1  N   UNL     1      -1.010   2.147   3.589  0.00  0.00    -0.210 N 
ATOM      2  C   UNL     1      -2.071   1.292   3.392  0.00  0.00    +0.232 C 
ATOM      3  O   UNL     1      -2.858   0.877   4.215  0.00  0.00    -0.274 OA
ATOM      4  C   UNL     1      -2.029   1.001   1.976  0.00  0.00    +0.113 C 
ATOM      5  C   UNL     1      -2.793   0.342   0.912  0.00  0.00    +0.100 C 
ATOM      6  C   UNL     1      -4.290   0.547   0.997  0.00  0.00    -0.021 A 
ATOM      7  C   UNL     1      -4.930   0.538   2.216  0.00  0.00    +0.006 A 
ATOM      8  C   UNL     1      -6.300   0.721   2.284  0.00  0.00    +0.000 A 
ATOM      9  C   UNL     1      -7.035   0.911   1.127  0.00  0.00    +0.001 A 
ATOM     10  C   UNL     1      -6.408   0.920  -0.100  0.00  0.00    +0.008 A 
ATOM     11  C   UNL     1      -5.024   0.737  -0.177  0.00  0.00    -0.019 A 
ATOM     12  C   UNL     1      -4.356   0.750  -1.494  0.00  0.00    +0.022 C 
ATOM     13  C   UNL     1      -3.025   0.919  -1.544  0.00  0.00    +0.054 C 
ATOM     14  C   UNL     1      -1.190   1.888  -0.011  0.00  0.00    +0.141 C 
ATOM     15  C   UNL     1      -1.572   2.386   1.382  0.00  0.00    +0.116 C 
ATOM     16  C   UNL     1      -0.537   2.678   2.420  0.00  0.00    +0.232 C 
ATOM     17  O   UNL     1       0.510   3.267   2.259  0.00  0.00    -0.274 OA
ATOM     18  N   UNL     1      -2.136   0.755  -0.308  0.00  0.00    -0.384 NA
ATOM     19  H   UNL     1      -1.529  -0.038  -0.548  0.00  0.00    +0.127 HD
ENDROOT
BRANCH   1  23
ATOM     20  C   UNL     1       0.590   3.022   7.341  0.00  0.00    +0.132 A 
ATOM     21  C   UNL     1       1.130   3.605   6.204  0.00  0.00    +0.048 A 
ATOM     22  C   UNL     1       0.601   3.316   4.962  0.00  0.00    +0.027 A 
ATOM     23  C   UNL     1      -0.472   2.441   4.851  0.00  0.00    +0.044 A 
ATOM     24  C   UNL     1      -1.015   1.862   5.989  0.00  0.00    +0.027 A 
ATOM     25  C   UNL     1      -0.481   2.147   7.231  0.00  0.00    +0.048 A 
BRANCH  20  26
ATOM     26  O   UNL     1       1.112   3.306   8.564  0.00  0.00    -0.426 OA
BRANCH  26  28
ATOM     27  C   UNL     1       1.583   4.979  10.318  0.00  0.00    +0.136 C 
ATOM     28  C   UNL     1       0.924   4.550   9.032  0.00  0.00    +0.309 C 
ATOM     29  O   UNL     1       0.228   5.327   8.422  0.00  0.00    -0.251 OA
ENDBRANCH  26  28
ENDBRANCH  20  26
ENDBRANCH   1  23
BRANCH  14  30
ATOM     30  C   UNL     1       0.072   1.066   0.034  0.00  0.00    +0.183 C 
ATOM     31  O   UNL     1       0.007  -0.145   0.057  0.00  0.00    -0.290 OA
BRANCH  30  32
ATOM     32  C   UNL     1       1.382   1.731   0.043  0.00  0.00    +0.019 A 
ATOM     33  C   UNL     1       1.460   3.129   0.011  0.00  0.00    +0.015 A 
ATOM     34  C   UNL     1       2.685   3.745   0.025  0.00  0.00    +0.046 A 
ATOM     35  C   UNL     1       3.849   2.984   0.060  0.00  0.00    +0.120 A 
ATOM     36  C   UNL     1       3.776   1.595   0.087  0.00  0.00    +0.046 A 
ATOM     37  C   UNL     1       2.557   0.970   0.079  0.00  0.00    +0.015 A 
BRANCH  35  38
ATOM     38  O   UNL     1       5.058   3.599   0.069  0.00  0.00    -0.495 OA
ATOM     39  C   UNL     1       5.060   5.027   0.041  0.00  0.00    +0.277 C 
ENDBRANCH  35  38
ENDBRANCH  30  32
ENDBRANCH  14  30
TORSDOF 6
