REMARK  Name = ZINC35533793
REMARK  11 active torsions:
REMARK  status: ('A' for Active; 'I' for Inactive)
REMARK    1  A    between atoms: C_1  and  C_2
REMARK    2  A    between atoms: N_5  and  C_7
REMARK    3  A    between atoms: C_14  and  C_35
REMARK    4  A    between atoms: C_14  and  C_36
REMARK    5  A    between atoms: C_16  and  N_18
REMARK    6  A    between atoms: C_19  and  C_21
REMARK    7  A    between atoms: C_21  and  C_23
REMARK    8  A    between atoms: C_21  and  C_32
REMARK    9  A    between atoms: C_26  and  N_29
REMARK   10  A    between atoms: C_32  and  C_33
REMARK   11  A    between atoms: C_32  and  C_34
REMARK                            x       y       z     vdW  Elec       q    Type
REMARK                         _______ _______ _______ _____ _____    ______ ____
ROOT
ATOM      1  C   UNL     1       0.912   2.194  -0.651  0.00  0.00    +0.068 C 
ATOM      2  C   UNL     1       0.930   0.738  -0.266  0.00  0.00    +0.066 A 
ATOM      3  C   UNL     1       0.506  -0.325  -1.062  0.00  0.00    +0.017 A 
ATOM      4  C   UNL     1       0.682  -1.472  -0.359  0.00  0.00    +0.051 A 
ATOM      5  N   UNL     1       1.198  -1.145   0.841  0.00  0.00    -0.236 N 
ATOM      6  N   UNL     1       1.351   0.249   0.875  0.00  0.00    -0.171 NA
ATOM      7  C   UNL     1       0.343  -2.846  -0.882  0.00  0.00    +0.062 C 
ATOM      8  C   UNL     1       0.185  -2.758  -2.405  0.00  0.00    -0.027 C 
ATOM      9  C   UNL     1      -0.755  -1.601  -2.756  0.00  0.00    +0.034 C 
ATOM     10  C   UNL     1      -0.057  -0.267  -2.460  0.00  0.00    +0.107 C 
ATOM     11  C   UNL     1      -0.401  -4.069  -2.934  0.00  0.00    +0.011 C 
ATOM     12  C   UNL     1       1.553  -2.516  -3.046  0.00  0.00    +0.011 C 
ENDROOT
BRANCH   5  13
ATOM     13  C   UNL     1       1.527  -2.039   1.869  0.00  0.00    +0.066 A 
ATOM     14  C   UNL     1       0.759  -3.177   2.075  0.00  0.00    +0.028 A 
ATOM     15  C   UNL     1       1.086  -4.056   3.089  0.00  0.00    +0.002 A 
ATOM     16  C   UNL     1       2.177  -3.802   3.900  0.00  0.00    +0.000 A 
ATOM     17  C   UNL     1       2.943  -2.669   3.699  0.00  0.00    +0.002 A 
ATOM     18  C   UNL     1       2.625  -1.790   2.682  0.00  0.00    +0.028 A 
ENDBRANCH   5  13
BRANCH  10  19
ATOM     19  N   UNL     1      -1.026   0.828  -2.558  0.00  0.00    -0.308 N 
ATOM     20  C   UNL     1      -1.238   1.436  -3.741  0.00  0.00    +0.221 C 
ATOM     21  O   UNL     1      -0.702   1.015  -4.744  0.00  0.00    -0.275 OA
ATOM     22  H   UNL     1      -1.514   1.115  -1.770  0.00  0.00    +0.149 HD
BRANCH  20  23
ATOM     23  C   UNL     1      -2.142   2.640  -3.819  0.00  0.00    +0.107 C 
BRANCH  23  24
ATOM     24  C   UNL     1      -1.853   3.405  -5.084  0.00  0.00    -0.035 A 
ATOM     25  C   UNL     1      -2.013   2.793  -6.314  0.00  0.00    +0.006 A 
ATOM     26  C   UNL     1      -1.748   3.495  -7.475  0.00  0.00    +0.033 A 
ATOM     27  C   UNL     1      -1.323   4.808  -7.406  0.00  0.00    +0.126 A 
ATOM     28  C   UNL     1      -1.164   5.420  -6.177  0.00  0.00    +0.033 A 
ATOM     29  C   UNL     1      -1.433   4.720  -5.016  0.00  0.00    +0.006 A 
BRANCH  27  30
ATOM     30  N   UNL     1      -1.038   5.560  -8.650  0.00  0.00    +0.056 N 
ATOM     31  O   UNL     1      -1.177   5.024  -9.725  0.00  0.00    -0.126 OA
ATOM     32  O   UNL     1      -0.666   6.708  -8.590  0.00  0.00    -0.126 OA
ENDBRANCH  27  30
ENDBRANCH  23  24
BRANCH  23  33
ATOM     33  C   UNL     1      -3.602   2.181  -3.822  0.00  0.00    -0.001 C 
ATOM     34  C   UNL     1      -3.918   1.475  -2.502  0.00  0.00    +0.008 C 
ATOM     35  C   UNL     1      -4.518   3.397  -3.982  0.00  0.00    +0.008 C 
ENDBRANCH  23  33
ENDBRANCH  20  23
ENDBRANCH  10  19
TORSDOF 6
