REMARK  Name = ZINC63655404
REMARK  11 active torsions:
REMARK  status: ('A' for Active; 'I' for Inactive)
REMARK    1  A    between atoms: C_1  and  C_2
REMARK    2  A    between atoms: C_4  and  C_14
REMARK    3  A    between atoms: C_7  and  O_12
REMARK    4  A    between atoms: O_12  and  C_13
REMARK    5  A    between atoms: C_14  and  C_15
REMARK    6  A    between atoms: C_15  and  N_16
REMARK    7  A    between atoms: N_16  and  C_17
REMARK    8  A    between atoms: N_16  and  C_23
REMARK    9  A    between atoms: C_17  and  C_18
REMARK   10  A    between atoms: C_23  and  N_25
REMARK   11  A    between atoms: N_25  and  C_26
REMARK                            x       y       z     vdW  Elec       q    Type
REMARK                         _______ _______ _______ _____ _____    ______ ____
ROOT
ATOM      1  N   UNL     1      -4.819  -0.825  -1.544  0.00  0.00    -0.308 N 
ENDROOT
BRANCH   1   2
ATOM      2  C   UNL     1      -5.653   0.226  -1.418  0.00  0.00    +0.133 C 
ATOM      3  S   UNL     1      -5.480   1.302  -0.097  0.00  0.00    -0.019 S 
BRANCH   2   4
ATOM      4  N   UNL     1      -6.622   0.432  -2.332  0.00  0.00    -0.324 N 
ATOM      5  H   UNL     1      -6.720  -0.178  -3.080  0.00  0.00    +0.148 HD
BRANCH   4   6
ATOM      6  C   UNL     1      -7.528   1.575  -2.194  0.00  0.00    +0.072 C 
ATOM      7  C   UNL     1      -8.685   1.200  -1.266  0.00  0.00    +0.022 C 
ATOM      8  C   UNL     1      -9.631   2.394  -1.123  0.00  0.00    +0.002 C 
ATOM      9  C   UNL     1     -10.183   2.775  -2.498  0.00  0.00    +0.000 C 
ATOM     10  C   UNL     1      -9.026   3.150  -3.426  0.00  0.00    +0.002 C 
ATOM     11  C   UNL     1      -8.080   1.956  -3.569  0.00  0.00    +0.022 C 
ENDBRANCH   4   6
ENDBRANCH   2   4
ENDBRANCH   1   2
BRANCH   1  12
ATOM     12  C   UNL     1      -3.765  -1.048  -0.551  0.00  0.00    +0.111 C 
BRANCH  12  13
ATOM     13  C   UNL     1      -2.494  -0.315  -0.984  0.00  0.00    +0.052 C 
BRANCH  13  16
ATOM     14  C   UNL     1      -0.019   1.526   0.010  0.00  0.00    +0.035 C 
ATOM     15  C   UNL     1       0.002  -0.004   0.002  0.00  0.00    +0.103 C 
ATOM     16  C   UNL     1      -1.410  -0.545   0.038  0.00  0.00    -0.037 C 
ATOM     17  C   UNL     1      -1.503  -1.275   1.172  0.00  0.00    +0.003 A 
ATOM     18  C   UNL     1      -2.598  -2.045   1.773  0.00  0.00    +0.055 A 
ATOM     19  C   UNL     1      -2.393  -2.691   2.946  0.00  0.00    +0.121 A 
ATOM     20  C   UNL     1      -1.160  -2.651   3.620  0.00  0.00    +0.047 A 
ATOM     21  C   UNL     1      -0.095  -1.970   3.147  0.00  0.00    +0.029 A 
ATOM     22  C   UNL     1      -0.204  -1.234   1.883  0.00  0.00    +0.043 A 
ATOM     23  N   UNL     1       0.658  -0.508   1.214  0.00  0.00    -0.378 N 
ATOM     24  H   UNL     1       1.576  -0.332   1.476  0.00  0.00    +0.160 HD
BRANCH  19  25
ATOM     25  O   UNL     1      -3.416  -3.401   3.491  0.00  0.00    -0.495 OA
ATOM     26  C   UNL     1      -3.157  -4.065   4.729  0.00  0.00    +0.277 C 
ENDBRANCH  19  25
ENDBRANCH  13  16
ENDBRANCH  12  13
ENDBRANCH   1  12
BRANCH   1  27
ATOM     27  C   UNL     1      -4.967  -1.745  -2.675  0.00  0.00    +0.149 C 
BRANCH  27  28
ATOM     28  C   UNL     1      -5.909  -2.859  -2.296  0.00  0.00    +0.007 A 
ATOM     29  C   UNL     1      -7.255  -2.925  -2.441  0.00  0.00    +0.013 A 
ATOM     30  C   UNL     1      -7.920  -4.061  -2.018  0.00  0.00    +0.008 A 
ATOM     31  C   UNL     1      -7.207  -5.074  -1.469  0.00  0.00    +0.045 A 
ATOM     32  S   UNL     1      -5.541  -4.437  -1.546  0.00  0.00    -0.100 S 
ENDBRANCH  27  28
ENDBRANCH   1  27
TORSDOF 9
