REMARK  Name = ZINC09968835
REMARK  17 active torsions:
REMARK  status: ('A' for Active; 'I' for Inactive)
REMARK    1  A    between atoms: C_1  and  C_2
REMARK    2  A    between atoms: C_2  and  C_3
REMARK    3  A    between atoms: C_3  and  C_4
REMARK    4  A    between atoms: C_4  and  N_72
REMARK    5  A    between atoms: C_5  and  C_6
REMARK    6  A    between atoms: C_5  and  N_72
REMARK    7  A    between atoms: C_6  and  C_7
REMARK    8  A    between atoms: C_7  and  C_8
REMARK    9  A    between atoms: C_9  and  C_10
REMARK   10  A    between atoms: C_9  and  N_72
REMARK   11  A    between atoms: C_10  and  C_12
REMARK   12  A    between atoms: C_10  and  O_34
REMARK   13  A    between atoms: C_12  and  N_13
REMARK   14  A    between atoms: N_13  and  C_14
REMARK   15  A    between atoms: N_13  and  S_24
REMARK   16  A    between atoms: S_24  and  C_27
REMARK   17  A    between atoms: C_30  and  C_33
REMARK                            x       y       z     vdW  Elec       q    Type
REMARK                         _______ _______ _______ _____ _____    ______ ____
ROOT
ATOM      1  N   UNL     1      -0.353   1.908  -1.151  0.00  0.00    -0.200 N 
ENDROOT
BRANCH   1   2
ATOM      2  C   UNL     1      -1.434   1.303  -1.790  0.00  0.00    +0.059 A 
ATOM      3  C   UNL     1      -2.721   1.543  -1.357  0.00  0.00    +0.025 A 
ATOM      4  C   UNL     1      -3.807   0.944  -1.989  0.00  0.00    +0.002 A 
ATOM      5  C   UNL     1      -3.630   0.107  -3.049  0.00  0.00    +0.008 A 
ATOM      6  C   UNL     1      -2.335  -0.163  -3.521  0.00  0.00    -0.016 A 
ATOM      7  C   UNL     1      -1.221   0.445  -2.891  0.00  0.00    +0.005 A 
ATOM      8  C   UNL     1       0.072   0.170  -3.360  0.00  0.00    +0.010 A 
ATOM      9  C   UNL     1       0.240  -0.668  -4.420  0.00  0.00    +0.001 A 
ATOM     10  C   UNL     1      -0.854  -1.263  -5.044  0.00  0.00    +0.001 A 
ATOM     11  C   UNL     1      -2.123  -1.023  -4.613  0.00  0.00    +0.008 A 
ENDBRANCH   1   2
BRANCH   1  12
ATOM     12  S   UNL     1       0.274   3.321  -1.743  0.00  0.00    +0.075 S 
ATOM     13  O   UNL     1      -0.763   3.945  -2.489  0.00  0.00    -0.150 OA
ATOM     14  O   UNL     1       0.923   3.965  -0.655  0.00  0.00    -0.150 OA
BRANCH  12  15
ATOM     15  C   UNL     1       1.533   2.890  -2.897  0.00  0.00    +0.109 A 
ATOM     16  C   UNL     1       2.839   2.736  -2.470  0.00  0.00    +0.029 A 
ATOM     17  C   UNL     1       3.826   2.393  -3.374  0.00  0.00    +0.005 A 
ATOM     18  C   UNL     1       3.510   2.213  -4.708  0.00  0.00    -0.050 A 
ATOM     19  C   UNL     1       2.205   2.372  -5.136  0.00  0.00    +0.005 A 
ATOM     20  C   UNL     1       1.217   2.711  -4.231  0.00  0.00    +0.029 A 
ATOM     21  C   UNL     1       4.587   1.844  -5.695  0.00  0.00    +0.044 C 
ENDBRANCH  12  15
ENDBRANCH   1  12
BRANCH   1  22
ATOM     22  C   UNL     1       0.228   1.292   0.044  0.00  0.00    +0.161 C 
BRANCH  22  23
ATOM     23  C   UNL     1      -0.560   1.733   1.279  0.00  0.00    +0.117 C 
BRANCH  23  24
ATOM     24  O   UNL     1      -1.893   1.222   1.201  0.00  0.00    -0.392 OA
ATOM     25  H   UNL     1      -1.942   0.257   1.160  0.00  0.00    +0.210 HD
ENDBRANCH  23  24
BRANCH  23  26
ATOM     26  C   UNL     1       0.120   1.192   2.538  0.00  0.00    -0.046 C 
BRANCH  26  27
ATOM     27  N   UNL     1      -0.542   1.778   3.723  0.00  0.00    +0.381 N 
ATOM     28  H   UNL     1      -0.741   2.768   3.538  0.00  0.00    -0.082 HD
BRANCH  27  29
ATOM     29  C   UNL     1      -1.814   1.075   3.990  0.00  0.00    -0.079 C 
BRANCH  29  30
ATOM     30  C   UNL     1      -1.557  -0.403   4.294  0.00  0.00    -0.019 C 
BRANCH  30  32
ATOM     31  C   UNL     1      -2.636  -2.607   4.763  0.00  0.00    +0.004 C 
ATOM     32  C   UNL     1      -2.893  -1.130   4.459  0.00  0.00    -0.005 C 
ENDBRANCH  30  32
ENDBRANCH  29  30
ENDBRANCH  27  29
BRANCH  27  33
ATOM     33  C   UNL     1       0.347   1.678   4.899  0.00  0.00    -0.079 C 
BRANCH  33  34
ATOM     34  C   UNL     1      -0.191   2.594   6.001  0.00  0.00    -0.019 C 
BRANCH  34  35
ATOM     35  C   UNL     1       0.797   2.622   7.169  0.00  0.00    -0.005 C 
ATOM     36  C   UNL     1       0.259   3.537   8.270  0.00  0.00    +0.004 C 
ENDBRANCH  34  35
ENDBRANCH  33  34
ENDBRANCH  27  33
ENDBRANCH  26  27
ENDBRANCH  23  26
ENDBRANCH  22  23
ENDBRANCH   1  22
TORSDOF 14
