REMARK  Name = ZINC04361459
REMARK  6 active torsions:
REMARK  status: ('A' for Active; 'I' for Inactive)
REMARK    1  A    between atoms: C_1  and  C_2
REMARK    2  A    between atoms: C_4  and  C_22
REMARK    3  A    between atoms: C_5  and  N_9
REMARK    4  A    between atoms: C_7  and  C_8
REMARK    5  A    between atoms: N_9  and  C_10
REMARK    6  A    between atoms: C_10  and  N_11
REMARK                            x       y       z     vdW  Elec       q    Type
REMARK                         _______ _______ _______ _____ _____    ______ ____
ROOT
ATOM      1  C   UNL     1      -3.732   3.632   0.056  0.00  0.00    +0.219 C 
ENDROOT
BRANCH   1   2
ATOM      2  N   UNL     1      -2.321   4.028   0.045  0.00  0.00    -0.248 N 
ATOM      3  C   UNL     1      -1.255   3.132   0.031  0.00  0.00    +0.049 A 
ATOM      4  C   UNL     1      -1.223   1.743   0.017  0.00  0.00    +0.024 A 
ATOM      5  C   UNL     1      -0.013   1.076   0.008  0.00  0.00    +0.002 A 
ATOM      6  C   UNL     1       1.182   1.777   0.000  0.00  0.00    +0.001 A 
ATOM      7  C   UNL     1       1.173   3.157   0.007  0.00  0.00    +0.014 A 
ATOM      8  C   UNL     1      -0.043   3.841   0.023  0.00  0.00    +0.048 A 
ATOM      9  C   UNL     1      -0.393   5.273   0.033  0.00  0.00    +0.250 C 
ATOM     10  O   UNL     1       0.366   6.221   0.030  0.00  0.00    -0.282 OA
ATOM     11  C   UNL     1      -1.892   5.302   0.047  0.00  0.00    +0.292 C 
ATOM     12  O   UNL     1      -2.590   6.294   0.058  0.00  0.00    -0.266 OA
ENDBRANCH   1   2
BRANCH   1  13
ATOM     13  N   UNL     1      -4.189   3.494   1.441  0.00  0.00    -0.328 N 
ATOM     14  H   UNL     1      -4.048   2.661   1.917  0.00  0.00    +0.148 HD
BRANCH  13  19
ATOM     15  C   UNL     1      -6.783   7.829   4.017  0.00  0.00    +0.044 C 
ATOM     16  C   UNL     1      -6.094   6.677   3.333  0.00  0.00    -0.047 A 
ATOM     17  C   UNL     1      -5.894   5.489   4.013  0.00  0.00    +0.008 A 
ATOM     18  C   UNL     1      -5.263   4.432   3.389  0.00  0.00    -0.029 A 
ATOM     19  C   UNL     1      -4.829   4.561   2.075  0.00  0.00    +0.031 A 
ATOM     20  C   UNL     1      -5.026   5.757   1.397  0.00  0.00    +0.026 A 
ATOM     21  C   UNL     1      -5.663   6.809   2.026  0.00  0.00    -0.046 A 
ATOM     22  C   UNL     1      -5.883   8.105   1.288  0.00  0.00    +0.044 C 
ATOM     23  C   UNL     1      -5.046   3.138   4.131  0.00  0.00    +0.045 C 
ENDBRANCH  13  19
ENDBRANCH   1  13
TORSDOF 3
