REMARK  Name = ZINC19318954
REMARK  4 active torsions:
REMARK  status: ('A' for Active; 'I' for Inactive)
REMARK    1  A    between atoms: C_1  and  C_2
REMARK    2  A    between atoms: N_4  and  C_20
REMARK    3  A    between atoms: C_8  and  N_9
REMARK    4  A    between atoms: N_9  and  C_10
REMARK                            x       y       z     vdW  Elec       q    Type
REMARK                         _______ _______ _______ _____ _____    ______ ____
ROOT
ATOM      1  C   UNL     1      -0.018   1.503   0.010  0.00  0.00    +0.068 C 
ATOM      2  C   UNL     1       0.002  -0.004   0.002  0.00  0.00    +0.070 C 
ATOM      3  N   UNL     1       0.008  -0.765  -1.049  0.00  0.00    -0.176 NA
ATOM      4  N   UNL     1       0.028  -2.115  -0.698  0.00  0.00    -0.156 N 
ATOM      5  C   UNL     1       0.035  -2.244   0.644  0.00  0.00    +0.273 C 
ATOM      6  O   UNL     1       0.052  -3.285   1.280  0.00  0.00    -0.268 OA
ATOM      7  C   UNL     1       0.025  -0.879   1.184  0.00  0.00    +0.075 C 
ATOM      8  C   UNL     1       0.033  -0.499   2.515  0.00  0.00    +0.083 C 
ENDROOT
BRANCH   4   9
ATOM      9  C   UNL     1       0.038  -3.180  -1.607  0.00  0.00    +0.062 A 
ATOM     10  C   UNL     1       0.051  -4.490  -1.145  0.00  0.00    +0.025 A 
ATOM     11  C   UNL     1       0.061  -5.538  -2.043  0.00  0.00    +0.003 A 
ATOM     12  C   UNL     1       0.058  -5.286  -3.403  0.00  0.00    +0.020 A 
ATOM     13  C   UNL     1       0.045  -3.983  -3.868  0.00  0.00    +0.043 A 
ATOM     14  C   UNL     1       0.029  -2.929  -2.973  0.00  0.00    +0.045 A 
ATOM     15 CL   UNL     1       0.043  -3.671  -5.575  0.00  0.00    -0.083 Cl
ENDBRANCH   4   9
BRANCH   8  16
ATOM     16  N   UNL     1       0.055  -1.436   3.484  0.00  0.00    -0.340 N 
ATOM     17  H   UNL     1       0.065  -2.377   3.248  0.00  0.00    +0.146 HD
BRANCH  16  18
ATOM     18  C   UNL     1       0.063  -1.034   4.893  0.00  0.00    +0.070 C 
ATOM     19  C   UNL     1      -1.196  -0.219   5.221  0.00  0.00    +0.115 C 
ATOM     20  N   UNL     1      -1.153   0.153   6.645  0.00  0.00    -0.275 NA
ATOM     21  C   UNL     1      -1.137  -1.053   7.489  0.00  0.00    +0.173 C 
ATOM     22  N   UNL     1       0.084  -1.823   7.202  0.00  0.00    -0.275 NA
ATOM     23  C   UNL     1       0.089  -2.272   5.800  0.00  0.00    +0.115 C 
ATOM     24  C   UNL     1       1.277  -1.008   7.483  0.00  0.00    +0.173 C 
ATOM     25  N   UNL     1       1.243   0.197   6.639  0.00  0.00    -0.275 NA
ATOM     26  C   UNL     1       1.307  -0.186   5.197  0.00  0.00    +0.115 C 
ATOM     27  C   UNL     1       0.031   0.983   6.921  0.00  0.00    +0.173 C 
ENDBRANCH  16  18
ENDBRANCH   8  16
TORSDOF 3
