REMARK  Name = ZINC06614437
REMARK  5 active torsions:
REMARK  status: ('A' for Active; 'I' for Inactive)
REMARK    1  A    between atoms: C_1  and  C_2
REMARK    2  A    between atoms: N_4  and  C_5
REMARK    3  A    between atoms: C_7  and  O_28
REMARK    4  A    between atoms: C_14  and  C_22
REMARK    5  A    between atoms: C_19  and  O_21
REMARK                            x       y       z     vdW  Elec       q    Type
REMARK                         _______ _______ _______ _____ _____    ______ ____
ROOT
ATOM      1  C   UNL     1       1.355   1.775  -2.498  0.00  0.00    +0.132 C 
ATOM      2  C   UNL     1      -0.005   1.232  -2.943  0.00  0.00    +0.138 C 
ATOM      3  C   UNL     1      -1.061   1.633  -1.948  0.00  0.00    +0.041 C 
ATOM      4  C   UNL     1      -0.738   1.088  -0.555  0.00  0.00    +0.049 C 
ATOM      5  C   UNL     1      -1.789   1.597   0.442  0.00  0.00    +0.169 C 
ATOM      6  O   UNL     1      -1.692   3.022   0.521  0.00  0.00    -0.347 OA
ATOM      7  C   UNL     1      -0.404   3.496   0.919  0.00  0.00    +0.282 C 
ATOM      8  O   UNL     1       0.586   3.026  -0.001  0.00  0.00    -0.341 OA
ATOM      9  C   UNL     1       0.635   1.602  -0.110  0.00  0.00    +0.157 C 
ATOM     10  C   UNL     1       1.702   1.200  -1.124  0.00  0.00    +0.166 C 
ENDROOT
BRANCH   7  11
ATOM     11  C   UNL     1      -0.404   5.003   0.928  0.00  0.00    +0.008 A 
ATOM     12  C   UNL     1       0.477   5.700   0.123  0.00  0.00    +0.008 A 
ATOM     13  C   UNL     1       0.473   7.082   0.128  0.00  0.00    +0.000 A 
ATOM     14  C   UNL     1      -0.405   7.768   0.947  0.00  0.00    +0.000 A 
ATOM     15  C   UNL     1      -1.283   7.071   1.755  0.00  0.00    +0.000 A 
ATOM     16  C   UNL     1      -1.283   5.689   1.746  0.00  0.00    +0.008 A 
ENDBRANCH   7  11
BRANCH   1  20
ATOM     17  C   UNL     1       2.295   5.480  -2.716  0.00  0.00    +0.109 C 
ATOM     18  C   UNL     1       2.356   3.976  -2.800  0.00  0.00    +0.210 C 
ATOM     19  O   UNL     1       3.357   3.432  -3.213  0.00  0.00    -0.276 OA
ATOM     20  N   UNL     1       1.296   3.237  -2.416  0.00  0.00    -0.308 N 
ATOM     21  H   UNL     1       0.495   3.672  -2.086  0.00  0.00    +0.149 HD
ENDBRANCH   1  20
BRANCH  10  22
ATOM     22  O   UNL     1       2.971   1.705  -0.704  0.00  0.00    -0.387 OA
ATOM     23  H   UNL     1       3.699   1.488  -1.302  0.00  0.00    +0.210 HD
ENDBRANCH  10  22
BRANCH   2  24
ATOM     24  O   UNL     1      -0.329   1.757  -4.232  0.00  0.00    -0.390 OA
ATOM     25  H   UNL     1      -1.180   1.454  -4.578  0.00  0.00    +0.210 HD
ENDBRANCH   2  24
TORSDOF 4
