REMARK  Name = ZINC09129123
REMARK  5 active torsions:
REMARK  status: ('A' for Active; 'I' for Inactive)
REMARK    1  A    between atoms: C_1  and  C_2
REMARK    2  A    between atoms: C_2  and  N_52
REMARK    3  A    between atoms: C_15  and  C_17
REMARK    4  A    between atoms: C_18  and  O_33
REMARK    5  A    between atoms: N_23  and  C_26
REMARK                            x       y       z     vdW  Elec       q    Type
REMARK                         _______ _______ _______ _____ _____    ______ ____
ROOT
ATOM      1  C   UNL     1      -0.614  -2.056  -0.958  0.00  0.00    +0.069 A 
ATOM      2  C   UNL     1      -1.091  -3.268  -0.554  0.00  0.00    +0.201 A 
ATOM      3  N   UNL     1      -1.458  -4.196  -1.495  0.00  0.00    -0.278 N 
ATOM      4  H   UNL     1      -1.801  -5.059  -1.213  0.00  0.00    +0.173 HD
ATOM      5  C   UNL     1      -1.342  -3.920  -2.807  0.00  0.00    +0.336 A 
ATOM      6  O   UNL     1      -1.669  -4.757  -3.627  0.00  0.00    -0.246 OA
ATOM      7  N   UNL     1      -0.869  -2.732  -3.225  0.00  0.00    -0.229 N 
ATOM      8  C   UNL     1      -0.501  -1.790  -2.334  0.00  0.00    +0.267 A 
ATOM      9  O   UNL     1      -0.073  -0.715  -2.718  0.00  0.00    -0.267 OA
ENDROOT
BRANCH   1  22
ATOM     10  C   UNL     1      -0.397   1.339   0.615  0.00  0.00    -0.073 C 
ATOM     11  C   UNL     1       1.006   1.732   0.135  0.00  0.00    +0.019 C 
ATOM     12  C   UNL     1       1.821   0.470  -0.008  0.00  0.00    -0.022 A 
ATOM     13  C   UNL     1       3.253   0.312  -0.129  0.00  0.00    +0.003 A 
ATOM     14  C   UNL     1       4.311   1.226  -0.158  0.00  0.00    +0.010 A 
ATOM     15  C   UNL     1       5.576   0.707  -0.287  0.00  0.00    +0.001 A 
ATOM     16  C   UNL     1       5.807  -0.655  -0.384  0.00  0.00    +0.002 A 
ATOM     17  C   UNL     1       4.779  -1.582  -0.358  0.00  0.00    +0.026 A 
ATOM     18  C   UNL     1       3.484  -1.085  -0.228  0.00  0.00    +0.047 A 
ATOM     19  N   UNL     1       2.268  -1.704  -0.170  0.00  0.00    -0.359 N 
ATOM     20  H   UNL     1       2.127  -2.662  -0.215  0.00  0.00    +0.166 HD
ATOM     21  C   UNL     1       1.278  -0.768  -0.040  0.00  0.00    +0.011 A 
ATOM     22  C   UNL     1      -0.209  -1.018   0.057  0.00  0.00    +0.021 C 
ATOM     23  N   UNL     1      -0.909   0.252  -0.249  0.00  0.00    +0.388 N 
ATOM     24  H   UNL     1      -0.737   0.499  -1.231  0.00  0.00    -0.080 HD
BRANCH  23  26
ATOM     25  C   UNL     1      -3.078   1.332  -0.573  0.00  0.00    -0.017 C 
ATOM     26  C   UNL     1      -2.363   0.088  -0.043  0.00  0.00    -0.081 C 
ENDBRANCH  23  26
ENDBRANCH   1  22
BRANCH   7  27
ATOM     27  C   UNL     1      -0.758  -2.471  -4.598  0.00  0.00    +0.054 A 
ATOM     28  C   UNL     1      -1.821  -1.902  -5.286  0.00  0.00    +0.027 A 
ATOM     29  C   UNL     1      -1.708  -1.643  -6.638  0.00  0.00    +0.017 A 
ATOM     30  C   UNL     1      -0.539  -1.958  -7.308  0.00  0.00    +0.018 A 
ATOM     31  C   UNL     1       0.520  -2.530  -6.626  0.00  0.00    +0.017 A 
ATOM     32  C   UNL     1       0.413  -2.787  -5.273  0.00  0.00    +0.027 A 
ATOM     33 BR   UNL     1      -0.390  -1.608  -9.160  0.00  0.00    -0.050 Br
ENDBRANCH   7  27
BRANCH   2  34
ATOM     34  O   UNL     1      -1.204  -3.551   0.761  0.00  0.00    -0.493 OA
ATOM     35  H   UNL     1      -1.551  -4.434   0.945  0.00  0.00    +0.294 HD
ENDBRANCH   2  34
TORSDOF 4
