REMARK  Name = ZINC08816198
REMARK  10 active torsions:
REMARK  status: ('A' for Active; 'I' for Inactive)
REMARK    1  A    between atoms: C_1  and  C_2
REMARK    2  A    between atoms: C_5  and  C_9
REMARK    3  A    between atoms: C_6  and  C_8
REMARK    4  A    between atoms: C_11  and  C_30
REMARK    5  A    between atoms: C_12  and  C_17
REMARK    6  A    between atoms: C_17  and  S_18
REMARK    7  A    between atoms: S_18  and  C_19
REMARK    8  A    between atoms: C_25  and  C_29
REMARK    9  A    between atoms: C_30  and  O_32
REMARK   10  A    between atoms: O_32  and  C_33
REMARK                            x       y       z     vdW  Elec       q    Type
REMARK                         _______ _______ _______ _____ _____    ______ ____
ROOT
ATOM      1  C   UNL     1      -8.951   5.087   1.178  0.00  0.00    +0.144 C 
ATOM      2  C   UNL     1      -7.449   4.896   1.248  0.00  0.00    +0.079 C 
ATOM      3  C   UNL     1      -6.790   4.674   0.091  0.00  0.00    +0.034 C 
ATOM      4  N   UNL     1      -7.453   4.628  -1.102  0.00  0.00    -0.272 N 
ATOM      5  C   UNL     1      -8.778   4.785  -1.221  0.00  0.00    +0.304 C 
ATOM      6  O   UNL     1      -9.280   4.723  -2.326  0.00  0.00    -0.252 OA
ATOM      7  N   UNL     1      -9.572   5.013  -0.156  0.00  0.00    -0.288 N 
ATOM      8  H   UNL     1      -6.937   4.470  -1.907  0.00  0.00    +0.156 HD
ATOM      9  H   UNL     1     -10.529   5.127  -0.265  0.00  0.00    +0.151 HD
ENDROOT
BRANCH   1  14
ATOM     10  C   UNL     1     -11.416   1.061   4.512  0.00  0.00    +0.044 C 
ATOM     11  C   UNL     1     -10.773   2.111   3.642  0.00  0.00    -0.050 A 
ATOM     12  C   UNL     1     -10.536   1.851   2.305  0.00  0.00    +0.004 A 
ATOM     13  C   UNL     1      -9.952   2.816   1.507  0.00  0.00    +0.006 A 
ATOM     14  C   UNL     1      -9.594   4.037   2.047  0.00  0.00    -0.020 A 
ATOM     15  C   UNL     1      -9.830   4.296   3.384  0.00  0.00    -0.045 A 
ATOM     16  C   UNL     1     -10.420   3.333   4.182  0.00  0.00    +0.007 A 
ATOM     17  C   UNL     1      -9.445   5.629   3.972  0.00  0.00    +0.044 C 
ENDBRANCH   1  14
BRANCH   2  18
ATOM     18  C   UNL     1      -6.762   4.949   2.483  0.00  0.00    +0.339 C 
ATOM     19  O   UNL     1      -6.744   3.975   3.212  0.00  0.00    -0.245 OA
BRANCH  18  20
ATOM     20  O   UNL     1      -6.126   6.080   2.853  0.00  0.00    -0.465 OA
ATOM     21  C   UNL     1      -5.453   6.063   4.113  0.00  0.00    +0.280 C 
ENDBRANCH  18  20
ENDBRANCH   2  18
BRANCH   3  22
ATOM     22  C   UNL     1      -5.295   4.480   0.115  0.00  0.00    +0.128 C 
BRANCH  22  23
ATOM     23  S   UNL     1      -4.911   2.726  -0.119  0.00  0.00    -0.082 S 
BRANCH  23  24
ATOM     24  C   UNL     1      -3.151   2.787  -0.049  0.00  0.00    +0.168 A 
ATOM     25  N   UNL     1      -2.323   1.707  -0.173  0.00  0.00    -0.333 N 
ATOM     26  H   UNL     1      -2.603   0.758  -0.317  0.00  0.00    +0.168 HD
ATOM     27  C   UNL     1      -1.023   2.173  -0.062  0.00  0.00    +0.067 A 
ATOM     28  C   UNL     1       0.223   1.565  -0.104  0.00  0.00    +0.028 A 
ATOM     29  C   UNL     1       1.364   2.327   0.037  0.00  0.00    +0.005 A 
ATOM     30  C   UNL     1       1.274   3.698   0.227  0.00  0.00    -0.048 A 
ATOM     31  C   UNL     1       0.046   4.317   0.277  0.00  0.00    +0.033 A 
ATOM     32  C   UNL     1      -1.120   3.560   0.136  0.00  0.00    +0.090 A 
ATOM     33  N   UNL     1      -2.442   3.873   0.140  0.00  0.00    -0.222 NA
ATOM     34  C   UNL     1       2.531   4.515   0.380  0.00  0.00    +0.044 C 
ENDBRANCH  23  24
ENDBRANCH  22  23
ENDBRANCH   3  22
TORSDOF 6
