REMARK  Name = ZINC04285735
REMARK  6 active torsions:
REMARK  status: ('A' for Active; 'I' for Inactive)
REMARK    1  A    between atoms: C_1  and  C_2
REMARK    2  A    between atoms: C_2  and  C_3
REMARK    3  A    between atoms: C_2  and  N_4
REMARK    4  A    between atoms: C_8  and  C_10
REMARK    5  A    between atoms: C_10  and  S_11
REMARK    6  A    between atoms: S_11  and  C_12
REMARK                            x       y       z     vdW  Elec       q    Type
REMARK                         _______ _______ _______ _____ _____    ______ ____
ROOT
ATOM      1  C   UNL     1       0.174   0.961   2.735  0.00  0.00    +0.170 A 
ATOM      2  N   UNL     1      -0.115   1.167   4.053  0.00  0.00    -0.301 N 
ATOM      3  H   UNL     1      -0.909   1.722   4.300  0.00  0.00    +0.171 HD
ATOM      4  C   UNL     1       0.649   0.639   5.027  0.00  0.00    +0.261 A 
ATOM      5  O   UNL     1       0.375   0.829   6.199  0.00  0.00    -0.267 OA
ATOM      6  C   UNL     1       1.790  -0.146   4.666  0.00  0.00    +0.075 A 
ATOM      7  C   UNL     1       2.752  -0.807   5.550  0.00  0.00    -0.023 A 
ATOM      8  C   UNL     1       3.751  -1.496   4.962  0.00  0.00    -0.004 A 
ATOM      9  S   UNL     1       3.477  -1.308   3.221  0.00  0.00    -0.073 S 
ATOM     10  C   UNL     1       2.015  -0.303   3.288  0.00  0.00    +0.117 A 
ATOM     11  N   UNL     1       1.219   0.242   2.376  0.00  0.00    -0.216 NA
ATOM     12  C   UNL     1       4.853  -2.253   5.639  0.00  0.00    +0.043 C 
ATOM     13  C   UNL     1       4.897  -1.829   7.114  0.00  0.00    +0.005 C 
ATOM     14  C   UNL     1       3.475  -1.865   7.679  0.00  0.00    +0.005 C 
ATOM     15  C   UNL     1       2.646  -0.733   7.071  0.00  0.00    +0.037 C 
ENDROOT
BRANCH   1  16
ATOM     16  S   UNL     1      -0.860   1.669   1.497  0.00  0.00    -0.078 S 
BRANCH  16  17
ATOM     17  C   UNL     1      -0.013   1.086   0.008  0.00  0.00    +0.173 C 
BRANCH  17  22
ATOM     18  N   UNL     1      -0.487   1.406  -4.765  0.00  0.00    -0.297 N 
ATOM     19  C   UNL     1      -0.940   1.719  -3.535  0.00  0.00    +0.306 C 
ATOM     20  O   UNL     1      -1.937   2.403  -3.410  0.00  0.00    -0.252 OA
ATOM     21  N   UNL     1      -0.288   1.272  -2.443  0.00  0.00    -0.239 N 
ATOM     22  C   UNL     1      -0.742   1.585  -1.213  0.00  0.00    +0.231 C 
ATOM     23  O   UNL     1      -1.736   2.268  -1.089  0.00  0.00    -0.274 OA
ATOM     24  H   UNL     1       0.308   0.860  -4.865  0.00  0.00    +0.151 HD
ATOM     25  H   UNL     1       0.507   0.726  -2.543  0.00  0.00    +0.159 HD
BRANCH  18  27
ATOM     26  C   UNL     1      -0.713   3.303  -6.293  0.00  0.00    +0.027 C 
ATOM     27  C   UNL     1      -1.196   1.891  -5.952  0.00  0.00    +0.068 C 
ATOM     28  C   UNL     1      -0.915   0.958  -7.131  0.00  0.00    +0.027 C 
ENDBRANCH  18  27
ENDBRANCH  17  22
ENDBRANCH  16  17
ENDBRANCH   1  16
TORSDOF 4
