REMARK  Name = ZINC09345815
REMARK  6 active torsions:
REMARK  status: ('A' for Active; 'I' for Inactive)
REMARK    1  A    between atoms: C_1  and  O_2
REMARK    2  A    between atoms: O_2  and  C_3
REMARK    3  A    between atoms: C_6  and  C_11
REMARK    4  A    between atoms: C_8  and  O_9
REMARK    5  A    between atoms: O_9  and  C_10
REMARK    6  A    between atoms: C_29  and  N_73
REMARK                            x       y       z     vdW  Elec       q    Type
REMARK                         _______ _______ _______ _____ _____    ______ ____
ROOT
ATOM      1  C   UNL     1       2.206   5.248   3.048  0.00  0.00    +0.069 C 
ATOM      2  N   UNL     1       1.146   5.638   2.418  0.00  0.00    -0.185 NA
ATOM      3  N   UNL     1       0.098   5.974   3.256  0.00  0.00    -0.207 N 
ATOM      4  C   UNL     1       0.435   5.549   4.635  0.00  0.00    +0.136 C 
ATOM      5  C   UNL     1       1.936   5.247   4.539  0.00  0.00    +0.086 C 
ATOM      6  C   UNL     1       0.153   6.732   5.524  0.00  0.00    +0.017 A 
ATOM      7  C   UNL     1       0.693   6.764   6.796  0.00  0.00    +0.009 A 
ATOM      8  C   UNL     1       0.435   7.829   7.638  0.00  0.00    +0.001 A 
ATOM      9  C   UNL     1      -0.369   8.867   7.203  0.00  0.00    +0.004 A 
ATOM     10  C   UNL     1      -0.904   8.842   5.933  0.00  0.00    +0.046 A 
ATOM     11  C   UNL     1      -0.641   7.776   5.073  0.00  0.00    +0.128 A 
ATOM     12  O   UNL     1      -1.162   7.842   3.821  0.00  0.00    -0.467 OA
ATOM     13  C   UNL     1      -1.149   6.690   2.977  0.00  0.00    +0.189 C 
ATOM     14  C   UNL     1      -1.190   7.114   1.510  0.00  0.00    +0.052 C 
ATOM     15  C   UNL     1      -1.215   5.867   0.622  0.00  0.00    -0.072 C 
ATOM     16  C   UNL     1      -2.337   4.588   2.349  0.00  0.00    -0.072 C 
ATOM     17  C   UNL     1      -2.348   5.796   3.290  0.00  0.00    +0.052 C 
ATOM     18  N   UNL     1      -2.414   5.068   0.953  0.00  0.00    +0.385 N 
ATOM     19  H   UNL     1      -3.247   5.660   0.850  0.00  0.00    -0.081 HD
ENDROOT
BRANCH  18  20
ATOM     20  C   UNL     1      -2.525   3.919   0.030  0.00  0.00    -0.037 C 
ATOM     21  C   UNL     1      -1.291   3.027   0.141  0.00  0.00    -0.010 C 
ATOM     22  C   UNL     1      -1.349   1.980  -0.977  0.00  0.00    +0.003 C 
ATOM     23  C   UNL     1      -1.116   2.686  -2.311  0.00  0.00    +0.035 C 
ATOM     24  C   UNL     1      -2.041   3.867  -2.452  0.00  0.00    -0.046 A 
ATOM     25  C   UNL     1      -2.676   4.442  -1.374  0.00  0.00    -0.058 A 
ATOM     26  C   UNL     1      -3.501   5.542  -1.569  0.00  0.00    +0.002 A 
ATOM     27  C   UNL     1      -3.687   6.064  -2.833  0.00  0.00    +0.000 A 
ATOM     28  C   UNL     1      -3.048   5.487  -3.914  0.00  0.00    +0.000 A 
ATOM     29  C   UNL     1      -2.227   4.395  -3.722  0.00  0.00    +0.004 A 
ENDBRANCH  18  20
BRANCH   1  33
ATOM     30  C   UNL     1       5.880   4.140   1.224  0.00  0.00    +0.162 A 
ATOM     31  C   UNL     1       5.752   4.099   2.605  0.00  0.00    +0.050 A 
ATOM     32  C   UNL     1       4.560   4.458   3.200  0.00  0.00    +0.013 A 
ATOM     33  C   UNL     1       3.480   4.864   2.413  0.00  0.00    +0.001 A 
ATOM     34  C   UNL     1       3.609   4.900   1.023  0.00  0.00    +0.059 A 
ATOM     35  C   UNL     1       4.808   4.544   0.433  0.00  0.00    +0.162 A 
BRANCH  30  37
ATOM     36  C   UNL     1       8.115   3.381   1.512  0.00  0.00    +0.277 C 
ATOM     37  O   UNL     1       7.057   3.785   0.642  0.00  0.00    -0.491 OA
ENDBRANCH  30  37
BRANCH  35  38
ATOM     38  O   UNL     1       4.938   4.583  -0.920  0.00  0.00    -0.491 OA
ATOM     39  C   UNL     1       3.797   5.007  -1.670  0.00  0.00    +0.277 C 
ENDBRANCH  35  38
ENDBRANCH   1  33
TORSDOF 4
