REMARK  Name = ZINC04982526
REMARK  5 active torsions:
REMARK  status: ('A' for Active; 'I' for Inactive)
REMARK    1  A    between atoms: C_1  and  O_2
REMARK    2  A    between atoms: O_2  and  C_3
REMARK    3  A    between atoms: C_12  and  C_13
REMARK    4  A    between atoms: C_25  and  S_28
REMARK    5  A    between atoms: S_28  and  C_29
REMARK                            x       y       z     vdW  Elec       q    Type
REMARK                         _______ _______ _______ _____ _____    ______ ____
ROOT
ATOM      1  C   UNL     1       1.253   2.114   0.002  0.00  0.00    +0.298 C 
ATOM      2  N   UNL     1       0.201   1.107   0.108  0.00  0.00    -0.305 N 
ATOM      3  C   UNL     1       0.566  -0.235   0.242  0.00  0.00    +0.039 A 
ATOM      4  C   UNL     1       0.336  -1.149  -0.770  0.00  0.00    +0.024 A 
ATOM      5  C   UNL     1       0.723  -2.467  -0.609  0.00  0.00    +0.002 A 
ATOM      6  C   UNL     1       1.341  -2.878   0.560  0.00  0.00    +0.001 A 
ATOM      7  C   UNL     1       1.573  -1.978   1.582  0.00  0.00    +0.012 A 
ATOM      8  C   UNL     1       1.183  -0.653   1.436  0.00  0.00    +0.028 A 
ATOM      9  C   UNL     1       1.381   0.335   2.517  0.00  0.00    +0.156 A 
ATOM     10  C   UNL     1       1.936   1.599   2.215  0.00  0.00    +0.248 A 
ATOM     11  N   UNL     1       2.098   2.473   3.194  0.00  0.00    -0.184 NA
ATOM     12  C   UNL     1       1.740   2.138   4.431  0.00  0.00    +0.212 A 
ATOM     13  N   UNL     1       1.225   0.944   4.694  0.00  0.00    -0.122 NA
ATOM     14  N   UNL     1       1.047   0.064   3.770  0.00  0.00    -0.141 NA
ATOM     15  O   UNL     1       2.296   1.890   0.943  0.00  0.00    -0.449 OA
ATOM     16  H   UNL     1      -0.734   1.365   0.082  0.00  0.00    +0.150 HD
ENDROOT
BRANCH   1  26
ATOM     17  C   UNL     1       2.745   1.121  -1.728  0.00  0.00    +0.129 A 
ATOM     18  C   UNL     1       3.286   1.069  -3.017  0.00  0.00    +0.047 A 
ATOM     19  C   UNL     1       2.923   1.975  -3.964  0.00  0.00    +0.012 A 
ATOM     20  C   UNL     1       1.987   2.976  -3.649  0.00  0.00    -0.017 A 
ATOM     21  C   UNL     1       1.590   3.927  -4.604  0.00  0.00    +0.008 A 
ATOM     22  C   UNL     1       0.682   4.883  -4.265  0.00  0.00    +0.001 A 
ATOM     23  C   UNL     1       0.138   4.934  -2.983  0.00  0.00    +0.001 A 
ATOM     24  C   UNL     1       0.499   4.029  -2.032  0.00  0.00    +0.009 A 
ATOM     25  C   UNL     1       1.434   3.027  -2.345  0.00  0.00    -0.006 A 
ATOM     26  C   UNL     1       1.830   2.076  -1.390  0.00  0.00    +0.060 A 
BRANCH  17  28
ATOM     27  C   UNL     1       4.092  -0.770  -1.214  0.00  0.00    +0.277 C 
ATOM     28  O   UNL     1       3.132   0.205  -0.801  0.00  0.00    -0.495 OA
ENDBRANCH  17  28
ENDBRANCH   1  26
BRANCH  12  29
ATOM     29  S   UNL     1       1.953   3.298   5.739  0.00  0.00    -0.088 S 
ATOM     30  C   UNL     1       1.317   2.326   7.128  0.00  0.00    +0.093 C 
ENDBRANCH  12  29
TORSDOF 3
