REMARK  Name = ZINC39636616
REMARK  8 active torsions:
REMARK  status: ('A' for Active; 'I' for Inactive)
REMARK    1  A    between atoms: C_1  and  C_2
REMARK    2  A    between atoms: C_5  and  C_38
REMARK    3  A    between atoms: C_6  and  C_8
REMARK    4  A    between atoms: C_8  and  N_9
REMARK    5  A    between atoms: C_10  and  C_12
REMARK    6  A    between atoms: C_23  and  C_25
REMARK    7  A    between atoms: C_30  and  S_31
REMARK    8  A    between atoms: S_31  and  C_32
REMARK                            x       y       z     vdW  Elec       q    Type
REMARK                         _______ _______ _______ _____ _____    ______ ____
ROOT
ATOM      1  C   UNL     1       3.086  -4.428   4.200  0.00  0.00    +0.100 C 
ATOM      2  C   UNL     1       4.040  -3.215   4.273  0.00  0.00    +0.121 C 
ATOM      3  N   UNL     1       4.099  -2.871   5.713  0.00  0.00    -0.296 N 
ATOM      4  C   UNL     1       4.123  -4.183   6.405  0.00  0.00    +0.115 C 
ATOM      5  C   UNL     1       3.146  -5.063   5.600  0.00  0.00    -0.004 C 
ATOM      6  C   UNL     1       3.673  -6.491   5.510  0.00  0.00    -0.010 C 
ATOM      7  C   UNL     1       3.669  -7.121   6.906  0.00  0.00    -0.082 C 
ATOM      8  N   UNL     1       2.303  -7.115   7.443  0.00  0.00    +0.379 N 
ATOM      9  C   UNL     1       1.838  -5.733   7.614  0.00  0.00    -0.082 C 
ATOM     10  C   UNL     1       1.765  -5.045   6.248  0.00  0.00    -0.010 C 
ATOM     11  C   UNL     1       4.126  -1.644   6.269  0.00  0.00    +0.249 C 
ATOM     12  O   UNL     1       4.003  -0.657   5.570  0.00  0.00    -0.270 OA
ATOM     13  H   UNL     1       1.690  -7.598   6.805  0.00  0.00    -0.086 HD
ATOM     14  H   UNL     1       2.292  -7.585   8.336  0.00  0.00    -0.086 HD
ENDROOT
BRANCH  11  15
ATOM     15  C   UNL     1       4.305  -1.498   7.725  0.00  0.00    +0.069 A 
ATOM     16  C   UNL     1       5.124  -2.384   8.435  0.00  0.00    +0.017 A 
ATOM     17  C   UNL     1       5.259  -2.204   9.800  0.00  0.00    +0.020 A 
ATOM     18  C   UNL     1       4.588  -1.164  10.421  0.00  0.00    +0.112 A 
ATOM     19  N   UNL     1       3.821  -0.340   9.735  0.00  0.00    -0.248 NA
ATOM     20  C   UNL     1       3.660  -0.464   8.425  0.00  0.00    +0.114 A 
BRANCH  20  21
ATOM     21  S   UNL     1       2.628   0.671   7.559  0.00  0.00    -0.069 S 
BRANCH  21  22
ATOM     22  C   UNL     1       1.932   1.672   8.831  0.00  0.00    +0.014 A 
ATOM     23  C   UNL     1       2.520   2.887   9.160  0.00  0.00    +0.015 A 
ATOM     24  C   UNL     1       1.973   3.670  10.157  0.00  0.00    +0.001 A 
ATOM     25  C   UNL     1       0.840   3.245  10.828  0.00  0.00    +0.000 A 
ATOM     26  C   UNL     1       0.253   2.036  10.503  0.00  0.00    +0.001 A 
ATOM     27  C   UNL     1       0.791   1.252   9.503  0.00  0.00    +0.015 A 
ENDBRANCH  21  22
ENDBRANCH  20  21
ENDBRANCH  11  15
BRANCH   1  29
ATOM     28  N   UNL     1       0.851  -4.779   3.200  0.00  0.00    -0.311 N 
ATOM     29  C   UNL     1       1.682  -3.974   3.890  0.00  0.00    +0.218 C 
ATOM     30  O   UNL     1       1.302  -2.884   4.262  0.00  0.00    -0.275 OA
ATOM     31  H   UNL     1       1.155  -5.651   2.903  0.00  0.00    +0.149 HD
BRANCH  28  32
ATOM     32  C   UNL     1      -0.513  -4.338   2.898  0.00  0.00    +0.139 C 
BRANCH  32  38
ATOM     33  C   UNL     1      -2.143  -6.186  -1.457  0.00  0.00    +0.044 C 
ATOM     34  C   UNL     1      -2.010  -6.298   0.040  0.00  0.00    -0.050 A 
ATOM     35  C   UNL     1      -2.545  -7.387   0.702  0.00  0.00    +0.003 A 
ATOM     36  C   UNL     1      -2.423  -7.489   2.075  0.00  0.00    +0.004 A 
ATOM     37  C   UNL     1      -1.765  -6.502   2.786  0.00  0.00    -0.046 A 
ATOM     38  C   UNL     1      -1.230  -5.414   2.123  0.00  0.00    -0.027 A 
ATOM     39  C   UNL     1      -1.348  -5.314   0.750  0.00  0.00    +0.008 A 
ATOM     40  C   UNL     1      -1.633  -6.613   4.283  0.00  0.00    +0.044 C 
ENDBRANCH  32  38
ENDBRANCH  28  32
ENDBRANCH   1  29
TORSDOF 6
