REMARK  Name = ZINC17273114
REMARK  9 active torsions:
REMARK  status: ('A' for Active; 'I' for Inactive)
REMARK    1  A    between atoms: C_1  and  C_2
REMARK    2  A    between atoms: C_2  and  C_4
REMARK    3  A    between atoms: C_2  and  S_17
REMARK    4  A    between atoms: N_6  and  C_7
REMARK    5  A    between atoms: C_9  and  N_14
REMARK    6  A    between atoms: S_17  and  C_18
REMARK    7  A    between atoms: C_21  and  C_26
REMARK    8  A    between atoms: N_22  and  C_23
REMARK    9  A    between atoms: C_26  and  C_27
REMARK                            x       y       z     vdW  Elec       q    Type
REMARK                         _______ _______ _______ _____ _____    ______ ____
ROOT
ATOM      1  C   UNL     1      -6.676  -1.048  -1.828  0.00  0.00    +0.029 C 
ATOM      2  C   UNL     1      -6.162  -0.979  -0.388  0.00  0.00    +0.137 C 
ENDROOT
BRANCH   2   3
ATOM      3  C   UNL     1      -4.847  -0.242  -0.359  0.00  0.00    +0.230 C 
ATOM      4  O   UNL     1      -3.804  -0.861  -0.395  0.00  0.00    -0.274 OA
ATOM      5  N   UNL     1      -4.830   1.104  -0.294  0.00  0.00    -0.283 N 
ATOM      6  H   UNL     1      -5.659   1.595  -0.183  0.00  0.00    +0.155 HD
BRANCH   5   7
ATOM      7  C   UNL     1      -3.615   1.793  -0.385  0.00  0.00    +0.054 A 
ATOM      8  C   UNL     1      -2.529   1.209  -1.024  0.00  0.00    +0.057 A 
ATOM      9  C   UNL     1      -1.332   1.892  -1.112  0.00  0.00    +0.128 A 
ATOM     10  C   UNL     1      -1.211   3.154  -0.561  0.00  0.00    +0.034 A 
ATOM     11  C   UNL     1      -2.292   3.742   0.071  0.00  0.00    +0.024 A 
ATOM     12  C   UNL     1      -3.493   3.064   0.164  0.00  0.00    +0.062 A 
ATOM     13 CL   UNL     1      -4.847   3.800   0.963  0.00  0.00    -0.082 Cl
BRANCH   9  14
ATOM     14  N   UNL     1      -0.174   1.269  -1.793  0.00  0.00    +0.056 N 
ATOM     15  O   UNL     1      -0.278   0.155  -2.275  0.00  0.00    -0.126 OA
ATOM     16  O   UNL     1       0.880   1.873  -1.876  0.00  0.00    -0.126 OA
ENDBRANCH   9  14
ENDBRANCH   5   7
ENDBRANCH   2   3
BRANCH   2  17
ATOM     17  S   UNL     1      -5.928  -2.656   0.251  0.00  0.00    -0.074 S 
BRANCH  17  18
ATOM     18  C   UNL     1      -7.598  -3.219   0.247  0.00  0.00    +0.193 A 
ATOM     19  N   UNL     1      -8.652  -2.536  -0.133  0.00  0.00    -0.122 NA
ATOM     20  N   UNL     1      -9.709  -3.255  -0.003  0.00  0.00    -0.133 NA
ATOM     21  C   UNL     1      -9.396  -4.430   0.464  0.00  0.00    +0.139 A 
ATOM     22  N   UNL     1      -8.039  -4.452   0.635  0.00  0.00    -0.303 N 
BRANCH  22  23
ATOM     23  C   UNL     1      -7.228  -5.566   1.133  0.00  0.00    +0.091 C 
ATOM     24  C   UNL     1      -5.813  -5.247   1.619  0.00  0.00    +0.027 C 
ATOM     25  C   UNL     1      -6.020  -5.990   0.296  0.00  0.00    +0.027 C 
ENDBRANCH  22  23
BRANCH  21  26
ATOM     26  C   UNL     1     -10.351  -5.559   0.755  0.00  0.00    +0.118 C 
BRANCH  26  27
ATOM     27  C   UNL     1     -10.504  -6.417  -0.474  0.00  0.00    -0.003 A 
ATOM     28  C   UNL     1      -9.786  -7.503  -0.851  0.00  0.00    +0.011 A 
ATOM     29  C   UNL     1     -10.109  -8.142  -2.034  0.00  0.00    +0.008 A 
ATOM     30  C   UNL     1     -11.134  -7.664  -2.780  0.00  0.00    +0.045 A 
ATOM     31  S   UNL     1     -11.684  -6.274  -1.806  0.00  0.00    -0.101 S 
ENDBRANCH  26  27
ENDBRANCH  21  26
ENDBRANCH  17  18
ENDBRANCH   2  17
TORSDOF 8
