REMARK  Name = ZINC35279088
REMARK  12 active torsions:
REMARK  status: ('A' for Active; 'I' for Inactive)
REMARK    1  A    between atoms: C_1  and  C_2
REMARK    2  A    between atoms: C_2  and  C_3
REMARK    3  A    between atoms: C_3  and  O_4
REMARK    4  A    between atoms: O_4  and  C_5
REMARK    5  A    between atoms: C_9  and  C_11
REMARK    6  A    between atoms: C_11  and  C_12
REMARK    7  A    between atoms: C_13  and  C_25
REMARK    8  A    between atoms: N_15  and  C_20
REMARK    9  A    between atoms: C_20  and  C_21
REMARK   10  A    between atoms: C_21  and  C_22
REMARK   11  A    between atoms: C_22  and  O_23
REMARK   12  A    between atoms: O_23  and  C_24
REMARK                            x       y       z     vdW  Elec       q    Type
REMARK                         _______ _______ _______ _____ _____    ______ ____
ROOT
ATOM      1  C   UNL     1       2.690  -6.549  -4.768  0.00  0.00    +0.076 C 
ATOM      2  C   UNL     1       3.345  -5.780  -5.892  0.00  0.00    +0.145 C 
ATOM      3  N   UNL     1       3.802  -6.782  -6.862  0.00  0.00    -0.283 N 
ATOM      4  C   UNL     1       3.469  -7.997  -6.390  0.00  0.00    +0.288 C 
ATOM      5  O   UNL     1       3.702  -9.050  -6.949  0.00  0.00    -0.266 OA
ATOM      6  C   UNL     1       2.783  -7.862  -5.087  0.00  0.00    +0.249 C 
ATOM      7  O   UNL     1       2.320  -8.886  -4.335  0.00  0.00    -0.282 OA
ENDROOT
BRANCH   2   8
ATOM      8  C   UNL     1       2.347  -4.853  -6.536  0.00  0.00    -0.022 A 
ATOM      9  C   UNL     1       1.359  -5.364  -7.357  0.00  0.00    +0.007 A 
ATOM     10  C   UNL     1       0.443  -4.514  -7.948  0.00  0.00    +0.015 A 
ATOM     11  C   UNL     1       0.515  -3.152  -7.717  0.00  0.00    +0.018 A 
ATOM     12  C   UNL     1       1.503  -2.641  -6.894  0.00  0.00    +0.015 A 
ATOM     13  C   UNL     1       2.416  -3.493  -6.300  0.00  0.00    +0.007 A 
ATOM     14 BR   UNL     1      -0.738  -1.988  -8.525  0.00  0.00    -0.050 Br
ENDBRANCH   2   8
BRANCH   1  15
ATOM     15  C   UNL     1       2.078  -5.984  -3.562  0.00  0.00    +0.195 C 
ATOM     16  O   UNL     1       0.880  -6.095  -3.379  0.00  0.00    -0.287 OA
BRANCH  15  21
ATOM     17  C   UNL     1       3.117  -4.015  -0.532  0.00  0.00    +0.121 A 
ATOM     18  C   UNL     1       4.493  -3.958  -0.710  0.00  0.00    +0.046 A 
ATOM     19  C   UNL     1       5.080  -4.557  -1.810  0.00  0.00    +0.004 A 
ATOM     20  C   UNL     1       4.301  -5.216  -2.739  0.00  0.00    +0.012 A 
ATOM     21  C   UNL     1       2.916  -5.279  -2.569  0.00  0.00    +0.026 A 
ATOM     22  C   UNL     1       2.327  -4.679  -1.455  0.00  0.00    +0.057 A 
BRANCH  17  23
ATOM     23  O   UNL     1       2.546  -3.424   0.550  0.00  0.00    -0.492 OA
BRANCH  23  24
ATOM     24  C   UNL     1       3.422  -2.757   1.462  0.00  0.00    +0.229 C 
BRANCH  24  26
ATOM     25  C   UNL     1       3.541  -1.444   3.584  0.00  0.00    +0.007 C 
ATOM     26  C   UNL     1       2.604  -2.158   2.608  0.00  0.00    +0.038 C 
ENDBRANCH  24  26
ENDBRANCH  23  24
ENDBRANCH  17  23
ENDBRANCH  15  21
ENDBRANCH   1  15
BRANCH   3  27
ATOM     27  C   UNL     1       4.498  -6.508  -8.122  0.00  0.00    +0.111 C 
BRANCH  27  28
ATOM     28  C   UNL     1       6.008  -6.495  -7.878  0.00  0.00    +0.047 C 
BRANCH  28  29
ATOM     29  C   UNL     1       6.735  -6.208  -9.194  0.00  0.00    +0.161 C 
BRANCH  29  30
ATOM     30  O   UNL     1       8.145  -6.196  -8.966  0.00  0.00    -0.383 OA
ATOM     31  C   UNL     1       8.921  -5.935 -10.138  0.00  0.00    +0.193 C 
ENDBRANCH  29  30
ENDBRANCH  28  29
ENDBRANCH  27  28
ENDBRANCH   3  27
TORSDOF 10
