REMARK  Name = ZINC16031348
REMARK  9 active torsions:
REMARK  status: ('A' for Active; 'I' for Inactive)
REMARK    1  A    between atoms: C_1  and  C_2
REMARK    2  A    between atoms: C_2  and  C_3
REMARK    3  A    between atoms: C_3  and  C_4
REMARK    4  A    between atoms: C_7  and  C_10
REMARK    5  A    between atoms: C_10  and  C_12
REMARK    6  A    between atoms: C_14  and  C_37
REMARK    7  A    between atoms: C_37  and  O_39
REMARK    8  A    between atoms: O_39  and  C_40
REMARK    9  A    between atoms: C_40  and  C_41
REMARK                            x       y       z     vdW  Elec       q    Type
REMARK                         _______ _______ _______ _____ _____    ______ ____
ROOT
ATOM      1  C   UNL     1       1.466   1.937  -0.002  0.00  0.00    +0.113 C 
ATOM      2  C   UNL     1       2.208   0.571   0.065  0.00  0.00    +0.195 C 
ATOM      3  N   UNL     1       1.214  -0.330   0.660  0.00  0.00    -0.308 N 
ATOM      4  C   UNL     1       1.404  -1.687   0.544  0.00  0.00    +0.038 A 
ATOM      5  C   UNL     1       2.613  -2.268   0.215  0.00  0.00    +0.024 A 
ATOM      6  C   UNL     1       2.712  -3.644   0.113  0.00  0.00    +0.002 A 
ATOM      7  C   UNL     1       1.606  -4.446   0.338  0.00  0.00    +0.001 A 
ATOM      8  C   UNL     1       0.390  -3.883   0.672  0.00  0.00    +0.010 A 
ATOM      9  C   UNL     1       0.276  -2.504   0.779  0.00  0.00    -0.004 A 
ATOM     10  C   UNL     1      -1.008  -1.855   1.137  0.00  0.00    +0.007 C 
ATOM     11  C   UNL     1      -1.190  -0.580   0.745  0.00  0.00    -0.003 C 
ATOM     12  C   UNL     1      -0.060   0.044  -0.015  0.00  0.00    +0.118 C 
ATOM     13  C   UNL     1      -0.031   1.564  -0.019  0.00  0.00    +0.108 C 
ATOM     14  C   UNL     1      -0.727   2.151  -1.200  0.00  0.00    -0.008 A 
ATOM     15  C   UNL     1      -0.531   1.994  -2.556  0.00  0.00    +0.006 A 
ATOM     16  C   UNL     1      -1.375   2.703  -3.403  0.00  0.00    +0.000 A 
ATOM     17  C   UNL     1      -2.365   3.527  -2.906  0.00  0.00    +0.002 A 
ATOM     18  C   UNL     1      -2.568   3.691  -1.545  0.00  0.00    +0.023 A 
ATOM     19  C   UNL     1      -1.728   2.985  -0.683  0.00  0.00    +0.038 A 
ATOM     20  N   UNL     1      -1.708   2.960   0.701  0.00  0.00    -0.284 N 
ATOM     21  C   UNL     1      -0.739   2.147   1.178  0.00  0.00    +0.231 C 
ATOM     22  O   UNL     1      -0.488   1.927   2.344  0.00  0.00    -0.274 OA
ATOM     23  H   UNL     1      -2.316   3.466   1.262  0.00  0.00    +0.155 HD
ENDROOT
BRANCH   1  24
ATOM     24  C   UNL     1       1.786   2.769   1.213  0.00  0.00    +0.170 C 
ATOM     25  O   UNL     1       2.166   2.233   2.232  0.00  0.00    -0.292 OA
BRANCH  24  29
ATOM     26  C   UNL     1       1.359   6.987   1.067  0.00  0.00    -0.047 A 
ATOM     27  C   UNL     1       1.793   6.378   2.232  0.00  0.00    +0.004 A 
ATOM     28  C   UNL     1       1.934   5.008   2.288  0.00  0.00    +0.011 A 
ATOM     29  C   UNL     1       1.638   4.232   1.163  0.00  0.00    +0.018 A 
ATOM     30  C   UNL     1       1.206   4.854  -0.013  0.00  0.00    +0.011 A 
ATOM     31  C   UNL     1       1.064   6.226  -0.051  0.00  0.00    +0.004 A 
BRANCH  26  32
ATOM     32  C   UNL     1       1.208   8.485   1.015  0.00  0.00    +0.035 C 
BRANCH  32  34
ATOM     33  C   UNL     1       2.371  10.636   0.499  0.00  0.00    +0.004 C 
ATOM     34  C   UNL     1       2.524   9.114   0.552  0.00  0.00    +0.001 C 
ENDBRANCH  32  34
ENDBRANCH  26  32
ENDBRANCH  24  29
ENDBRANCH   1  24
BRANCH   2  35
ATOM     35  C   UNL     1       2.587   0.105  -1.317  0.00  0.00    +0.329 C 
ATOM     36  O   UNL     1       1.870  -0.663  -1.913  0.00  0.00    -0.249 OA
BRANCH  35  37
ATOM     37  O   UNL     1       3.721   0.544  -1.886  0.00  0.00    -0.464 OA
BRANCH  37  38
ATOM     38  C   UNL     1       4.023   0.054  -3.219  0.00  0.00    +0.229 C 
ATOM     39  C   UNL     1       5.344   0.659  -3.698  0.00  0.00    +0.048 C 
ENDBRANCH  37  38
ENDBRANCH  35  37
ENDBRANCH   2  35
TORSDOF 7
