REMARK  Name = ZINC33689942
REMARK  7 active torsions:
REMARK  status: ('A' for Active; 'I' for Inactive)
REMARK    1  A    between atoms: C_1  and  C_2
REMARK    2  A    between atoms: C_6  and  N_8
REMARK    3  A    between atoms: C_9  and  C_11
REMARK    4  A    between atoms: N_16  and  C_27
REMARK    5  A    between atoms: N_18  and  C_19
REMARK    6  A    between atoms: C_27  and  C_28
REMARK    7  A    between atoms: C_28  and  C_29
REMARK                            x       y       z     vdW  Elec       q    Type
REMARK                         _______ _______ _______ _____ _____    ______ ____
ROOT
ATOM      1  C   UNL     1      -0.129  -4.898   3.686  0.00  0.00    +0.149 C 
ATOM      2  C   UNL     1       0.606  -6.235   3.563  0.00  0.00    +0.120 C 
ATOM      3  C   UNL     1       0.373  -7.122   4.737  0.00  0.00    +0.223 C 
ATOM      4  O   UNL     1       1.261  -7.909   4.986  0.00  0.00    -0.275 OA
ATOM      5  N   UNL     1      -0.676  -7.165   5.545  0.00  0.00    -0.250 N 
ATOM      6  C   UNL     1      -1.721  -6.260   5.514  0.00  0.00    +0.164 C 
ATOM      7  N   UNL     1      -2.562  -6.152   6.515  0.00  0.00    -0.226 NA
ATOM      8  S   UNL     1      -1.877  -5.250   4.065  0.00  0.00    -0.077 S 
ENDROOT
BRANCH   7   9
ATOM      9  C   UNL     1      -3.587  -5.245   6.454  0.00  0.00    +0.067 A 
ATOM     10  C   UNL     1      -3.348  -3.947   6.000  0.00  0.00    +0.029 A 
ATOM     11  C   UNL     1      -4.385  -3.038   5.940  0.00  0.00    +0.022 A 
ATOM     12  C   UNL     1      -5.660  -3.412   6.329  0.00  0.00    +0.041 A 
ATOM     13  C   UNL     1      -5.903  -4.699   6.781  0.00  0.00    +0.022 A 
ATOM     14  C   UNL     1      -4.876  -5.618   6.839  0.00  0.00    +0.029 A 
ATOM     15 CL   UNL     1      -6.959  -2.264   6.252  0.00  0.00    -0.084 Cl
ENDBRANCH   7   9
BRANCH   1  17
ATOM     16  N   UNL     1       0.052  -2.797   2.393  0.00  0.00    -0.285 N 
ATOM     17  C   UNL     1      -0.031  -4.143   2.385  0.00  0.00    +0.231 C 
ATOM     18  O   UNL     1      -0.028  -4.745   1.333  0.00  0.00    -0.274 OA
ATOM     19  H   UNL     1       0.127  -2.321   3.234  0.00  0.00    +0.155 HD
BRANCH  16  25
ATOM     20  C   UNL     1       1.524   1.061  -0.275  0.00  0.00    +0.044 C 
ATOM     21  C   UNL     1       0.735  -0.215  -0.134  0.00  0.00    -0.049 A 
ATOM     22  C   UNL     1      -0.011  -0.687  -1.199  0.00  0.00    +0.003 A 
ATOM     23  C   UNL     1      -0.736  -1.857  -1.074  0.00  0.00    +0.002 A 
ATOM     24  C   UNL     1      -0.717  -2.559   0.116  0.00  0.00    +0.023 A 
ATOM     25  C   UNL     1       0.031  -2.089   1.186  0.00  0.00    +0.034 A 
ATOM     26  C   UNL     1       0.763  -0.915   1.056  0.00  0.00    +0.026 A 
ENDBRANCH  16  25
ENDBRANCH   1  17
BRANCH   5  27
ATOM     27  C   UNL     1      -0.732  -8.242   6.538  0.00  0.00    +0.120 C 
BRANCH  27  28
ATOM     28  C   UNL     1      -0.056  -7.780   7.830  0.00  0.00    +0.054 C 
BRANCH  28  29
ATOM     29  C   UNL     1      -0.114  -8.887   8.851  0.00  0.00    -0.046 A 
ATOM     30  C   UNL     1      -1.191  -8.977   9.713  0.00  0.00    +0.005 A 
ATOM     31  C   UNL     1      -1.244  -9.992  10.649  0.00  0.00    +0.020 A 
ATOM     32  C   UNL     1      -0.219 -10.918  10.724  0.00  0.00    +0.041 A 
ATOM     33  C   UNL     1       0.858 -10.828   9.861  0.00  0.00    +0.020 A 
ATOM     34  C   UNL     1       0.908  -9.816   8.921  0.00  0.00    +0.005 A 
ATOM     35 CL   UNL     1      -0.286 -12.194  11.900  0.00  0.00    -0.084 Cl
ENDBRANCH  28  29
ENDBRANCH  27  28
ENDBRANCH   5  27
TORSDOF 6
