REMARK  Name = ZINC15860412
REMARK  7 active torsions:
REMARK  status: ('A' for Active; 'I' for Inactive)
REMARK    1  A    between atoms: C_1  and  C_2
REMARK    2  A    between atoms: C_5  and  C_7
REMARK    3  A    between atoms: C_7  and  C_9
REMARK    4  A    between atoms: C_7  and  N_53
REMARK    5  A    between atoms: C_9  and  N_10
REMARK    6  A    between atoms: C_11  and  C_13
REMARK    7  A    between atoms: C_14  and  C_23
REMARK                            x       y       z     vdW  Elec       q    Type
REMARK                         _______ _______ _______ _____ _____    ______ ____
ROOT
ATOM      1  C   UNL     1      -4.502   1.351   3.383  0.00  0.00    +0.097 C 
ENDROOT
BRANCH   1   2
ATOM      2  N   UNL     1      -5.858   1.734   3.785  0.00  0.00    -0.310 N 
ATOM      3  C   UNL     1      -6.772   0.783   4.064  0.00  0.00    +0.280 C 
ATOM      4  O   UNL     1      -6.471  -0.393   3.982  0.00  0.00    -0.267 OA
ATOM      5  H   UNL     1      -6.098   2.671   3.851  0.00  0.00    +0.149 HD
BRANCH   3   6
ATOM      6  C   UNL     1      -8.132   1.167   4.468  0.00  0.00    +0.193 A 
ATOM      7  C   UNL     1      -9.132   0.299   4.771  0.00  0.00    +0.008 A 
ATOM      8  C   UNL     1     -10.292   1.121   5.112  0.00  0.00    +0.025 A 
ATOM      9  C   UNL     1     -11.603   0.840   5.505  0.00  0.00    +0.032 A 
ATOM     10  C   UNL     1     -12.470   1.866   5.758  0.00  0.00    +0.042 A 
ATOM     11  C   UNL     1     -12.055   3.186   5.626  0.00  0.00    +0.023 A 
ATOM     12  C   UNL     1     -10.766   3.483   5.239  0.00  0.00    +0.048 A 
ATOM     13  C   UNL     1      -9.867   2.456   4.977  0.00  0.00    +0.136 A 
ATOM     14  O   UNL     1      -8.575   2.435   4.598  0.00  0.00    -0.450 OA
ATOM     15 CL   UNL     1     -14.099   1.519   6.245  0.00  0.00    -0.084 Cl
ATOM     16  C   UNL     1      -9.059  -1.206   4.759  0.00  0.00    +0.048 C 
ENDBRANCH   3   6
ENDBRANCH   1   2
BRANCH   1  17
ATOM     17  C   UNL     1      -3.672   2.610   3.127  0.00  0.00    +0.016 C 
BRANCH  17  23
ATOM     18  C   UNL     1      -4.611   2.720   0.899  0.00  0.00    -0.078 C 
ATOM     19  C   UNL     1      -5.451   3.582  -0.046  0.00  0.00    -0.019 C 
ATOM     20  C   UNL     1      -4.700   4.883  -0.345  0.00  0.00    -0.004 C 
ATOM     21  C   UNL     1      -4.407   5.608   0.971  0.00  0.00    -0.019 C 
ATOM     22  C   UNL     1      -3.596   4.687   1.886  0.00  0.00    -0.078 C 
ATOM     23  N   UNL     1      -4.384   3.465   2.155  0.00  0.00    +0.387 N 
ATOM     24  H   UNL     1      -5.292   3.735   2.551  0.00  0.00    -0.081 HD
ENDBRANCH  17  23
BRANCH  17  29
ATOM     25  C   UNL     1      -0.063   0.961   0.013  0.00  0.00    +0.086 C 
ATOM     26  C   UNL     1      -0.747   1.502   1.242  0.00  0.00    +0.102 A 
ATOM     27  C   UNL     1      -0.145   1.827   2.400  0.00  0.00    +0.044 A 
ATOM     28  C   UNL     1      -1.156   2.289   3.273  0.00  0.00    +0.043 A 
ATOM     29  C   UNL     1      -2.317   2.219   2.596  0.00  0.00    +0.093 A 
ATOM     30  O   UNL     1      -2.062   1.747   1.365  0.00  0.00    -0.466 OA
ENDBRANCH  17  29
ENDBRANCH   1  17
TORSDOF 5
