REMARK  Name = ZINC03444876
REMARK  12 active torsions:
REMARK  status: ('A' for Active; 'I' for Inactive)
REMARK    1  A    between atoms: C_1  and  C_2
REMARK    2  A    between atoms: C_2  and  C_3
REMARK    3  A    between atoms: C_2  and  N_4
REMARK    4  A    between atoms: N_4  and  C_5
REMARK    5  A    between atoms: N_4  and  C_33
REMARK    6  A    between atoms: C_5  and  C_6
REMARK    7  A    between atoms: C_6  and  N_7
REMARK    8  A    between atoms: C_17  and  S_18
REMARK    9  A    between atoms: S_18  and  C_19
REMARK   10  A    between atoms: C_19  and  C_20
REMARK   11  A    between atoms: C_33  and  C_34
REMARK   12  A    between atoms: C_33  and  C_35
REMARK                            x       y       z     vdW  Elec       q    Type
REMARK                         _______ _______ _______ _____ _____    ______ ____
ROOT
ATOM      1  N   UNL     1       0.720   1.022   4.799  0.00  0.00    -0.289 N 
ATOM      2  C   UNL     1       0.177   2.259   4.892  0.00  0.00    +0.262 A 
ATOM      3  O   UNL     1       0.172   3.019   3.941  0.00  0.00    -0.267 OA
ATOM      4  C   UNL     1      -0.406   2.649   6.182  0.00  0.00    +0.065 A 
ATOM      5  C   UNL     1      -0.989   3.900   6.379  0.00  0.00    +0.015 A 
ATOM      6  C   UNL     1      -1.518   4.212   7.601  0.00  0.00    +0.001 A 
ATOM      7  C   UNL     1      -1.480   3.297   8.646  0.00  0.00    +0.002 A 
ATOM      8  C   UNL     1      -0.914   2.064   8.480  0.00  0.00    +0.028 A 
ATOM      9  C   UNL     1      -0.365   1.715   7.243  0.00  0.00    +0.079 A 
ATOM     10  N   UNL     1       0.202   0.510   7.036  0.00  0.00    -0.223 NA
ATOM     11  C   UNL     1       0.711   0.181   5.875  0.00  0.00    +0.173 A 
ENDROOT
BRANCH   1  12
ATOM     12  C   UNL     1       1.315   0.581   3.535  0.00  0.00    +0.109 C 
BRANCH  12  13
ATOM     13  C   UNL     1       0.244  -0.095   2.676  0.00  0.00    -0.056 C 
BRANCH  13  14
ATOM     14  N   UNL     1       0.841  -0.539   1.410  0.00  0.00    +0.384 N 
ATOM     15  H   UNL     1       1.281   0.246   0.952  0.00  0.00    -0.081 HD
BRANCH  14  17
ATOM     16  C   UNL     1      -1.269  -0.016   0.281  0.00  0.00    -0.014 C 
ATOM     17  C   UNL     1      -0.208  -1.087   0.540  0.00  0.00    -0.074 C 
ATOM     18  C   UNL     1       0.410  -1.525  -0.790  0.00  0.00    -0.014 C 
ENDBRANCH  14  17
BRANCH  14  19
ATOM     19  C   UNL     1       1.846  -1.576   1.679  0.00  0.00    -0.074 C 
ATOM     20  C   UNL     1       1.157  -2.936   1.796  0.00  0.00    -0.014 C 
ATOM     21  C   UNL     1       2.859  -1.614   0.532  0.00  0.00    -0.014 C 
ENDBRANCH  14  19
ENDBRANCH  13  14
ENDBRANCH  12  13
ENDBRANCH   1  12
BRANCH  11  22
ATOM     22  S   UNL     1       1.426  -1.420   5.695  0.00  0.00    -0.078 S 
BRANCH  22  23
ATOM     23  C   UNL     1       1.205  -2.185   7.324  0.00  0.00    +0.173 C 
BRANCH  23  24
ATOM     24  C   UNL     1       1.781  -3.578   7.308  0.00  0.00    +0.231 C 
ATOM     25  O   UNL     1       2.290  -4.011   6.296  0.00  0.00    -0.274 OA
ATOM     26  N   UNL     1       1.729  -4.342   8.417  0.00  0.00    -0.260 N 
ATOM     27  C   UNL     1       1.112  -3.842   9.654  0.00  0.00    +0.209 C 
ATOM     28  C   UNL     1       1.968  -4.245  10.828  0.00  0.00    +0.235 C 
ATOM     29  O   UNL     1       1.981  -3.553  11.824  0.00  0.00    -0.274 OA
ATOM     30  N   UNL     1       2.717  -5.362  10.784  0.00  0.00    -0.283 N 
ATOM     31  C   UNL     1       2.757  -6.152   9.629  0.00  0.00    +0.055 A 
ATOM     32  C   UNL     1       2.259  -5.642   8.426  0.00  0.00    +0.058 A 
ATOM     33  C   UNL     1       2.293  -6.407   7.275  0.00  0.00    +0.025 A 
ATOM     34  C   UNL     1       2.817  -7.687   7.317  0.00  0.00    +0.002 A 
ATOM     35  C   UNL     1       3.305  -8.200   8.505  0.00  0.00    +0.002 A 
ATOM     36  C   UNL     1       3.283  -7.433   9.665  0.00  0.00    +0.025 A 
ATOM     37  H   UNL     1       3.234  -5.624  11.562  0.00  0.00    +0.155 HD
ENDBRANCH  23  24
ENDBRANCH  22  23
ENDBRANCH  11  22
TORSDOF 8
