REMARK  Name = ZINC25680034
REMARK  9 active torsions:
REMARK  status: ('A' for Active; 'I' for Inactive)
REMARK    1  A    between atoms: C_1  and  N_2
REMARK    2  A    between atoms: N_2  and  C_3
REMARK    3  A    between atoms: N_2  and  C_14
REMARK    4  A    between atoms: C_3  and  C_4
REMARK    5  A    between atoms: C_6  and  N_11
REMARK    6  A    between atoms: C_14  and  C_15
REMARK    7  A    between atoms: N_17  and  C_18
REMARK    8  A    between atoms: C_18  and  C_19
REMARK    9  A    between atoms: C_19  and  N_25
REMARK                            x       y       z     vdW  Elec       q    Type
REMARK                         _______ _______ _______ _____ _____    ______ ____
ROOT
ATOM      1  C   UNL     1       0.845   2.316  -0.592  0.00  0.00    +0.197 C 
ATOM      2  O   UNL     1       1.935   1.805  -0.740  0.00  0.00    -0.278 OA
ATOM      3  N   UNL     1      -0.219   1.553  -0.269  0.00  0.00    -0.315 N 
ATOM      4  H   UNL     1      -1.207   2.016  -0.135  0.00  0.00    +0.149 HD
ENDROOT
BRANCH   1   5
ATOM      5  C   UNL     1       0.679   3.803  -0.769  0.00  0.00    +0.019 C 
BRANCH   5   7
ATOM      6  C   UNL     1       2.432   3.942  -2.433  0.00  0.00    -0.095 C 
ATOM      7  N   UNL     1       1.975   4.402  -1.115  0.00  0.00    +0.386 N 
ATOM      8  H   UNL     1       2.711   4.071  -0.367  0.00  0.00    -0.081 HD
BRANCH   7   9
ATOM      9  C   UNL     1       1.907   5.869  -1.063  0.00  0.00    -0.041 C 
BRANCH   9  10
ATOM     10  C   UNL     1       3.297   6.440  -1.180  0.00  0.00    -0.043 A 
ATOM     11  C   UNL     1       3.709   7.019  -2.366  0.00  0.00    +0.036 A 
ATOM     12  C   UNL     1       4.981   7.548  -2.472  0.00  0.00    +0.126 A 
ATOM     13  C   UNL     1       5.847   7.489  -1.395  0.00  0.00    +0.034 A 
ATOM     14  C   UNL     1       5.438   6.905  -0.211  0.00  0.00    +0.022 A 
ATOM     15  C   UNL     1       4.162   6.380  -0.103  0.00  0.00    +0.042 A 
ATOM     16 CL   UNL     1       3.648   5.647   1.385  0.00  0.00    -0.083 Cl
BRANCH  12  17
ATOM     17  N   UNL     1       5.420   8.172  -3.740  0.00  0.00    +0.056 N 
ATOM     18  O   UNL     1       6.543   8.634  -3.835  0.00  0.00    -0.126 OA
ATOM     19  O   UNL     1       4.658   8.225  -4.689  0.00  0.00    -0.126 OA
ENDBRANCH  12  17
ENDBRANCH   9  10
ENDBRANCH   7   9
ENDBRANCH   5   7
ENDBRANCH   1   5
BRANCH   3  20
ATOM     20  C   UNL     1      -0.058   0.107  -0.098  0.00  0.00    +0.126 C 
BRANCH  20  21
ATOM     21  C   UNL     1      -1.427  -0.534   0.139  0.00  0.00    +0.038 C 
ATOM     22  C   UNL     1      -1.246  -2.021   0.450  0.00  0.00    +0.024 C 
ATOM     23  C   UNL     1      -0.558  -2.710  -0.730  0.00  0.00    +0.002 C 
ATOM     24  C   UNL     1      -1.418  -2.552  -1.985  0.00  0.00    +0.000 C 
ATOM     25  C   UNL     1      -1.598  -1.065  -2.297  0.00  0.00    +0.002 C 
ATOM     26  C   UNL     1      -2.287  -0.377  -1.117  0.00  0.00    +0.024 C 
BRANCH  21  27
ATOM     27  N   UNL     1      -2.088   0.127   1.272  0.00  0.00    -0.291 NA
ATOM     28  C   UNL     1      -1.263   0.042   2.486  0.00  0.00    +0.113 C 
ATOM     29  C   UNL     1      -1.961   0.793   3.623  0.00  0.00    +0.175 C 
ATOM     30  O   UNL     1      -3.268   0.246   3.817  0.00  0.00    -0.377 OA
ATOM     31  C   UNL     1      -4.098   0.313   2.655  0.00  0.00    +0.175 C 
ATOM     32  C   UNL     1      -3.423  -0.443   1.508  0.00  0.00    +0.113 C 
ENDBRANCH  21  27
ENDBRANCH  20  21
ENDBRANCH   3  20
TORSDOF 8
