REMARK  Name = ZINC39682858
REMARK  8 active torsions:
REMARK  status: ('A' for Active; 'I' for Inactive)
REMARK    1  A    between atoms: C_5  and  C_7
REMARK    2  A    between atoms: C_10  and  C_12
REMARK    3  A    between atoms: C_16  and  C_25
REMARK    4  A    between atoms: N_27  and  C_28
REMARK    5  A    between atoms: C_28  and  C_29
REMARK    6  A    between atoms: C_29  and  C_30
REMARK    7  A    between atoms: C_30  and  C_31
REMARK    8  A    between atoms: C_31  and  C_32
REMARK                            x       y       z     vdW  Elec       q    Type
REMARK                         _______ _______ _______ _____ _____    ______ ____
ROOT
ATOM      1  C   UNL     1       2.205  -5.077  -1.305  0.00  0.00    +0.282 C 
ATOM      2  O   UNL     1       1.844  -6.170  -0.909  0.00  0.00    -0.267 OA
ATOM      3  N   UNL     1       3.094  -4.985  -2.314  0.00  0.00    -0.294 N 
ATOM      4  C   UNL     1       3.653  -3.755  -2.922  0.00  0.00    +0.121 C 
ATOM      5  C   UNL     1       5.138  -4.088  -3.184  0.00  0.00    +0.100 C 
ATOM      6  C   UNL     1       5.185  -5.623  -3.278  0.00  0.00    -0.004 C 
ATOM      7  C   UNL     1       3.739  -6.091  -3.060  0.00  0.00    +0.115 C 
ATOM      8  C   UNL     1       5.679  -6.053  -4.656  0.00  0.00    -0.010 C 
ATOM      9  C   UNL     1       5.772  -7.581  -4.706  0.00  0.00    -0.082 C 
ATOM     10  N   UNL     1       6.694  -8.051  -3.665  0.00  0.00    +0.379 N 
ATOM     11  C   UNL     1       6.165  -7.714  -2.338  0.00  0.00    -0.082 C 
ATOM     12  C   UNL     1       6.088  -6.192  -2.188  0.00  0.00    -0.010 C 
ATOM     13  H   UNL     1       6.801  -9.051  -3.739  0.00  0.00    -0.086 HD
ATOM     14  H   UNL     1       7.593  -7.609  -3.789  0.00  0.00    -0.086 HD
ENDROOT
BRANCH   1  18
ATOM     15  C   UNL     1       1.308  -1.740  -0.243  0.00  0.00    +0.139 A 
ATOM     16  C   UNL     1       0.536  -2.460   0.624  0.00  0.00    +0.051 A 
ATOM     17  C   UNL     1       0.763  -3.812   0.349  0.00  0.00    +0.055 A 
ATOM     18  C   UNL     1       1.673  -3.861  -0.685  0.00  0.00    +0.190 A 
ATOM     19  O   UNL     1       1.984  -2.594  -1.030  0.00  0.00    -0.450 OA
BRANCH  15  24
ATOM     20  C   UNL     1       0.287   1.869  -0.427  0.00  0.00    +0.001 A 
ATOM     21  C   UNL     1       1.520   2.498  -0.434  0.00  0.00    +0.003 A 
ATOM     22  C   UNL     1       2.684   1.755  -0.379  0.00  0.00    +0.039 A 
ATOM     23  C   UNL     1       2.624   0.375  -0.316  0.00  0.00    +0.134 A 
ATOM     24  C   UNL     1       1.382  -0.267  -0.309  0.00  0.00    +0.052 A 
ATOM     25  C   UNL     1       0.211   0.493  -0.365  0.00  0.00    +0.014 A 
ATOM     26  F   UNL     1       3.762  -0.351  -0.263  0.00  0.00    -0.205 F 
ENDBRANCH  15  24
ENDBRANCH   1  18
BRANCH   5  27
ATOM     27  C   UNL     1       5.994  -3.604  -2.042  0.00  0.00    +0.218 C 
ATOM     28  O   UNL     1       5.537  -3.556  -0.919  0.00  0.00    -0.275 OA
ATOM     29  N   UNL     1       7.268  -3.225  -2.267  0.00  0.00    -0.315 N 
ATOM     30  H   UNL     1       7.633  -3.264  -3.164  0.00  0.00    +0.149 HD
BRANCH  29  31
ATOM     31  C   UNL     1       8.099  -2.755  -1.157  0.00  0.00    +0.104 C 
BRANCH  31  32
ATOM     32  C   UNL     1       9.490  -2.389  -1.680  0.00  0.00    +0.019 C 
BRANCH  32  33
ATOM     33  C   UNL     1      10.358  -1.898  -0.520  0.00  0.00    +0.013 C 
BRANCH  33  34
ATOM     34  C   UNL     1      11.749  -1.533  -1.044  0.00  0.00    +0.125 C 
BRANCH  34  35
ATOM     35  C   UNL     1      12.604  -1.048   0.099  0.00  0.00    +0.356 C 
ATOM     36  O   UNL     1      12.144  -1.000   1.227  0.00  0.00    -0.246 OA
ATOM     37  O   UNL     1      13.756  -0.705  -0.105  0.00  0.00    -0.246 OA
ENDBRANCH  34  35
ENDBRANCH  33  34
ENDBRANCH  32  33
ENDBRANCH  31  32
ENDBRANCH  29  31
ENDBRANCH   5  27
TORSDOF 8
