REMARK  Name = ZINC20942416
REMARK  4 active torsions:
REMARK  status: ('A' for Active; 'I' for Inactive)
REMARK    1  A    between atoms: C_7  and  N_24
REMARK    2  A    between atoms: C_8  and  C_10
REMARK    3  A    between atoms: C_25  and  C_27
REMARK    4  A    between atoms: C_28  and  C_29
REMARK                            x       y       z     vdW  Elec       q    Type
REMARK                         _______ _______ _______ _____ _____    ______ ____
ROOT
ATOM      1  C   UNL     1      -2.317  10.568  -6.235  0.00  0.00    +0.001 A 
ATOM      2  C   UNL     1      -3.263   9.761  -5.618  0.00  0.00    +0.004 A 
ATOM      3  C   UNL     1      -3.011   9.197  -4.386  0.00  0.00    +0.047 A 
ATOM      4  C   UNL     1      -1.798   9.435  -3.751  0.00  0.00    +0.138 A 
ATOM      5  C   UNL     1      -0.844  10.253  -4.381  0.00  0.00    +0.042 A 
ATOM      6  C   UNL     1      -1.118  10.815  -5.628  0.00  0.00    +0.013 A 
ATOM      7  C   UNL     1       0.304  10.304  -3.467  0.00  0.00    +0.092 A 
ATOM      8  C   UNL     1      -0.040   9.535  -2.390  0.00  0.00    +0.212 A 
ATOM      9  O   UNL     1      -1.279   9.026  -2.576  0.00  0.00    -0.448 OA
ENDROOT
BRANCH   8  10
ATOM     10  C   UNL     1       0.803   9.294  -1.222  0.00  0.00    +0.284 C 
ATOM     11  O   UNL     1       1.634   8.404  -1.243  0.00  0.00    -0.267 OA
ATOM     12  N   UNL     1       0.662  10.058  -0.120  0.00  0.00    -0.292 N 
ATOM     13  C   UNL     1       1.429   9.769   1.102  0.00  0.00    +0.127 C 
ATOM     14  C   UNL     1       0.456   9.706   2.284  0.00  0.00    +0.125 C 
ATOM     15  N   UNL     1      -0.339  10.941   2.326  0.00  0.00    -0.314 N 
ATOM     16  C   UNL     1      -1.168  11.082   1.122  0.00  0.00    +0.125 C 
ATOM     17  C   UNL     1      -0.262  11.202  -0.108  0.00  0.00    +0.127 C 
ATOM     18  C   UNL     1      -1.118  10.992   3.476  0.00  0.00    +0.099 A 
ATOM     19  C   UNL     1      -1.944  12.089   3.701  0.00  0.00    +0.042 A 
ATOM     20  C   UNL     1      -2.717  12.125   4.847  0.00  0.00    +0.005 A 
ATOM     21  C   UNL     1      -2.630  11.064   5.739  0.00  0.00    +0.018 A 
ATOM     22  C   UNL     1      -1.789  10.008   5.453  0.00  0.00    +0.084 A 
ATOM     23  N   UNL     1      -1.066   9.998   4.349  0.00  0.00    -0.350 N 
ATOM     24  H   UNL     1      -0.409   9.136   4.162  0.00  0.00    +0.166 HD
ENDBRANCH   8  10
BRANCH   7  25
ATOM     25  N   UNL     1       1.494  10.993  -3.658  0.00  0.00    -0.278 N 
ATOM     26  C   UNL     1       1.492  12.180  -4.296  0.00  0.00    +0.241 C 
ATOM     27  O   UNL     1       0.463  12.603  -4.792  0.00  0.00    -0.270 OA
ATOM     28  H   UNL     1       2.440  10.569  -3.288  0.00  0.00    +0.155 HD
BRANCH  26  29
ATOM     29  C   UNL     1       2.684  12.934  -4.390  0.00  0.00    +0.068 C 
ATOM     30  C   UNL     1       2.682  14.130  -5.033  0.00  0.00    +0.020 C 
BRANCH  30  31
ATOM     31  C   UNL     1       3.875  14.885  -5.127  0.00  0.00    +0.012 A 
ATOM     32  C   UNL     1       4.086  16.118  -5.734  0.00  0.00    +0.015 A 
ATOM     33  C   UNL     1       5.358  16.630  -5.677  0.00  0.00    +0.008 A 
ATOM     34  C   UNL     1       6.331  15.923  -5.044  0.00  0.00    +0.046 A 
ATOM     35  S   UNL     1       5.498  14.507  -4.491  0.00  0.00    -0.097 S 
ENDBRANCH  30  31
ENDBRANCH  26  29
ENDBRANCH   7  25
TORSDOF 4
