REMARK  Name = ZINC25753562
REMARK  9 active torsions:
REMARK  status: ('A' for Active; 'I' for Inactive)
REMARK    1  A    between atoms: C_7  and  C_10
REMARK    2  A    between atoms: C_10  and  N_11
REMARK    3  A    between atoms: N_14  and  C_17
REMARK    4  A    between atoms: C_17  and  C_18
REMARK    5  A    between atoms: C_18  and  C_20
REMARK    6  A    between atoms: C_18  and  O_31
REMARK    7  A    between atoms: C_20  and  O_21
REMARK    8  A    between atoms: O_21  and  C_22
REMARK    9  A    between atoms: C_26  and  N_28
REMARK                            x       y       z     vdW  Elec       q    Type
REMARK                         _______ _______ _______ _____ _____    ______ ____
ROOT
ATOM      1  N   UNL     1      -0.942   1.336   1.124  0.00  0.00    +0.384 N 
ATOM      2  C   UNL     1      -0.279   0.859  -0.097  0.00  0.00    -0.063 C 
ATOM      3  C   UNL     1      -0.952   1.487  -1.319  0.00  0.00    +0.066 C 
ATOM      4  N   UNL     1      -0.875   2.951  -1.220  0.00  0.00    -0.303 NA
ATOM      5  C   UNL     1      -1.539   3.429   0.002  0.00  0.00    +0.066 C 
ATOM      6  C   UNL     1      -0.866   2.800   1.224  0.00  0.00    -0.063 C 
ATOM      7  H   UNL     1      -2.004   1.055   1.066  0.00  0.00    -0.081 HD
ENDROOT
BRANCH   1   8
ATOM      8  C   UNL     1      -0.372   0.697   2.318  0.00  0.00    -0.042 C 
BRANCH   8  15
ATOM      9  C   UNL     1      -4.372  -0.026   4.165  0.00  0.00    +0.001 A 
ATOM     10  C   UNL     1      -4.712   0.685   5.309  0.00  0.00    +0.001 A 
ATOM     11  C   UNL     1      -3.813   1.589   5.840  0.00  0.00    +0.015 A 
ATOM     12  C   UNL     1      -2.592   1.771   5.227  0.00  0.00    +0.020 A 
ATOM     13  C   UNL     1      -2.222   1.061   4.064  0.00  0.00    -0.009 A 
ATOM     14  C   UNL     1      -3.171   0.145   3.552  0.00  0.00    +0.009 A 
ATOM     15  C   UNL     1      -0.897   1.381   3.554  0.00  0.00    -0.049 A 
ATOM     16  C   UNL     1      -0.146   2.285   4.197  0.00  0.00    +0.048 A 
ATOM     17  S   UNL     1      -1.181   2.795   5.556  0.00  0.00    -0.096 S 
ENDBRANCH   8  15
ENDBRANCH   1   8
BRANCH   4  18
ATOM     18  C   UNL     1      -1.445   3.591  -2.413  0.00  0.00    +0.119 C 
BRANCH  18  19
ATOM     19  C   UNL     1      -0.579   3.261  -3.631  0.00  0.00    +0.166 C 
BRANCH  19  20
ATOM     20  O   UNL     1       0.745   3.755  -3.422  0.00  0.00    -0.387 OA
ATOM     21  H   UNL     1       1.514   3.610  -4.195  0.00  0.00    +0.210 HD
ENDBRANCH  19  20
BRANCH  19  22
ATOM     22  C   UNL     1      -1.179   3.918  -4.876  0.00  0.00    +0.261 C 
BRANCH  22  23
ATOM     23  O   UNL     1      -0.439   3.515  -6.030  0.00  0.00    -0.489 OA
BRANCH  23  24
ATOM     24  C   UNL     1      -0.844   4.014  -7.227  0.00  0.00    +0.123 A 
ATOM     25  C   UNL     1      -1.932   4.873  -7.290  0.00  0.00    +0.046 A 
ATOM     26  C   UNL     1      -2.341   5.379  -8.508  0.00  0.00    +0.006 A 
ATOM     27  C   UNL     1      -1.668   5.030  -9.665  0.00  0.00    +0.033 A 
ATOM     28  C   UNL     1      -0.584   4.174  -9.605  0.00  0.00    +0.130 A 
ATOM     29  C   UNL     1      -0.168   3.669  -8.388  0.00  0.00    +0.078 A 
BRANCH  28  30
ATOM     30  N   UNL     1       0.134   3.803 -10.845  0.00  0.00    +0.057 N 
ATOM     31  O   UNL     1      -0.230   4.251 -11.917  0.00  0.00    -0.126 OA
ATOM     32  O   UNL     1       1.089   3.048 -10.793  0.00  0.00    -0.126 OA
ENDBRANCH  28  30
ENDBRANCH  23  24
ENDBRANCH  22  23
ENDBRANCH  19  22
ENDBRANCH  18  19
ENDBRANCH   4  18
TORSDOF 9
