REMARK  Name = ZINC20709262
REMARK  5 active torsions:
REMARK  status: ('A' for Active; 'I' for Inactive)
REMARK    1  A    between atoms: C_3  and  O_35
REMARK    2  A    between atoms: C_4  and  C_10
REMARK    3  A    between atoms: C_6  and  N_7
REMARK    4  A    between atoms: C_21  and  S_26
REMARK    5  A    between atoms: S_26  and  N_29
REMARK                            x       y       z     vdW  Elec       q    Type
REMARK                         _______ _______ _______ _____ _____    ______ ____
ROOT
ATOM      1  C   UNL     1      -0.516   2.209   1.274  0.00  0.00    +0.108 C 
ATOM      2  C   UNL     1      -0.019   1.530   0.011  0.00  0.00    +0.029 C 
ATOM      3  C   UNL     1       0.002  -0.004   0.002  0.00  0.00    +0.033 C 
ATOM      4  C   UNL     1       1.159  -0.291  -0.957  0.00  0.00    -0.030 C 
ATOM      5  C   UNL     1       2.008   0.730  -0.963  0.00  0.00    -0.023 C 
ATOM      6  C   UNL     1       1.523   1.755  -0.003  0.00  0.00    +0.049 C 
ATOM      7  C   UNL     1       1.769   3.199  -0.210  0.00  0.00    -0.018 A 
ATOM      8  C   UNL     1       2.840   3.670  -0.939  0.00  0.00    +0.034 A 
ATOM      9  C   UNL     1       3.035   5.030  -1.092  0.00  0.00    +0.106 A 
ATOM     10  C   UNL     1       2.153   5.924  -0.513  0.00  0.00    +0.030 A 
ATOM     11  C   UNL     1       1.075   5.463   0.213  0.00  0.00    +0.025 A 
ATOM     12  C   UNL     1       0.866   4.098   0.368  0.00  0.00    +0.031 A 
ATOM     13  N   UNL     1      -0.255   3.652   1.080  0.00  0.00    -0.336 N 
ATOM     14  H   UNL     1      -0.948   4.398   1.498  0.00  0.00    +0.147 HD
ENDROOT
BRANCH   1  18
ATOM     15  C   UNL     1      -4.706   1.521   1.770  0.00  0.00    +0.036 A 
ATOM     16  C   UNL     1      -3.797   0.586   2.228  0.00  0.00    +0.048 A 
ATOM     17  C   UNL     1      -2.437   0.807   2.068  0.00  0.00    +0.122 A 
ATOM     18  C   UNL     1      -1.993   1.966   1.449  0.00  0.00    +0.017 A 
ATOM     19  C   UNL     1      -2.905   2.901   0.999  0.00  0.00    +0.041 A 
ATOM     20  C   UNL     1      -4.261   2.675   1.154  0.00  0.00    +0.127 A 
BRANCH  20  21
ATOM     21  N   UNL     1      -5.236   3.675   0.665  0.00  0.00    +0.056 N 
ATOM     22  O   UNL     1      -6.430   3.480   0.806  0.00  0.00    -0.126 OA
ATOM     23  O   UNL     1      -4.845   4.692   0.121  0.00  0.00    -0.126 OA
ENDBRANCH  20  21
BRANCH  17  24
ATOM     24  O   UNL     1      -1.541  -0.111   2.517  0.00  0.00    -0.506 OA
ATOM     25  H   UNL     1      -0.463   0.065   2.390  0.00  0.00    +0.292 HD
ENDBRANCH  17  24
ENDBRANCH   1  18
BRANCH   9  26
ATOM     26  S   UNL     1       4.407   5.624  -2.025  0.00  0.00    +0.061 S 
ATOM     27  O   UNL     1       4.772   4.581  -2.918  0.00  0.00    -0.153 OA
ATOM     28  O   UNL     1       4.058   6.926  -2.476  0.00  0.00    -0.153 OA
BRANCH  26  29
ATOM     29  N   UNL     1       5.671   5.810  -0.972  0.00  0.00    -0.172 NA
ATOM     30  C   UNL     1       5.891   7.085  -0.271  0.00  0.00    +0.137 C 
ATOM     31  C   UNL     1       6.052   6.786   1.228  0.00  0.00    +0.177 C 
ATOM     32  O   UNL     1       7.057   5.785   1.401  0.00  0.00    -0.377 OA
ATOM     33  C   UNL     1       6.740   4.527   0.802  0.00  0.00    +0.177 C 
ATOM     34  C   UNL     1       6.611   4.708  -0.715  0.00  0.00    +0.137 C 
ENDBRANCH  26  29
ENDBRANCH   9  26
TORSDOF 5
