REMARK  Name = ZINC59464071
REMARK  8 active torsions:
REMARK  status: ('A' for Active; 'I' for Inactive)
REMARK    1  A    between atoms: C_1  and  C_2
REMARK    2  A    between atoms: C_2  and  C_25
REMARK    3  A    between atoms: N_3  and  N_4
REMARK    4  A    between atoms: C_5  and  C_7
REMARK    5  A    between atoms: C_7  and  N_8
REMARK    6  A    between atoms: N_8  and  C_9
REMARK    7  A    between atoms: N_8  and  S_21
REMARK    8  A    between atoms: S_21  and  C_24
REMARK                            x       y       z     vdW  Elec       q    Type
REMARK                         _______ _______ _______ _____ _____    ______ ____
ROOT
ATOM      1  N   UNL     1      -0.051  -0.854   5.919  0.00  0.00    -0.198 N 
ENDROOT
BRANCH   1   2
ATOM      2  C   UNL     1       1.107  -1.383   6.486  0.00  0.00    +0.059 A 
ATOM      3  C   UNL     1       1.779  -2.425   5.875  0.00  0.00    +0.025 A 
ATOM      4  C   UNL     1       2.940  -2.976   6.418  0.00  0.00    +0.006 A 
ATOM      5  C   UNL     1       3.454  -2.494   7.584  0.00  0.00    -0.039 A 
ATOM      6  C   UNL     1       2.790  -1.445   8.212  0.00  0.00    -0.010 A 
ATOM      7  C   UNL     1       1.621  -0.862   7.691  0.00  0.00    +0.005 A 
ATOM      8  C   UNL     1       1.040   0.196   8.406  0.00  0.00    +0.010 A 
ATOM      9  C   UNL     1       1.633   0.613   9.563  0.00  0.00    +0.001 A 
ATOM     10  C   UNL     1       2.797   0.023  10.060  0.00  0.00    +0.004 A 
ATOM     11  C   UNL     1       3.380  -1.013   9.396  0.00  0.00    -0.039 A 
ATOM     12  C   UNL     1       4.606  -1.863   9.626  0.00  0.00    +0.040 C 
ATOM     13  C   UNL     1       4.655  -2.840   8.431  0.00  0.00    +0.040 C 
ENDBRANCH   1   2
BRANCH   1  14
ATOM     14  S   UNL     1      -1.536  -1.405   6.401  0.00  0.00    +0.043 S 
ATOM     15  O   UNL     1      -1.355  -1.795   7.755  0.00  0.00    -0.155 OA
ATOM     16  O   UNL     1      -2.438  -0.361   6.062  0.00  0.00    -0.155 OA
ATOM     17  C   UNL     1      -1.850  -2.863   5.368  0.00  0.00    +0.218 C 
ENDBRANCH   1  14
BRANCH   1  18
ATOM     18  C   UNL     1       0.046   0.191   4.896  0.00  0.00    +0.228 C 
BRANCH  18  20
ATOM     19  N   UNL     1       0.266   0.321   2.435  0.00  0.00    -0.205 N 
ATOM     20  C   UNL     1       0.225  -0.447   3.542  0.00  0.00    +0.251 C 
ATOM     21  O   UNL     1       0.333  -1.652   3.449  0.00  0.00    -0.272 OA
ATOM     22  H   UNL     1       0.180   1.284   2.510  0.00  0.00    +0.177 HD
BRANCH  19  25
ATOM     23  C   UNL     1       0.339   1.964   0.228  0.00  0.00    +0.068 C 
ATOM     24  C   UNL     1       0.472   0.468   0.111  0.00  0.00    +0.063 C 
ATOM     25  N   UNL     1       0.433  -0.272   1.177  0.00  0.00    -0.185 NA
BRANCH  24  26
ATOM     26  C   UNL     1       0.647  -0.157  -1.213  0.00  0.00    -0.002 A 
ATOM     27  C   UNL     1       0.696   0.637  -2.362  0.00  0.00    +0.011 A 
ATOM     28  C   UNL     1       0.860   0.047  -3.597  0.00  0.00    +0.016 A 
ATOM     29  C   UNL     1       0.977  -1.329  -3.701  0.00  0.00    +0.018 A 
ATOM     30  C   UNL     1       0.929  -2.121  -2.567  0.00  0.00    +0.016 A 
ATOM     31  C   UNL     1       0.771  -1.544  -1.324  0.00  0.00    +0.011 A 
ATOM     32 BR   UNL     1       1.201  -2.129  -5.400  0.00  0.00    -0.050 Br
ENDBRANCH  24  26
ENDBRANCH  19  25
ENDBRANCH  18  20
ENDBRANCH   1  18
TORSDOF 6
