REMARK  Name = ZINC08798335
REMARK  9 active torsions:
REMARK  status: ('A' for Active; 'I' for Inactive)
REMARK    1  A    between atoms: C_1  and  C_2
REMARK    2  A    between atoms: C_2  and  N_3
REMARK    3  A    between atoms: C_5  and  O_35
REMARK    4  A    between atoms: C_8  and  C_34
REMARK    5  A    between atoms: N_12  and  C_13
REMARK    6  A    between atoms: C_13  and  C_15
REMARK    7  A    between atoms: C_18  and  S_21
REMARK    8  A    between atoms: S_21  and  N_24
REMARK    9  A    between atoms: O_35  and  C_36
REMARK                            x       y       z     vdW  Elec       q    Type
REMARK                         _______ _______ _______ _____ _____    ______ ____
ROOT
ATOM      1  C   UNL     1      -0.175   0.209  -0.588  0.00  0.00    +0.039 A 
ATOM      2  C   UNL     1       1.009  -0.511  -0.747  0.00  0.00    +0.015 A 
ATOM      3  C   UNL     1       0.959  -1.870  -0.986  0.00  0.00    +0.029 A 
ATOM      4  C   UNL     1      -0.262  -2.514  -1.077  0.00  0.00    +0.109 A 
ATOM      5  C   UNL     1      -1.439  -1.804  -0.926  0.00  0.00    +0.029 A 
ATOM      6  C   UNL     1      -1.402  -0.446  -0.682  0.00  0.00    +0.015 A 
ENDROOT
BRANCH   4   7
ATOM      7  S   UNL     1      -0.317  -4.248  -1.389  0.00  0.00    +0.075 S 
ATOM      8  O   UNL     1       0.925  -4.779  -0.950  0.00  0.00    -0.150 OA
ATOM      9  O   UNL     1      -1.564  -4.711  -0.888  0.00  0.00    -0.150 OA
BRANCH   7  10
ATOM     10  N   UNL     1      -0.363  -4.449  -3.032  0.00  0.00    -0.203 N 
ATOM     11  C   UNL     1      -1.647  -4.613  -3.728  0.00  0.00    +0.132 C 
ATOM     12  C   UNL     1      -1.491  -5.760  -4.736  0.00  0.00    +0.025 C 
ATOM     13  C   UNL     1      -0.441  -5.365  -5.774  0.00  0.00    +0.038 C 
ATOM     14  C   UNL     1       0.821  -4.900  -5.097  0.00  0.00    -0.025 A 
ATOM     15  C   UNL     1       0.819  -4.459  -3.781  0.00  0.00    +0.054 A 
ATOM     16  C   UNL     1       2.001  -4.038  -3.186  0.00  0.00    +0.025 A 
ATOM     17  C   UNL     1       3.179  -4.049  -3.906  0.00  0.00    +0.002 A 
ATOM     18  C   UNL     1       3.181  -4.485  -5.218  0.00  0.00    +0.000 A 
ATOM     19  C   UNL     1       2.007  -4.909  -5.811  0.00  0.00    +0.005 A 
ENDBRANCH   7  10
ENDBRANCH   4   7
BRANCH   1  20
ATOM     20  C   UNL     1      -0.128   1.667  -0.326  0.00  0.00    +0.269 C 
ATOM     21  O   UNL     1      -1.164   2.296  -0.197  0.00  0.00    -0.268 OA
BRANCH  20  31
ATOM     22  N   UNL     1       2.184   4.400   0.121  0.00  0.00    -0.318 N 
ATOM     23  C   UNL     1       2.027   5.753   0.368  0.00  0.00    +0.100 A 
ATOM     24  C   UNL     1       3.026   6.734   0.524  0.00  0.00    +0.145 A 
ATOM     25  C   UNL     1       2.688   8.048   0.768  0.00  0.00    +0.048 A 
ATOM     26  C   UNL     1       1.364   8.442   0.865  0.00  0.00    +0.008 A 
ATOM     27  C   UNL     1       0.365   7.497   0.715  0.00  0.00    -0.034 A 
ATOM     28  C   UNL     1       0.699   6.184   0.472  0.00  0.00    +0.045 A 
ATOM     29  S   UNL     1      -0.234   4.696   0.215  0.00  0.00    -0.052 S 
ATOM     30  C   UNL     1       1.091   3.600  -0.001  0.00  0.00    +0.167 A 
ATOM     31  N   UNL     1       1.050   2.292  -0.236  0.00  0.00    -0.152 NA
ATOM     32  C   UNL     1      -1.083   7.904   0.816  0.00  0.00    +0.045 C 
BRANCH  22  34
ATOM     33  C   UNL     1       3.544   2.423   0.594  0.00  0.00    +0.027 C 
ATOM     34  C   UNL     1       3.527   3.830  -0.008  0.00  0.00    +0.121 C 
ENDBRANCH  22  34
BRANCH  24  35
ATOM     35  O   UNL     1       4.336   6.380   0.435  0.00  0.00    -0.493 OA
ATOM     36  C   UNL     1       5.301   7.420   0.604  0.00  0.00    +0.277 C 
ENDBRANCH  24  35
ENDBRANCH  20  31
ENDBRANCH   1  20
TORSDOF 6
