REMARK  Name = ZINC45728774
REMARK  7 active torsions:
REMARK  status: ('A' for Active; 'I' for Inactive)
REMARK    1  A    between atoms: C_1  and  C_2
REMARK    2  A    between atoms: C_4  and  C_31
REMARK    3  A    between atoms: C_5  and  C_29
REMARK    4  A    between atoms: C_6  and  S_8
REMARK    5  A    between atoms: S_8  and  C_9
REMARK    6  A    between atoms: C_9  and  C_10
REMARK    7  A    between atoms: C_23  and  C_25
REMARK                            x       y       z     vdW  Elec       q    Type
REMARK                         _______ _______ _______ _____ _____    ______ ____
ROOT
ATOM      1  C   UNL     1       0.056  -2.020   5.357  0.00  0.00    +0.231 C 
ATOM      2  O   UNL     1       0.074  -3.221   5.520  0.00  0.00    -0.274 OA
ATOM      3  N   UNL     1       0.050  -1.195   6.423  0.00  0.00    -0.257 N 
ATOM      4  C   UNL     1       0.024   0.196   6.250  0.00  0.00    +0.058 A 
ATOM      5  C   UNL     1      -1.124   0.831   5.806  0.00  0.00    +0.025 A 
ATOM      6  C   UNL     1      -1.138   2.206   5.662  0.00  0.00    +0.002 A 
ATOM      7  C   UNL     1      -0.011   2.950   5.963  0.00  0.00    +0.002 A 
ATOM      8  C   UNL     1       1.142   2.322   6.398  0.00  0.00    +0.025 A 
ATOM      9  C   UNL     1       1.167   0.944   6.534  0.00  0.00    +0.055 A 
ATOM     10  N   UNL     1       2.338   0.282   6.919  0.00  0.00    -0.284 N 
ATOM     11  C   UNL     1       2.308  -0.653   7.893  0.00  0.00    +0.219 C 
ATOM     12  O   UNL     1       3.313  -1.278   8.160  0.00  0.00    -0.275 OA
ATOM     13  C   UNL     1       1.035  -0.925   8.650  0.00  0.00    +0.128 C 
ATOM     14  C   UNL     1       0.064  -1.736   7.784  0.00  0.00    +0.194 C 
ATOM     15  H   UNL     1       3.178   0.496   6.483  0.00  0.00    +0.155 HD
ENDROOT
BRANCH  14  16
ATOM     16  C   UNL     1      -1.343  -1.656   8.377  0.00  0.00    +0.409 C 
ATOM     17  F   UNL     1      -2.226  -2.401   7.588  0.00  0.00    -0.169 F 
ATOM     18  F   UNL     1      -1.331  -2.172   9.678  0.00  0.00    -0.169 F 
ATOM     19  F   UNL     1      -1.760  -0.321   8.410  0.00  0.00    -0.169 F 
ENDBRANCH  14  16
BRANCH   1  20
ATOM     20  C   UNL     1       0.042  -1.448   3.963  0.00  0.00    +0.172 C 
BRANCH  20  21
ATOM     21  S   UNL     1       0.054  -2.801   2.754  0.00  0.00    -0.095 S 
BRANCH  21  27
ATOM     22  C   UNL     1      -0.018   1.503   0.010  0.00  0.00    +0.065 C 
ATOM     23  C   UNL     1       0.002  -0.004   0.002  0.00  0.00    +0.040 A 
ATOM     24  C   UNL     1       0.005  -0.676  -1.207  0.00  0.00    +0.036 A 
ATOM     25  C   UNL     1       0.025  -2.060  -1.218  0.00  0.00    +0.076 A 
ATOM     26  C   UNL     1       0.040  -2.735   0.008  0.00  0.00    +0.095 A 
ATOM     27  C   UNL     1       0.035  -1.981   1.195  0.00  0.00    +0.116 A 
ATOM     28  N   UNL     1       0.022  -0.657   1.147  0.00  0.00    -0.244 NA
BRANCH  25  29
ATOM     29  C   UNL     1       0.029  -2.822  -2.518  0.00  0.00    +0.419 C 
ATOM     30  F   UNL     1       0.010  -1.920  -3.587  0.00  0.00    -0.166 F 
ATOM     31  F   UNL     1       1.181  -3.611  -2.594  0.00  0.00    -0.166 F 
ATOM     32  F   UNL     1      -1.103  -3.642  -2.581  0.00  0.00    -0.166 F 
ENDBRANCH  25  29
BRANCH  26  33
ATOM     33  C   UNL     1       0.060  -4.166   0.053  0.00  0.00    +0.102 C 
ATOM     34  N   UNL     1       0.075  -5.301   0.088  0.00  0.00    -0.191 NA
ENDBRANCH  26  33
ENDBRANCH  21  27
ENDBRANCH  20  21
ENDBRANCH   1  20
TORSDOF 6
