REMARK  Name = ZINC02643619
REMARK  7 active torsions:
REMARK  status: ('A' for Active; 'I' for Inactive)
REMARK    1  A    between atoms: C_1  and  C_2
REMARK    2  A    between atoms: C_5  and  C_17
REMARK    3  A    between atoms: N_8  and  C_10
REMARK    4  A    between atoms: C_17  and  O_19
REMARK    5  A    between atoms: O_19  and  C_20
REMARK    6  A    between atoms: C_29  and  C_30
REMARK    7  A    between atoms: C_30  and  N_62
REMARK                            x       y       z     vdW  Elec       q    Type
REMARK                         _______ _______ _______ _____ _____    ______ ____
ROOT
ATOM      1  O   UNL     1       1.050   7.301   0.029  0.00  0.00    -0.422 OA
ENDROOT
BRANCH   1   2
ATOM      2  C   UNL     1       1.053   5.942   0.020  0.00  0.00    +0.134 A 
ATOM      3  C   UNL     1       2.269   5.254   0.061  0.00  0.00    +0.047 A 
ATOM      4  C   UNL     1       2.304   3.894   0.053  0.00  0.00    +0.012 A 
ATOM      5  C   UNL     1       1.103   3.166   0.003  0.00  0.00    -0.017 A 
ATOM      6  C   UNL     1       1.102   1.761  -0.008  0.00  0.00    +0.008 A 
ATOM      7  C   UNL     1      -0.080   1.088  -0.058  0.00  0.00    +0.001 A 
ATOM      8  C   UNL     1      -1.294   1.772  -0.104  0.00  0.00    +0.001 A 
ATOM      9  C   UNL     1      -1.333   3.132  -0.090  0.00  0.00    +0.009 A 
ATOM     10  C   UNL     1      -0.132   3.862  -0.039  0.00  0.00    -0.013 A 
ATOM     11  C   UNL     1      -0.133   5.266  -0.029  0.00  0.00    -0.014 A 
BRANCH  11  12
ATOM     12  C   UNL     1      -1.436   6.023  -0.073  0.00  0.00    -0.039 C 
BRANCH  12  18
ATOM     13  C   UNL     1      -2.258   4.995   1.958  0.00  0.00    -0.078 C 
ATOM     14  C   UNL     1      -2.610   5.265   3.423  0.00  0.00    -0.019 C 
ATOM     15  C   UNL     1      -3.790   6.238   3.489  0.00  0.00    -0.004 C 
ATOM     16  C   UNL     1      -3.420   7.527   2.751  0.00  0.00    -0.019 C 
ATOM     17  C   UNL     1      -3.045   7.192   1.306  0.00  0.00    -0.078 C 
ATOM     18  N   UNL     1      -1.889   6.272   1.311  0.00  0.00    +0.382 N 
ATOM     19  H   UNL     1      -1.122   6.704   1.840  0.00  0.00    -0.081 HD
ENDBRANCH  12  18
ENDBRANCH  11  12
ENDBRANCH   1   2
BRANCH   1  20
ATOM     20  C   UNL     1       0.847   7.926   1.207  0.00  0.00    +0.351 C 
ATOM     21  O   UNL     1       0.777   7.279   2.235  0.00  0.00    -0.244 OA
BRANCH  20  26
ATOM     22  C   UNL     1       0.006  12.796   4.429  0.00  0.00    +0.068 C 
ATOM     23  C   UNL     1       0.197  12.760   2.934  0.00  0.00    +0.069 A 
ATOM     24  C   UNL     1       0.401  11.577   2.151  0.00  0.00    +0.031 A 
ATOM     25  C   UNL     1       0.503  10.189   2.330  0.00  0.00    +0.034 A 
ATOM     26  C   UNL     1       0.711   9.383   1.249  0.00  0.00    +0.099 A 
ATOM     27  S   UNL     1       0.782  10.549  -0.101  0.00  0.00    -0.062 S 
ATOM     28  C   UNL     1       0.525  12.037   0.831  0.00  0.00    +0.113 A 
ATOM     29  N   UNL     1       0.405  13.380   0.829  0.00  0.00    -0.225 N 
ATOM     30  N   UNL     1       0.202  13.796   2.151  0.00  0.00    -0.170 NA
BRANCH  29  31
ATOM     31  C   UNL     1       0.471  14.212  -0.296  0.00  0.00    +0.067 A 
ATOM     32  C   UNL     1       1.332  13.902  -1.341  0.00  0.00    +0.029 A 
ATOM     33  C   UNL     1       1.392  14.722  -2.451  0.00  0.00    +0.022 A 
ATOM     34  C   UNL     1       0.603  15.856  -2.518  0.00  0.00    +0.041 A 
ATOM     35  C   UNL     1      -0.253  16.170  -1.476  0.00  0.00    +0.022 A 
ATOM     36  C   UNL     1      -0.320  15.351  -0.366  0.00  0.00    +0.029 A 
ATOM     37 CL   UNL     1       0.685  16.888  -3.912  0.00  0.00    -0.084 Cl
ENDBRANCH  29  31
ENDBRANCH  20  26
ENDBRANCH   1  20
TORSDOF 6
