REMARK  Name = ZINC43548253
REMARK  8 active torsions:
REMARK  status: ('A' for Active; 'I' for Inactive)
REMARK    1  A    between atoms: C_1  and  C_2
REMARK    2  A    between atoms: N_9  and  C_10
REMARK    3  A    between atoms: C_10  and  C_11
REMARK    4  A    between atoms: C_14  and  C_35
REMARK    5  A    between atoms: C_17  and  O_34
REMARK    6  A    between atoms: C_19  and  C_23
REMARK    7  A    between atoms: C_23  and  C_25
REMARK    8  A    between atoms: C_23  and  C_26
REMARK                            x       y       z     vdW  Elec       q    Type
REMARK                         _______ _______ _______ _____ _____    ______ ____
ROOT
ATOM      1  C   UNL     1      -0.176   1.569   0.083  0.00  0.00    +0.014 C 
ATOM      2  C   UNL     1      -0.226   0.040   0.102  0.00  0.00    +0.039 C 
ATOM      3  C   UNL     1      -1.621  -0.418   0.502  0.00  0.00    +0.031 A 
ATOM      4  C   UNL     1      -1.865  -0.853   1.764  0.00  0.00    +0.013 A 
ATOM      5  S   UNL     1      -3.590  -1.254   1.705  0.00  0.00    -0.059 S 
ATOM      6  C   UNL     1      -3.857  -0.841   0.093  0.00  0.00    +0.137 A 
ATOM      7  N   UNL     1      -2.674  -0.433  -0.311  0.00  0.00    -0.340 N 
ATOM      8  N   UNL     1      -5.037  -0.914  -0.630  0.00  0.00    -0.321 N 
ATOM      9  C   UNL     1      -0.903  -0.956   2.896  0.00  0.00    +0.051 C 
ATOM     10  C   UNL     1       0.359  -0.146   2.546  0.00  0.00    -0.022 C 
ATOM     11  C   UNL     1       0.785  -0.491   1.113  0.00  0.00    +0.033 C 
ATOM     12  C   UNL     1       0.933  -2.006   0.982  0.00  0.00    +0.123 C 
ATOM     13  C   UNL     1       2.026  -2.486   1.942  0.00  0.00    +0.029 C 
ATOM     14  C   UNL     1       1.655  -2.112   3.377  0.00  0.00    +0.007 C 
ATOM     15  C   UNL     1       1.482  -0.593   3.495  0.00  0.00    +0.008 C 
ATOM     16  C   UNL     1       0.094   1.353   2.696  0.00  0.00    +0.012 C 
ATOM     17  H   UNL     1      -5.053  -0.642  -1.561  0.00  0.00    +0.148 HD
ATOM     18  H   UNL     1      -2.567  -0.135  -1.228  0.00  0.00    +0.167 HD
ENDROOT
BRANCH  13  19
ATOM     19  C   UNL     1       2.166  -4.006   1.834  0.00  0.00    +0.078 C 
ATOM     20  C   UNL     1       3.257  -4.487   2.793  0.00  0.00    +0.017 C 
BRANCH  19  21
ATOM     21  C   UNL     1       2.538  -4.377   0.422  0.00  0.00    +0.219 C 
ATOM     22  O   UNL     1       3.101  -3.571  -0.289  0.00  0.00    -0.275 OA
ATOM     23  N   UNL     1       2.246  -5.605  -0.051  0.00  0.00    -0.297 N 
ATOM     24  C   UNL     1       1.463  -6.559   0.750  0.00  0.00    +0.136 C 
ATOM     25  C   UNL     1       0.319  -7.095  -0.119  0.00  0.00    +0.179 C 
ATOM     26  O   UNL     1       0.854  -7.588  -1.350  0.00  0.00    -0.377 OA
ATOM     27  C   UNL     1       1.496  -6.592  -2.149  0.00  0.00    +0.179 C 
ATOM     28  C   UNL     1       2.696  -6.029  -1.387  0.00  0.00    +0.136 C 
ENDBRANCH  19  21
ENDBRANCH  13  19
BRANCH  12  29
ATOM     29  O   UNL     1      -0.305  -2.638   1.312  0.00  0.00    -0.391 OA
ATOM     30  H   UNL     1      -0.284  -3.602   1.250  0.00  0.00    +0.210 HD
ENDBRANCH  12  29
BRANCH   8  31
ATOM     31  C   UNL     1      -6.261  -1.403   0.011  0.00  0.00    +0.130 C 
BRANCH  31  32
ATOM     32  C   UNL     1      -7.392  -1.384  -0.985  0.00  0.00    -0.016 C 
ATOM     33  C   UNL     1      -8.076  -2.476  -1.220  0.00  0.00    +0.005 C 
ENDBRANCH  31  32
ENDBRANCH   8  31
TORSDOF 5
