REMARK  Name = ZINC04459171
REMARK  5 active torsions:
REMARK  status: ('A' for Active; 'I' for Inactive)
REMARK    1  A    between atoms: C_1  and  C_2
REMARK    2  A    between atoms: C_2  and  C_30
REMARK    3  A    between atoms: C_6  and  C_19
REMARK    4  A    between atoms: C_22  and  O_26
REMARK    5  A    between atoms: C_23  and  O_25
REMARK                            x       y       z     vdW  Elec       q    Type
REMARK                         _______ _______ _______ _____ _____    ______ ____
ROOT
ATOM      1  C   UNL     1      -4.774  -1.519   2.786  0.00  0.00    +0.011 C 
ATOM      2  C   UNL     1      -3.388  -1.481   3.433  0.00  0.00    -0.023 C 
ATOM      3  C   UNL     1      -2.351  -2.050   2.461  0.00  0.00    +0.058 C 
ATOM      4  C   UNL     1      -2.307  -1.202   1.213  0.00  0.00    +0.016 C 
ATOM      5  C   UNL     1      -2.574   0.122   1.260  0.00  0.00    +0.024 C 
ATOM      6  C   UNL     1      -2.513   0.975   0.019  0.00  0.00    +0.086 C 
ATOM      7  C   UNL     1      -2.585   0.139  -1.226  0.00  0.00    -0.005 A 
ATOM      8  C   UNL     1      -2.921   0.735  -2.454  0.00  0.00    +0.006 A 
ATOM      9  C   UNL     1      -3.199   2.113  -2.543  0.00  0.00    +0.012 A 
ATOM     10  C   UNL     1      -3.516   2.628  -3.767  0.00  0.00    +0.020 A 
ATOM     11  C   UNL     1      -3.557   1.795  -4.882  0.00  0.00    +0.111 A 
ATOM     12  N   UNL     1      -3.298   0.513  -4.796  0.00  0.00    -0.255 NA
ATOM     13  C   UNL     1      -2.982  -0.056  -3.627  0.00  0.00    +0.071 A 
ATOM     14  C   UNL     1      -2.707  -1.433  -3.544  0.00  0.00    +0.030 A 
ATOM     15  C   UNL     1      -2.387  -1.986  -2.349  0.00  0.00    +0.025 A 
ATOM     16  C   UNL     1      -2.325  -1.210  -1.184  0.00  0.00    +0.036 A 
ATOM     17  N   UNL     1      -1.994  -1.810   0.032  0.00  0.00    -0.317 N 
ATOM     18  C   UNL     1      -2.919   0.746   2.470  0.00  0.00    +0.162 C 
ATOM     19  O   UNL     1      -3.150   1.940   2.479  0.00  0.00    -0.292 OA
ATOM     20  C   UNL     1      -3.008  -0.032   3.753  0.00  0.00    +0.086 C 
ATOM     21  C   UNL     1      -3.397  -2.312   4.718  0.00  0.00    +0.011 C 
ATOM     22  H   UNL     1      -1.537  -2.665   0.037  0.00  0.00    +0.152 HD
ENDROOT
BRANCH   6  23
ATOM     23  C   UNL     1      -1.220   1.749   0.017  0.00  0.00    -0.032 A 
ATOM     24  C   UNL     1      -0.013   1.076   0.008  0.00  0.00    +0.008 A 
ATOM     25  C   UNL     1       1.176   1.782   0.000  0.00  0.00    +0.049 A 
ATOM     26  C   UNL     1       1.159   3.167   0.008  0.00  0.00    +0.158 A 
ATOM     27  C   UNL     1      -0.056   3.845   0.023  0.00  0.00    +0.159 A 
ATOM     28  C   UNL     1      -1.244   3.131   0.031  0.00  0.00    +0.053 A 
BRANCH  27  29
ATOM     29  O   UNL     1      -0.078   5.205   0.030  0.00  0.00    -0.503 OA
ATOM     30  H   UNL     1      -0.093   5.602  -0.851  0.00  0.00    +0.292 HD
ENDBRANCH  27  29
BRANCH  26  31
ATOM     31  O   UNL     1       2.327   3.863   0.000  0.00  0.00    -0.503 OA
ATOM     32  H   UNL     1       2.656   4.069  -0.885  0.00  0.00    +0.292 HD
ENDBRANCH  26  31
ENDBRANCH   6  23
TORSDOF 3
