REMARK  Name = ZINC35919941
REMARK  6 active torsions:
REMARK  status: ('A' for Active; 'I' for Inactive)
REMARK    1  A    between atoms: C_1  and  C_2
REMARK    2  A    between atoms: C_2  and  N_3
REMARK    3  A    between atoms: N_3  and  C_4
REMARK    4  A    between atoms: N_14  and  C_17
REMARK    5  A    between atoms: N_25  and  S_27
REMARK    6  A    between atoms: S_27  and  C_30
REMARK                            x       y       z     vdW  Elec       q    Type
REMARK                         _______ _______ _______ _____ _____    ______ ____
ROOT
ATOM      1  N   UNL     1      -1.387  -0.514   0.021  0.00  0.00    -0.318 N 
ATOM      2  C   UNL     1      -1.499   0.804  -0.608  0.00  0.00    +0.130 C 
ATOM      3  C   UNL     1      -2.025  -0.762   1.226  0.00  0.00    +0.131 A 
ATOM      4  C   UNL     1      -3.294  -1.352   1.247  0.00  0.00    +0.027 A 
ATOM      5  C   UNL     1      -3.892  -1.588   2.461  0.00  0.00    +0.028 A 
ATOM      6  N   UNL     1      -3.249  -1.236   3.573  0.00  0.00    -0.331 N 
ATOM      7  C   UNL     1      -2.051  -0.678   3.525  0.00  0.00    +0.198 A 
ATOM      8  N   UNL     1      -1.436  -0.449   2.374  0.00  0.00    -0.201 NA
ATOM      9  N   UNL     1      -1.421  -0.331   4.708  0.00  0.00    -0.298 N 
ATOM     10  C   UNL     1      -2.010  -0.694   6.004  0.00  0.00    +0.127 C 
ATOM     11  C   UNL     1      -0.972  -1.485   6.810  0.00  0.00    +0.124 C 
ATOM     12  N   UNL     1       0.299  -0.747   6.792  0.00  0.00    -0.327 N 
ATOM     13  C   UNL     1       0.888  -0.384   5.495  0.00  0.00    +0.124 C 
ATOM     14  C   UNL     1      -0.147   0.402   4.689  0.00  0.00    +0.127 C 
ATOM     15  C   UNL     1      -5.239  -2.244   2.595  0.00  0.00    +0.071 C 
ATOM     16  C   UNL     1      -6.024  -2.142   1.288  0.00  0.00    +0.116 C 
ATOM     17  N   UNL     1      -5.130  -2.537   0.187  0.00  0.00    -0.172 NA
ATOM     18  C   UNL     1      -3.954  -1.695  -0.062  0.00  0.00    +0.149 C 
ATOM     19  H   UNL     1      -3.667  -1.392   4.434  0.00  0.00    +0.168 HD
ENDROOT
BRANCH  12  20
ATOM     20  C   UNL     1       0.934  -0.396   7.985  0.00  0.00    +0.030 A 
ATOM     21  C   UNL     1       0.313  -0.642   9.203  0.00  0.00    +0.023 A 
ATOM     22  C   UNL     1       0.945  -0.294  10.381  0.00  0.00    +0.002 A 
ATOM     23  C   UNL     1       2.194   0.297  10.349  0.00  0.00    +0.000 A 
ATOM     24  C   UNL     1       2.816   0.543   9.138  0.00  0.00    +0.002 A 
ATOM     25  C   UNL     1       2.192   0.193   7.956  0.00  0.00    +0.023 A 
ENDBRANCH  12  20
BRANCH  17  26
ATOM     26  S   UNL     1      -5.440  -3.877  -0.735  0.00  0.00    +0.061 S 
ATOM     27  O   UNL     1      -4.195  -4.292  -1.280  0.00  0.00    -0.153 OA
ATOM     28  O   UNL     1      -6.248  -4.736   0.057  0.00  0.00    -0.153 OA
BRANCH  26  29
ATOM     29  C   UNL     1      -6.436  -3.358  -2.092  0.00  0.00    +0.106 A 
ATOM     30  C   UNL     1      -7.814  -3.362  -1.979  0.00  0.00    +0.030 A 
ATOM     31  C   UNL     1      -8.597  -2.955  -3.043  0.00  0.00    +0.022 A 
ATOM     32  C   UNL     1      -8.000  -2.542  -4.222  0.00  0.00    +0.041 A 
ATOM     33  C   UNL     1      -6.621  -2.538  -4.334  0.00  0.00    +0.022 A 
ATOM     34  C   UNL     1      -5.840  -2.940  -3.267  0.00  0.00    +0.030 A 
ATOM     35 CL   UNL     1      -8.982  -2.031  -5.559  0.00  0.00    -0.084 Cl
ENDBRANCH  26  29
ENDBRANCH  17  26
BRANCH   1  37
ATOM     36  C   UNL     1       0.847  -1.496  -0.135  0.00  0.00    +0.024 C 
ATOM     37  C   UNL     1      -0.602  -1.569  -0.623  0.00  0.00    +0.103 C 
ENDBRANCH   1  37
TORSDOF 4
