REMARK  Name = ZINC32536291
REMARK  6 active torsions:
REMARK  status: ('A' for Active; 'I' for Inactive)
REMARK    1  A    between atoms: C_1  and  C_2
REMARK    2  A    between atoms: C_6  and  N_8
REMARK    3  A    between atoms: N_11  and  C_14
REMARK    4  A    between atoms: C_21  and  S_23
REMARK    5  A    between atoms: S_23  and  C_26
REMARK    6  A    between atoms: C_28  and  C_33
REMARK                            x       y       z     vdW  Elec       q    Type
REMARK                         _______ _______ _______ _____ _____    ______ ____
ROOT
ATOM      1  C   UNL     1       6.182  -0.357   1.017  0.00  0.00    +0.104 C 
ATOM      2  C   UNL     1       7.312   0.687   0.931  0.00  0.00    +0.186 C 
ATOM      3  S   UNL     1       8.419   0.230   2.326  0.00  0.00    -0.028 S 
ATOM      4  O   UNL     1       8.106   1.038   3.453  0.00  0.00    -0.174 OA
ATOM      5  O   UNL     1       9.759   0.164   1.859  0.00  0.00    -0.174 OA
ATOM      6  C   UNL     1       7.790  -1.482   2.613  0.00  0.00    +0.194 C 
ATOM      7  C   UNL     1       6.297  -1.276   2.232  0.00  0.00    +0.175 C 
ENDROOT
BRANCH   1  11
ATOM      8  N   UNL     1       3.199   2.635   1.038  0.00  0.00    -0.327 N 
ATOM      9  C   UNL     1       3.235   1.706  -0.101  0.00  0.00    +0.120 C 
ATOM     10  C   UNL     1       4.617   1.053  -0.178  0.00  0.00    +0.103 C 
ATOM     11  N   UNL     1       4.894   0.348   1.081  0.00  0.00    -0.293 NA
ATOM     12  C   UNL     1       4.858   1.276   2.220  0.00  0.00    +0.103 C 
ATOM     13  C   UNL     1       3.476   1.930   2.297  0.00  0.00    +0.120 C 
BRANCH   8  19
ATOM     14  C   UNL     1      -0.167   5.498  -1.113  0.00  0.00    +0.044 C 
ATOM     15  C   UNL     1       0.318   4.701   0.070  0.00  0.00    -0.049 A 
ATOM     16  C   UNL     1      -0.451   4.631   1.218  0.00  0.00    +0.003 A 
ATOM     17  C   UNL     1      -0.007   3.906   2.308  0.00  0.00    +0.002 A 
ATOM     18  C   UNL     1       1.203   3.242   2.252  0.00  0.00    +0.023 A 
ATOM     19  C   UNL     1       1.975   3.305   1.099  0.00  0.00    +0.030 A 
ATOM     20  C   UNL     1       1.526   4.035   0.005  0.00  0.00    +0.026 A 
ENDBRANCH   8  19
ENDBRANCH   1  11
BRANCH   7  21
ATOM     21  S   UNL     1       5.550  -2.883   1.842  0.00  0.00    +0.005 S 
ATOM     22  O   UNL     1       4.174  -2.720   1.528  0.00  0.00    -0.169 OA
ATOM     23  O   UNL     1       6.406  -3.625   0.984  0.00  0.00    -0.169 OA
BRANCH  21  24
ATOM     24  C   UNL     1       5.562  -3.769   3.365  0.00  0.00    +0.124 A 
ATOM     25  C   UNL     1       4.369  -4.115   3.972  0.00  0.00    +0.033 A 
ATOM     26  C   UNL     1       4.378  -4.811   5.167  0.00  0.00    -0.048 A 
ATOM     27  C   UNL     1       5.579  -5.162   5.755  0.00  0.00    +0.006 A 
ATOM     28  C   UNL     1       6.772  -4.816   5.150  0.00  0.00    +0.040 A 
ATOM     29  C   UNL     1       6.765  -4.125   3.950  0.00  0.00    +0.148 A 
ATOM     30  F   UNL     1       7.931  -3.792   3.354  0.00  0.00    -0.203 F 
ATOM     31  C   UNL     1       3.078  -5.188   5.828  0.00  0.00    +0.044 C 
ENDBRANCH  21  24
ENDBRANCH   7  21
TORSDOF 4
