REMARK  Name = ZINC41006603
REMARK  13 active torsions:
REMARK  status: ('A' for Active; 'I' for Inactive)
REMARK    1  A    between atoms: C_1  and  C_2
REMARK    2  A    between atoms: C_2  and  C_3
REMARK    3  A    between atoms: C_3  and  O_4
REMARK    4  A    between atoms: O_4  and  C_5
REMARK    5  A    between atoms: C_8  and  C_11
REMARK    6  A    between atoms: C_13  and  C_33
REMARK    7  A    between atoms: C_18  and  C_31
REMARK    8  A    between atoms: C_18  and  O_32
REMARK    9  A    between atoms: C_19  and  C_21
REMARK   10  A    between atoms: N_23  and  C_24
REMARK   11  A    between atoms: C_29  and  C_30
REMARK   12  A    between atoms: N_35  and  C_36
REMARK   13  A    between atoms: C_41  and  C_42
REMARK                            x       y       z     vdW  Elec       q    Type
REMARK                         _______ _______ _______ _____ _____    ______ ____
ROOT
ATOM      1  C   UNL     1       3.448  -4.238   5.312  0.00  0.00    +0.053 C 
ATOM      2  C   UNL     1       4.479  -5.009   4.480  0.00  0.00    +0.149 C 
ATOM      3  C   UNL     1       5.317  -5.853   5.414  0.00  0.00    +0.148 C 
ATOM      4  O   UNL     1       6.523  -5.809   5.374  0.00  0.00    -0.296 OA
ATOM      5  C   UNL     1       4.606  -6.753   6.400  0.00  0.00    +0.110 C 
ATOM      6  C   UNL     1       3.571  -5.919   7.163  0.00  0.00    +0.082 C 
ATOM      7  C   UNL     1       2.645  -5.222   6.165  0.00  0.00    +0.115 C 
ATOM      8  C   UNL     1       2.747  -6.834   8.070  0.00  0.00    +0.042 C 
ENDROOT
BRANCH   1  12
ATOM      9  C   UNL     1       0.805  -2.124   2.704  0.00  0.00    +0.121 A 
ATOM     10  C   UNL     1       1.354  -1.483   3.805  0.00  0.00    +0.046 A 
ATOM     11  C   UNL     1       2.208  -2.169   4.647  0.00  0.00    +0.007 A 
ATOM     12  C   UNL     1       2.516  -3.493   4.392  0.00  0.00    -0.042 A 
ATOM     13  C   UNL     1       1.971  -4.133   3.295  0.00  0.00    +0.007 A 
ATOM     14  C   UNL     1       1.111  -3.454   2.454  0.00  0.00    +0.046 A 
BRANCH   9  15
ATOM     15  O   UNL     1      -0.036  -1.452   1.874  0.00  0.00    -0.492 OA
BRANCH  15  16
ATOM     16  C   UNL     1      -0.307  -0.085   2.193  0.00  0.00    +0.229 C 
BRANCH  16  18
ATOM     17  C   UNL     1      -1.555   1.964   1.497  0.00  0.00    +0.007 C 
ATOM     18  C   UNL     1      -1.266   0.501   1.155  0.00  0.00    +0.038 C 
ENDBRANCH  16  18
ENDBRANCH  15  16
ENDBRANCH   9  15
ENDBRANCH   1  12
BRANCH   7  19
ATOM     19  C   UNL     1       2.005  -6.253   5.271  0.00  0.00    +0.224 C 
ATOM     20  O   UNL     1       2.697  -6.975   4.586  0.00  0.00    -0.275 OA
ATOM     21  N   UNL     1       0.663  -6.372   5.234  0.00  0.00    -0.285 N 
ATOM     22  H   UNL     1       0.110  -5.814   5.804  0.00  0.00    +0.155 HD
BRANCH  21  23
ATOM     23  C   UNL     1       0.066  -7.299   4.373  0.00  0.00    +0.036 A 
ATOM     24  C   UNL     1       0.814  -8.349   3.855  0.00  0.00    +0.023 A 
ATOM     25  C   UNL     1       0.223  -9.263   3.005  0.00  0.00    +0.002 A 
ATOM     26  C   UNL     1      -1.113  -9.134   2.670  0.00  0.00    +0.000 A 
ATOM     27  C   UNL     1      -1.860  -8.090   3.184  0.00  0.00    +0.005 A 
ATOM     28  C   UNL     1      -1.276  -7.176   4.040  0.00  0.00    -0.029 A 
ATOM     29  C   UNL     1      -2.093  -6.043   4.606  0.00  0.00    +0.045 C 
ENDBRANCH  21  23
ENDBRANCH   7  19
BRANCH   2  30
ATOM     30  C   UNL     1       5.361  -4.037   3.740  0.00  0.00    +0.228 C 
ATOM     31  O   UNL     1       5.186  -2.844   3.864  0.00  0.00    -0.275 OA
ATOM     32  N   UNL     1       6.345  -4.495   2.940  0.00  0.00    -0.285 N 
ATOM     33  H   UNL     1       6.433  -5.446   2.774  0.00  0.00    +0.155 HD
BRANCH  32  34
ATOM     34  C   UNL     1       7.241  -3.596   2.349  0.00  0.00    +0.036 A 
ATOM     35  C   UNL     1       6.838  -2.299   2.063  0.00  0.00    +0.023 A 
ATOM     36  C   UNL     1       7.724  -1.415   1.480  0.00  0.00    +0.002 A 
ATOM     37  C   UNL     1       9.012  -1.820   1.181  0.00  0.00    +0.000 A 
ATOM     38  C   UNL     1       9.416  -3.112   1.465  0.00  0.00    +0.005 A 
ATOM     39  C   UNL     1       8.537  -3.999   2.054  0.00  0.00    -0.029 A 
ATOM     40  C   UNL     1       8.980  -5.404   2.370  0.00  0.00    +0.045 C 
ENDBRANCH  32  34
ENDBRANCH   2  30
BRANCH   6  41
ATOM     41  O   UNL     1       4.241  -4.938   7.957  0.00  0.00    -0.388 OA
ATOM     42  H   UNL     1       4.847  -5.309   8.612  0.00  0.00    +0.210 HD
ENDBRANCH   6  41
TORSDOF 9
