REMARK  Name = ZINC55494565
REMARK  7 active torsions:
REMARK  status: ('A' for Active; 'I' for Inactive)
REMARK    1  A    between atoms: C_1  and  C_2
REMARK    2  A    between atoms: C_2  and  C_3
REMARK    3  A    between atoms: C_16  and  C_18
REMARK    4  A    between atoms: C_18  and  C_19
REMARK    5  A    between atoms: N_21  and  C_22
REMARK    6  A    between atoms: C_25  and  C_29
REMARK    7  A    between atoms: C_27  and  C_28
REMARK                            x       y       z     vdW  Elec       q    Type
REMARK                         _______ _______ _______ _____ _____    ______ ____
ROOT
ATOM      1  C   UNL     1      -1.442  -0.522   0.025  0.00  0.00    -0.006 C 
ATOM      2  C   UNL     1      -1.428  -2.049   0.145  0.00  0.00    +0.008 C 
ATOM      3  C   UNL     1      -2.845  -2.562   0.405  0.00  0.00    +0.037 C 
ATOM      4  C   UNL     1      -3.778  -1.998  -0.663  0.00  0.00    -0.023 A 
ATOM      5  C   UNL     1      -3.416  -0.916  -1.391  0.00  0.00    -0.004 A 
ATOM      6  S   UNL     1      -4.778  -0.618  -2.490  0.00  0.00    -0.073 S 
ATOM      7  C   UNL     1      -5.826  -1.941  -1.974  0.00  0.00    +0.116 A 
ATOM      8  C   UNL     1      -5.078  -2.575  -0.957  0.00  0.00    +0.075 A 
ATOM      9  C   UNL     1      -5.675  -3.717  -0.324  0.00  0.00    +0.260 A 
ATOM     10  O   UNL     1      -5.112  -4.335   0.564  0.00  0.00    -0.267 OA
ATOM     11  N   UNL     1      -6.903  -4.063  -0.776  0.00  0.00    -0.310 N 
ATOM     12  H   UNL     1      -7.344  -4.829  -0.376  0.00  0.00    +0.170 HD
ATOM     13  C   UNL     1      -7.545  -3.391  -1.762  0.00  0.00    +0.120 A 
ATOM     14  N   UNL     1      -7.031  -2.341  -2.365  0.00  0.00    -0.226 NA
ATOM     15  C   UNL     1      -2.141  -0.135  -1.286  0.00  0.00    +0.046 C 
ENDROOT
BRANCH   1  17
ATOM     16  C   UNL     1      -0.023   1.534   0.013  0.00  0.00    +0.004 C 
ATOM     17  C   UNL     1      -0.005   0.005   0.015  0.00  0.00    +0.000 C 
ENDBRANCH   1  17
BRANCH  13  18
ATOM     18  C   UNL     1      -8.911  -3.866  -2.185  0.00  0.00    +0.170 C 
BRANCH  18  19
ATOM     19  C   UNL     1      -9.433  -2.979  -3.285  0.00  0.00    +0.225 C 
ATOM     20  O   UNL     1      -8.763  -2.051  -3.686  0.00  0.00    -0.275 OA
ATOM     21  N   UNL     1     -10.646  -3.216  -3.824  0.00  0.00    -0.285 N 
ATOM     22  H   UNL     1     -11.148  -4.003  -3.561  0.00  0.00    +0.155 HD
BRANCH  21  23
ATOM     23  C   UNL     1     -11.181  -2.326  -4.762  0.00  0.00    +0.036 A 
ATOM     24  C   UNL     1     -10.771  -0.999  -4.775  0.00  0.00    +0.024 A 
ATOM     25  C   UNL     1     -11.301  -0.123  -5.702  0.00  0.00    +0.005 A 
ATOM     26  C   UNL     1     -12.239  -0.566  -6.617  0.00  0.00    -0.050 A 
ATOM     27  C   UNL     1     -12.649  -1.887  -6.607  0.00  0.00    +0.008 A 
ATOM     28  C   UNL     1     -12.118  -2.769  -5.686  0.00  0.00    -0.029 A 
ATOM     29  C   UNL     1     -12.560  -4.210  -5.680  0.00  0.00    +0.045 C 
ATOM     30  C   UNL     1     -12.815   0.392  -7.627  0.00  0.00    +0.044 C 
ENDBRANCH  21  23
ENDBRANCH  18  19
ENDBRANCH  13  18
TORSDOF 4
