REMARK  Name = ZINC02129990
REMARK  6 active torsions:
REMARK  status: ('A' for Active; 'I' for Inactive)
REMARK    1  A    between atoms: C_1  and  C_2
REMARK    2  A    between atoms: C_16  and  C_18
REMARK    3  A    between atoms: C_18  and  C_19
REMARK    4  A    between atoms: C_19  and  C_20
REMARK    5  A    between atoms: N_25  and  C_28
REMARK    6  A    between atoms: C_28  and  C_29
REMARK                            x       y       z     vdW  Elec       q    Type
REMARK                         _______ _______ _______ _____ _____    ______ ____
ROOT
ATOM      1  C   UNL     1      -0.358   5.572  -5.586  0.00  0.00    +0.047 C 
ATOM      2  C   UNL     1      -0.111   4.155  -5.138  0.00  0.00    -0.011 A 
ATOM      3  C   UNL     1      -0.019   3.143  -6.073  0.00  0.00    +0.046 A 
ATOM      4  C   UNL     1       0.206   1.839  -5.670  0.00  0.00    +0.020 A 
ATOM      5  C   UNL     1       0.339   1.547  -4.324  0.00  0.00    +0.006 A 
ATOM      6  C   UNL     1       0.249   2.553  -3.389  0.00  0.00    -0.027 A 
ATOM      7  C   UNL     1       0.023   3.869  -3.781  0.00  0.00    +0.040 A 
ATOM      8  N   UNL     1      -0.028   4.705  -2.663  0.00  0.00    -0.286 N 
ATOM      9  C   UNL     1       0.152   4.026  -1.514  0.00  0.00    +0.211 C 
ATOM     10  O   UNL     1       0.159   4.490  -0.393  0.00  0.00    -0.277 OA
ATOM     11  C   UNL     1       0.345   2.583  -1.890  0.00  0.00    +0.050 C 
ATOM     12  C   UNL     1      -0.717   1.688  -1.240  0.00  0.00    +0.088 C 
ATOM     13  C   UNL     1      -0.013   1.086   0.008  0.00  0.00    +0.073 C 
ATOM     14  C   UNL     1       1.403   1.701  -0.002  0.00  0.00    -0.057 C 
ATOM     15  C   UNL     1      -0.791   1.653   1.174  0.00  0.00    +0.224 C 
ATOM     16  O   UNL     1      -0.561   1.431   2.343  0.00  0.00    -0.275 OA
ATOM     17  N   UNL     1      -1.781   2.438   0.690  0.00  0.00    -0.237 N 
ATOM     18  C   UNL     1      -1.822   2.531  -0.644  0.00  0.00    +0.225 C 
ATOM     19  O   UNL     1      -2.620   3.188  -1.277  0.00  0.00    -0.275 OA
ATOM     20 CL   UNL     1      -0.187   3.510  -7.762  0.00  0.00    -0.083 Cl
ATOM     21  H   UNL     1      -0.177   5.662  -2.709  0.00  0.00    +0.155 HD
ATOM     22  N   UNL     1       1.616   2.075  -1.402  0.00  0.00    +0.394 N 
ATOM     23  H   UNL     1       2.338   2.803  -1.469  0.00  0.00    -0.083 HD
ATOM     24  H   UNL     1       1.905   1.256  -1.949  0.00  0.00    -0.083 HD
ENDROOT
BRANCH  14  25
ATOM     25  C   UNL     1       2.434   0.671   0.465  0.00  0.00    -0.006 C 
BRANCH  25  26
ATOM     26  C   UNL     1       3.809   1.335   0.567  0.00  0.00    +0.094 C 
BRANCH  26  27
ATOM     27  C   UNL     1       4.824   0.321   1.027  0.00  0.00    +0.210 C 
ATOM     28  O   UNL     1       4.482  -0.820   1.252  0.00  0.00    -0.276 OA
ATOM     29  N   UNL     1       6.112   0.683   1.189  0.00  0.00    -0.329 N 
ATOM     30  H   UNL     1       6.386   1.596   1.009  0.00  0.00    +0.145 HD
ATOM     31  H   UNL     1       6.766   0.030   1.485  0.00  0.00    +0.145 HD
ENDBRANCH  26  27
ENDBRANCH  25  26
ENDBRANCH  14  25
BRANCH  17  32
ATOM     32  C   UNL     1      -2.727   3.140   1.562  0.00  0.00    +0.151 C 
BRANCH  32  33
ATOM     33  C   UNL     1      -3.927   2.263   1.810  0.00  0.00    -0.026 A 
ATOM     34  C   UNL     1      -5.019   2.333   0.965  0.00  0.00    +0.009 A 
ATOM     35  C   UNL     1      -6.120   1.528   1.186  0.00  0.00    +0.050 A 
ATOM     36  C   UNL     1      -6.136   0.655   2.261  0.00  0.00    +0.166 A 
ATOM     37  C   UNL     1      -5.038   0.588   3.116  0.00  0.00    +0.167 A 
ATOM     38  C   UNL     1      -3.936   1.395   2.885  0.00  0.00    +0.054 A 
ATOM     39  O   UNL     1      -5.297  -0.336   4.087  0.00  0.00    -0.453 OA
ATOM     40  C   UNL     1      -6.390  -1.126   3.584  0.00  0.00    +0.466 C 
ATOM     41  O   UNL     1      -7.082  -0.228   2.697  0.00  0.00    -0.453 OA
ENDBRANCH  32  33
ENDBRANCH  17  32
TORSDOF 5
