REMARK  Name = ZINC19898557
REMARK  11 active torsions:
REMARK  status: ('A' for Active; 'I' for Inactive)
REMARK    1  A    between atoms: C_1  and  C_2
REMARK    2  A    between atoms: C_2  and  C_3
REMARK    3  A    between atoms: C_3  and  N_4
REMARK    4  A    between atoms: C_5  and  C_16
REMARK    5  A    between atoms: N_9  and  C_10
REMARK    6  A    between atoms: C_19  and  S_22
REMARK    7  A    between atoms: S_22  and  N_25
REMARK    8  A    between atoms: N_25  and  C_26
REMARK    9  A    between atoms: N_25  and  C_28
REMARK   10  A    between atoms: C_26  and  C_27
REMARK   11  A    between atoms: C_28  and  C_29
REMARK                            x       y       z     vdW  Elec       q    Type
REMARK                         _______ _______ _______ _____ _____    ______ ____
ROOT
ATOM      1  N   UNL     1       2.254   5.240   0.988  0.00  0.00    -0.321 N 
ATOM      2  C   UNL     1       1.459   4.137   1.140  0.00  0.00    +0.058 A 
ATOM      3  C   UNL     1       0.604   3.790   0.156  0.00  0.00    +0.075 A 
ATOM      4  S   UNL     1       0.903   5.059  -1.065  0.00  0.00    -0.059 S 
ATOM      5  C   UNL     1       2.152   5.972  -0.172  0.00  0.00    +0.152 A 
ATOM      6  N   UNL     1       2.805   7.061  -0.531  0.00  0.00    -0.336 N 
ATOM      7  H   UNL     1       3.611   7.454   0.105  0.00  0.00    +0.168 HD
ENDROOT
BRANCH   6   8
ATOM      8  C   UNL     1       2.479   7.700  -1.695  0.00  0.00    +0.041 A 
ATOM      9  C   UNL     1       3.188   7.427  -2.868  0.00  0.00    +0.025 A 
ATOM     10  C   UNL     1       2.850   8.072  -4.040  0.00  0.00    +0.002 A 
ATOM     11  C   UNL     1       1.821   8.997  -4.052  0.00  0.00    +0.000 A 
ATOM     12  C   UNL     1       1.119   9.277  -2.893  0.00  0.00    +0.002 A 
ATOM     13  C   UNL     1       1.441   8.635  -1.716  0.00  0.00    +0.025 A 
ENDBRANCH   6   8
BRANCH   2  14
ATOM     14  C   UNL     1       1.538   3.329   2.376  0.00  0.00    -0.001 A 
ATOM     15  C   UNL     1       1.735   1.949   2.300  0.00  0.00    +0.012 A 
ATOM     16  C   UNL     1       1.813   1.202   3.457  0.00  0.00    +0.029 A 
ATOM     17  C   UNL     1       1.685   1.815   4.690  0.00  0.00    +0.106 A 
ATOM     18  C   UNL     1       1.483   3.182   4.772  0.00  0.00    +0.029 A 
ATOM     19  C   UNL     1       1.409   3.942   3.623  0.00  0.00    +0.012 A 
BRANCH  17  20
ATOM     20  S   UNL     1       1.780   0.853   6.163  0.00  0.00    +0.061 S 
ATOM     21  O   UNL     1       2.518  -0.317   5.836  0.00  0.00    -0.153 OA
ATOM     22  O   UNL     1       2.176   1.738   7.202  0.00  0.00    -0.153 OA
BRANCH  20  23
ATOM     23  N   UNL     1       0.242   0.357   6.524  0.00  0.00    -0.177 NA
BRANCH  23  24
ATOM     24  C   UNL     1      -0.264  -0.909   5.987  0.00  0.00    +0.106 C 
ATOM     25  C   UNL     1      -0.056  -2.020   7.019  0.00  0.00    +0.022 C 
ENDBRANCH  23  24
BRANCH  23  26
ATOM     26  C   UNL     1      -0.613   1.184   7.379  0.00  0.00    +0.106 C 
ATOM     27  C   UNL     1      -1.497   2.076   6.505  0.00  0.00    +0.022 C 
ENDBRANCH  23  26
ENDBRANCH  20  23
ENDBRANCH  17  20
ENDBRANCH   2  14
BRANCH   1  28
ATOM     28  C   UNL     1       3.191   5.638   2.042  0.00  0.00    +0.124 C 
BRANCH  28  30
ATOM     29  C   UNL     1       5.470   5.262   2.993  0.00  0.00    +0.005 C 
ATOM     30  C   UNL     1       4.492   4.847   1.892  0.00  0.00    +0.018 C 
ENDBRANCH  28  30
ENDBRANCH   1  28
TORSDOF 8
