REMARK  Name = ZINC04830451
REMARK  4 active torsions:
REMARK  status: ('A' for Active; 'I' for Inactive)
REMARK    1  A    between atoms: C_1  and  C_2
REMARK    2  A    between atoms: C_7  and  S_15
REMARK    3  A    between atoms: S_15  and  C_16
REMARK    4  A    between atoms: C_16  and  C_17
REMARK                            x       y       z     vdW  Elec       q    Type
REMARK                         _______ _______ _______ _____ _____    ______ ____
ROOT
ATOM      1  C   UNL     1      -5.570   9.290   0.077  0.00  0.00    +0.044 C 
ATOM      2  C   UNL     1      -4.745   8.028   0.067  0.00  0.00    -0.038 A 
ATOM      3  C   UNL     1      -5.347   6.817   0.064  0.00  0.00    +0.052 A 
ATOM      4  C   UNL     1      -4.573   5.633   0.054  0.00  0.00    +0.162 A 
ATOM      5  N   UNL     1      -4.903   4.355   0.049  0.00  0.00    -0.129 NA
ATOM      6  N   UNL     1      -3.841   3.630   0.034  0.00  0.00    -0.122 NA
ATOM      7  C   UNL     1      -2.770   4.393   0.039  0.00  0.00    +0.197 A 
ATOM      8  N   UNL     1      -3.197   5.689   0.048  0.00  0.00    -0.270 N 
ATOM      9  C   UNL     1      -2.536   6.905   0.051  0.00  0.00    +0.058 A 
ATOM     10  C   UNL     1      -3.281   8.098   0.060  0.00  0.00    +0.002 A 
ATOM     11  C   UNL     1      -2.621   9.330   0.063  0.00  0.00    +0.010 A 
ATOM     12  C   UNL     1      -1.244   9.366   0.057  0.00  0.00    +0.001 A 
ATOM     13  C   UNL     1      -0.512   8.188   0.048  0.00  0.00    +0.002 A 
ATOM     14  C   UNL     1      -1.149   6.964   0.045  0.00  0.00    +0.027 A 
ENDROOT
BRANCH   7  15
ATOM     15  S   UNL     1      -1.095   3.845   0.028  0.00  0.00    -0.078 S 
BRANCH  15  16
ATOM     16  C   UNL     1      -1.352   2.053   0.019  0.00  0.00    +0.151 C 
BRANCH  16  17
ATOM     17  C   UNL     1      -0.016   1.355   0.009  0.00  0.00    +0.121 A 
ATOM     18  N   UNL     1       0.002  -0.004   0.002  0.00  0.00    -0.309 N 
ATOM     19  H   UNL     1      -0.828  -0.505   0.008  0.00  0.00    +0.170 HD
ATOM     20  C   UNL     1       1.192  -0.652  -0.013  0.00  0.00    +0.266 A 
ATOM     21  O   UNL     1       1.242  -1.871  -0.019  0.00  0.00    -0.267 OA
ATOM     22  C   UNL     1       2.358   0.114  -0.020  0.00  0.00    +0.102 A 
ATOM     23  C   UNL     1       2.311   1.519  -0.012  0.00  0.00    +0.085 A 
ATOM     24  N   UNL     1       1.057   2.079   0.003  0.00  0.00    -0.232 NA
ATOM     25  C   UNL     1       3.555   2.164  -0.020  0.00  0.00    +0.036 A 
ATOM     26  C   UNL     1       4.696   1.441  -0.035  0.00  0.00    +0.048 A 
ATOM     27  S   UNL     1       4.095  -0.240  -0.038  0.00  0.00    -0.090 S 
ENDBRANCH  16  17
ENDBRANCH  15  16
ENDBRANCH   7  15
TORSDOF 3
