REMARK  Name = ZINC36038429
REMARK  12 active torsions:
REMARK  status: ('A' for Active; 'I' for Inactive)
REMARK    1  A    between atoms: C_1  and  C_2
REMARK    2  A    between atoms: C_2  and  C_3
REMARK    3  A    between atoms: C_3  and  C_5
REMARK    4  A    between atoms: C_3  and  C_6
REMARK    5  A    between atoms: C_6  and  N_7
REMARK    6  A    between atoms: C_10  and  C_32
REMARK    7  A    between atoms: N_16  and  S_19
REMARK    8  A    between atoms: S_19  and  C_22
REMARK    9  A    between atoms: C_26  and  C_28
REMARK   10  A    between atoms: C_32  and  C_33
REMARK   11  A    between atoms: C_33  and  C_34
REMARK   12  A    between atoms: C_33  and  C_35
REMARK                            x       y       z     vdW  Elec       q    Type
REMARK                         _______ _______ _______ _____ _____    ______ ____
ROOT
ATOM      1  N   UNL     1      -2.631  -2.733  -0.163  0.00  0.00    -0.313 N 
ATOM      2  C   UNL     1      -3.356  -2.880   0.966  0.00  0.00    +0.200 C 
ATOM      3  O   UNL     1      -3.007  -2.553   2.080  0.00  0.00    -0.277 OA
ATOM      4  C   UNL     1      -4.679  -3.522   0.606  0.00  0.00    +0.019 C 
ATOM      5  N   UNL     1      -4.798  -3.346  -0.861  0.00  0.00    +0.401 N 
ATOM      6  C   UNL     1      -3.393  -3.247  -1.304  0.00  0.00    +0.006 C 
ATOM      7  C   UNL     1      -2.883  -4.631  -1.700  0.00  0.00    +0.023 C 
ATOM      8  C   UNL     1      -1.414  -4.530  -2.123  0.00  0.00    +0.109 C 
ATOM      9  N   UNL     1      -1.294  -3.510  -3.174  0.00  0.00    -0.177 NA
ATOM     10  C   UNL     1      -1.824  -2.164  -2.916  0.00  0.00    +0.109 C 
ATOM     11  C   UNL     1      -3.289  -2.285  -2.486  0.00  0.00    +0.023 C 
ATOM     12  H   UNL     1      -5.251  -4.144  -1.280  0.00  0.00    -0.082 HD
ATOM     13  H   UNL     1      -5.297  -2.496  -1.079  0.00  0.00    -0.082 HD
ENDROOT
BRANCH   9  14
ATOM     14  S   UNL     1      -0.576  -3.870  -4.621  0.00  0.00    +0.061 S 
ATOM     15  O   UNL     1      -0.113  -2.640  -5.163  0.00  0.00    -0.153 OA
ATOM     16  O   UNL     1       0.291  -4.971  -4.382  0.00  0.00    -0.153 OA
BRANCH  14  17
ATOM     17  C   UNL     1      -1.841  -4.451  -5.701  0.00  0.00    +0.106 A 
ATOM     18  C   UNL     1      -2.147  -5.799  -5.745  0.00  0.00    +0.028 A 
ATOM     19  C   UNL     1      -3.140  -6.255  -6.591  0.00  0.00    +0.002 A 
ATOM     20  C   UNL     1      -3.827  -5.363  -7.394  0.00  0.00    +0.012 A 
ATOM     21  C   UNL     1      -3.522  -4.016  -7.349  0.00  0.00    +0.057 A 
ATOM     22  C   UNL     1      -2.532  -3.559  -6.499  0.00  0.00    +0.041 A 
BRANCH  21  23
ATOM     23  C   UNL     1      -4.271  -3.044  -8.225  0.00  0.00    +0.417 C 
ATOM     24  F   UNL     1      -5.217  -3.737  -8.987  0.00  0.00    -0.166 F 
ATOM     25  F   UNL     1      -4.919  -2.099  -7.423  0.00  0.00    -0.166 F 
ATOM     26  F   UNL     1      -3.371  -2.395  -9.077  0.00  0.00    -0.166 F 
ENDBRANCH  21  23
ENDBRANCH  14  17
ENDBRANCH   9  14
BRANCH   1  27
ATOM     27  C   UNL     1      -1.292  -2.144  -0.236  0.00  0.00    +0.109 C 
BRANCH  27  28
ATOM     28  C   UNL     1      -1.393  -0.625  -0.084  0.00  0.00    +0.003 C 
ATOM     29  C   UNL     1      -2.415  -0.080  -1.083  0.00  0.00    +0.009 C 
BRANCH  28  31
ATOM     30  C   UNL     1      -0.096   1.510  -0.082  0.00  0.00    +0.004 C 
ATOM     31  C   UNL     1      -0.026   0.007  -0.356  0.00  0.00    +0.001 C 
ENDBRANCH  28  31
ENDBRANCH  27  28
ENDBRANCH   1  27
BRANCH   4  32
ATOM     32  C   UNL     1      -4.665  -5.008   0.968  0.00  0.00    -0.004 C 
BRANCH  32  33
ATOM     33  C   UNL     1      -6.042  -5.614   0.686  0.00  0.00    -0.018 C 
ATOM     34  C   UNL     1      -5.994  -7.124   0.929  0.00  0.00    +0.007 C 
ATOM     35  C   UNL     1      -7.078  -4.980   1.617  0.00  0.00    +0.007 C 
ENDBRANCH  32  33
ENDBRANCH   4  32
TORSDOF 8
