REMARK  Name = ZINC38139838
REMARK  9 active torsions:
REMARK  status: ('A' for Active; 'I' for Inactive)
REMARK    1  A    between atoms: C_1  and  O_2
REMARK    2  A    between atoms: O_2  and  N_3
REMARK    3  A    between atoms: C_4  and  C_5
REMARK    4  A    between atoms: C_4  and  C_11
REMARK    5  A    between atoms: N_13  and  CA_14
REMARK    6  A    between atoms: CA_21  and  C_32
REMARK    7  A    between atoms: C_22  and  C_25
REMARK    8  A    between atoms: C_25  and  S_26
REMARK    9  A    between atoms: S_26  and  C_27
REMARK                            x       y       z     vdW  Elec       q    Type
REMARK                         _______ _______ _______ _____ _____    ______ ____
ROOT
ATOM      1  CA  UNL     1       2.511  -2.038  -4.354  0.00  0.00    +0.191 C 
ATOM      2  C   UNL     1       2.471  -1.231  -5.641  0.00  0.00    +0.169 C 
ATOM      3  N   UNL     1       3.879  -0.901  -5.264  0.00  0.00    -0.249 N 
ATOM      4  C   UNL     1       4.005  -1.812  -4.280  0.00  0.00    +0.244 C 
ATOM      5  O   UNL     1       4.918  -2.259  -3.619  0.00  0.00    -0.273 OA
ATOM      6  CA  UNL     1       4.642   0.174  -5.766  0.00  0.00    +0.127 C 
ATOM      7  C   UNL     1       4.047   1.211  -6.335  0.00  0.00    -0.021 C 
ATOM      8  C   UNL     1       2.591   1.422  -6.592  0.00  0.00    +0.104 C 
ATOM      9  S   UNL     1       1.535   0.333  -5.559  0.00  0.00    -0.131 S 
ENDROOT
BRANCH   1  12
ATOM     10  C   UNL     1       1.294  -2.164  -2.247  0.00  0.00    +0.268 C 
ATOM     11  O   UNL     1       1.469  -3.366  -2.251  0.00  0.00    -0.268 OA
ATOM     12  N   UNL     1       1.776  -1.409  -3.254  0.00  0.00    -0.296 N 
ATOM     13  H   UNL     1       1.635  -0.449  -3.251  0.00  0.00    +0.150 HD
BRANCH  10  15
ATOM     14  N   UNL     1       0.362  -0.238  -1.130  0.00  0.00    -0.078 NA
ATOM     15  C   UNL     1       0.550  -1.527  -1.134  0.00  0.00    +0.190 C 
BRANCH  15  16
ATOM     16  C   UNL     1       0.021  -2.356  -0.029  0.00  0.00    +0.107 A 
ATOM     17  C   UNL     1      -0.568  -1.767   1.058  0.00  0.00    +0.078 A 
ATOM     18  S   UNL     1      -0.997  -3.208   2.026  0.00  0.00    -0.060 S 
ATOM     19  C   UNL     1      -0.356  -4.437   0.898  0.00  0.00    +0.156 A 
ATOM     20  N   UNL     1       0.106  -3.684  -0.082  0.00  0.00    -0.223 NA
ATOM     21  N   UNL     1      -0.351  -5.817   1.018  0.00  0.00    -0.338 N 
ATOM     22  H   UNL     1      -0.736  -6.236   1.804  0.00  0.00    +0.144 HD
ATOM     23  H   UNL     1       0.037  -6.363   0.317  0.00  0.00    +0.144 HD
ENDBRANCH  15  16
BRANCH  14  25
ATOM     24  C   UNL     1      -0.565   1.775  -0.246  0.00  0.00    +0.313 C 
ATOM     25  O   UNL     1      -0.446   0.356  -0.130  0.00  0.00    -0.396 OA
ENDBRANCH  14  25
ENDBRANCH  10  15
ENDBRANCH   1  12
BRANCH   6  26
ATOM     26  C   UNL     1       6.110   0.142  -5.657  0.00  0.00    +0.401 C 
ATOM     27  O   UNL     1       6.655   0.530  -4.633  0.00  0.00    -0.239 OA
ATOM     28  OXT UNL     1       6.784  -0.272  -6.590  0.00  0.00    -0.239 OA
ENDBRANCH   6  26
BRANCH   7  29
ATOM     29  C   UNL     1       4.959   2.326  -6.781  0.00  0.00    +0.108 C 
BRANCH  29  30
ATOM     30  S   UNL     1       5.257   2.185  -8.565  0.00  0.00    -0.111 S 
BRANCH  30  31
ATOM     31  C   UNL     1       6.325   3.540  -8.926  0.00  0.00    +0.085 A 
ATOM     32  C   UNL     1       6.861   3.916 -10.125  0.00  0.00    +0.159 A 
ATOM     33  N   UNL     1       7.633   4.979 -10.109  0.00  0.00    -0.148 NA
ATOM     34  N   UNL     1       7.836   5.593  -8.993  0.00  0.00    -0.109 NA
ATOM     35  S   UNL     1       6.941   4.708  -7.886  0.00  0.00    +0.043 S 
ENDBRANCH  30  31
ENDBRANCH  29  30
ENDBRANCH   7  29
TORSDOF 8
