REMARK  Name = ZINC06442852
REMARK  12 active torsions:
REMARK  status: ('A' for Active; 'I' for Inactive)
REMARK    1  A    between atoms: C_1  and  C_2
REMARK    2  A    between atoms: C_6  and  N_9
REMARK    3  A    between atoms: C_7  and  C_8
REMARK    4  A    between atoms: C_14  and  C_16
REMARK    5  A    between atoms: C_14  and  C_30
REMARK    6  A    between atoms: C_14  and  N_74
REMARK    7  A    between atoms: C_19  and  C_29
REMARK    8  A    between atoms: C_21  and  C_28
REMARK    9  A    between atoms: N_34  and  C_35
REMARK   10  A    between atoms: C_35  and  C_36
REMARK   11  A    between atoms: C_35  and  C_37
REMARK   12  A    between atoms: C_35  and  C_38
REMARK                            x       y       z     vdW  Elec       q    Type
REMARK                         _______ _______ _______ _____ _____    ______ ____
ROOT
ATOM      1  C   UNL     1       4.860  -3.101   0.116  0.00  0.00    +0.039 C 
ENDROOT
BRANCH   1   2
ATOM      2  C   UNL     1       3.527  -2.431  -0.092  0.00  0.00    +0.011 A 
ATOM      3  C   UNL     1       3.475  -1.115  -0.415  0.00  0.00    +0.018 A 
ATOM      4  C   UNL     1       2.163  -0.494  -0.611  0.00  0.00    +0.002 A 
ATOM      5  C   UNL     1       2.046   0.859  -0.945  0.00  0.00    -0.041 A 
ATOM      6  C   UNL     1       0.808   1.408  -1.120  0.00  0.00    +0.007 A 
ATOM      7  C   UNL     1      -0.336   0.635  -0.970  0.00  0.00    -0.048 A 
ATOM      8  C   UNL     1      -0.244  -0.700  -0.640  0.00  0.00    +0.029 A 
ATOM      9  C   UNL     1       1.006  -1.281  -0.457  0.00  0.00    +0.050 A 
ATOM     10  N   UNL     1       1.127  -2.614  -0.128  0.00  0.00    -0.322 N 
ATOM     11  H   UNL     1       0.329  -3.155  -0.022  0.00  0.00    +0.169 HD
ATOM     12  C   UNL     1       2.336  -3.176   0.050  0.00  0.00    +0.251 A 
ATOM     13  O   UNL     1       2.405  -4.357   0.340  0.00  0.00    -0.268 OA
ATOM     14  C   UNL     1      -1.691   1.262  -1.174  0.00  0.00    +0.044 C 
ATOM     15  C   UNL     1       3.281   1.707  -1.111  0.00  0.00    +0.044 C 
ENDBRANCH   1   2
BRANCH   1  21
ATOM     16  N   UNL     1       6.127  -5.940  -2.744  0.00  0.00    -0.333 N 
ATOM     17  C   UNL     1       4.901  -5.179  -3.025  0.00  0.00    +0.086 C 
ATOM     18  C   UNL     1       4.882  -3.913  -2.165  0.00  0.00    -0.058 C 
ATOM     19  C   UNL     1       6.178  -5.048  -0.465  0.00  0.00    -0.058 C 
ATOM     20  C   UNL     1       6.198  -6.314  -1.325  0.00  0.00    +0.086 C 
ATOM     21  N   UNL     1       4.931  -4.304  -0.741  0.00  0.00    +0.391 N 
ATOM     22  H   UNL     1       4.128  -4.909  -0.533  0.00  0.00    -0.080 HD
BRANCH  16  28
ATOM     23  C   UNL     1       8.544  -8.497  -6.176  0.00  0.00    +0.044 C 
ATOM     24  C   UNL     1       7.376  -8.333  -5.238  0.00  0.00    -0.046 A 
ATOM     25  C   UNL     1       6.389  -9.301  -5.188  0.00  0.00    +0.004 A 
ATOM     26  C   UNL     1       5.316  -9.155  -4.329  0.00  0.00    +0.002 A 
ATOM     27  C   UNL     1       5.226  -8.041  -3.516  0.00  0.00    +0.023 A 
ATOM     28  C   UNL     1       6.215  -7.067  -3.564  0.00  0.00    +0.033 A 
ATOM     29  C   UNL     1       7.289  -7.215  -4.433  0.00  0.00    -0.027 A 
ATOM     30  C   UNL     1       8.361  -6.157  -4.492  0.00  0.00    +0.046 C 
ENDBRANCH  16  28
ENDBRANCH   1  21
BRANCH   1  31
ATOM     31  C   UNL     1       4.994  -3.517   1.559  0.00  0.00    +0.143 A 
ATOM     32  N   UNL     1       4.314  -4.458   2.168  0.00  0.00    -0.115 NA
ATOM     33  N   UNL     1       4.716  -4.510   3.391  0.00  0.00    -0.023 NA
ATOM     34  N   UNL     1       5.634  -3.628   3.578  0.00  0.00    -0.043 NA
ATOM     35  N   UNL     1       5.838  -2.998   2.470  0.00  0.00    -0.225 N 
BRANCH  35  36
ATOM     36  C   UNL     1       6.803  -1.919   2.247  0.00  0.00    +0.059 C 
ATOM     37  C   UNL     1       6.068  -0.671   1.756  0.00  0.00    +0.036 C 
ATOM     38  C   UNL     1       7.526  -1.603   3.558  0.00  0.00    +0.036 C 
ATOM     39  C   UNL     1       7.823  -2.358   1.194  0.00  0.00    +0.036 C 
ENDBRANCH  35  36
ENDBRANCH   1  31
TORSDOF 5
