REMARK  Name = ZINC48289318
REMARK  5 active torsions:
REMARK  status: ('A' for Active; 'I' for Inactive)
REMARK    1  A    between atoms: C_7  and  C_27
REMARK    2  A    between atoms: N_9  and  C_12
REMARK    3  A    between atoms: C_12  and  N_13
REMARK    4  A    between atoms: N_13  and  C_14
REMARK    5  A    between atoms: C_14  and  C_20
REMARK                            x       y       z     vdW  Elec       q    Type
REMARK                         _______ _______ _______ _____ _____    ______ ____
ROOT
ATOM      1  C   UNL     1       5.951  -2.790   0.178  0.00  0.00    +0.070 C 
ENDROOT
BRANCH   1  10
ATOM      2  C   UNL     1       4.184   2.763   2.945  0.00  0.00    +0.001 A 
ATOM      3  C   UNL     1       5.526   2.848   2.597  0.00  0.00    +0.001 A 
ATOM      4  C   UNL     1       6.161   1.790   1.985  0.00  0.00    +0.014 A 
ATOM      5  C   UNL     1       5.447   0.624   1.714  0.00  0.00    +0.050 A 
ATOM      6  C   UNL     1       4.083   0.537   2.067  0.00  0.00    +0.016 A 
ATOM      7  C   UNL     1       3.461   1.620   2.685  0.00  0.00    +0.011 A 
ATOM      8  C   UNL     1       3.357  -0.707   1.767  0.00  0.00    +0.106 A 
ATOM      9  N   UNL     1       3.981  -1.701   1.184  0.00  0.00    -0.169 NA
ATOM     10  N   UNL     1       5.328  -1.634   0.827  0.00  0.00    -0.246 N 
ATOM     11  C   UNL     1       6.073  -0.535   1.063  0.00  0.00    +0.273 A 
ATOM     12  O   UNL     1       7.248  -0.503   0.740  0.00  0.00    -0.266 OA
BRANCH   8  13
ATOM     13  C   UNL     1       1.931  -0.835   2.122  0.00  0.00    +0.040 A 
ATOM     14  C   UNL     1       1.230  -1.953   2.495  0.00  0.00    +0.018 A 
ATOM     15  C   UNL     1      -0.110  -1.828   2.782  0.00  0.00    +0.008 A 
ATOM     16  C   UNL     1      -0.696  -0.606   2.689  0.00  0.00    +0.046 A 
ATOM     17  S   UNL     1       0.670   0.427   2.186  0.00  0.00    -0.095 S 
ENDBRANCH   8  13
ENDBRANCH   1  10
BRANCH   1  18
ATOM     18  N   UNL     1       5.506  -2.865  -1.220  0.00  0.00    +0.398 N 
ATOM     19  H   UNL     1       4.515  -3.051  -1.248  0.00  0.00    -0.082 HD
ATOM     20  H   UNL     1       5.698  -1.989  -1.682  0.00  0.00    -0.082 HD
BRANCH  18  21
ATOM     21  C   UNL     1       6.226  -3.947  -1.906  0.00  0.00    -0.036 C 
ATOM     22  C   UNL     1       5.683  -4.102  -3.330  0.00  0.00    +0.020 C 
ATOM     23  C   UNL     1       5.949  -2.813  -4.112  0.00  0.00    +0.159 C 
ATOM     24  O   UNL     1       7.352  -2.538  -4.111  0.00  0.00    -0.380 OA
ATOM     25  C   UNL     1       7.906  -2.337  -2.809  0.00  0.00    +0.159 C 
ATOM     26  C   UNL     1       7.718  -3.606  -1.975  0.00  0.00    +0.020 C 
BRANCH  21  27
ATOM     27  C   UNL     1       6.038  -5.237  -1.149  0.00  0.00    -0.058 A 
ATOM     28  C   UNL     1       4.906  -5.427  -0.379  0.00  0.00    +0.003 A 
ATOM     29  C   UNL     1       4.733  -6.610   0.315  0.00  0.00    +0.015 A 
ATOM     30  C   UNL     1       5.692  -7.603   0.238  0.00  0.00    +0.018 A 
ATOM     31  C   UNL     1       6.825  -7.412  -0.533  0.00  0.00    +0.015 A 
ATOM     32  C   UNL     1       6.995  -6.231  -1.230  0.00  0.00    +0.003 A 
ATOM     33 BR   UNL     1       5.456  -9.221   1.187  0.00  0.00    -0.050 Br
ENDBRANCH  21  27
ENDBRANCH  18  21
ENDBRANCH   1  18
TORSDOF 5
