REMARK  Name = ZINC04729901
REMARK  8 active torsions:
REMARK  status: ('A' for Active; 'I' for Inactive)
REMARK    1  A    between atoms: C_1  and  C_2
REMARK    2  A    between atoms: C_2  and  C_3
REMARK    3  A    between atoms: C_3  and  C_4
REMARK    4  A    between atoms: C_6  and  C_18
REMARK    5  A    between atoms: C_9  and  C_11
REMARK    6  A    between atoms: C_22  and  O_25
REMARK    7  A    between atoms: C_23  and  O_24
REMARK    8  A    between atoms: O_25  and  C_26
REMARK                            x       y       z     vdW  Elec       q    Type
REMARK                         _______ _______ _______ _____ _____    ______ ____
ROOT
ATOM      1  C   UNL     1       2.319  -0.086  -0.664  0.00  0.00    +0.050 C 
ATOM      2  C   UNL     1       0.002  -0.004   0.002  0.00  0.00    -0.028 C 
ATOM      3  C   UNL     1      -0.019   1.528   0.010  0.00  0.00    +0.044 C 
ATOM      4  C   UNL     1       1.392   2.048  -0.000  0.00  0.00    +0.040 C 
ATOM      5  N   UNL     1       2.402   1.323  -0.304  0.00  0.00    -0.303 NA
ATOM      6  N   UNL     1       0.945  -0.448  -1.044  0.00  0.00    +0.399 N 
ATOM      7  H   UNL     1       0.878  -1.467  -1.152  0.00  0.00    -0.082 HD
ATOM      8  H   UNL     1       0.706   0.007  -1.933  0.00  0.00    -0.082 HD
ENDROOT
BRANCH   4   9
ATOM      9  C   UNL     1       1.622   3.462   0.355  0.00  0.00    -0.004 A 
ATOM     10  C   UNL     1       0.544   4.286   0.686  0.00  0.00    +0.011 A 
ATOM     11  C   UNL     1       0.766   5.605   1.023  0.00  0.00    +0.020 A 
ATOM     12  C   UNL     1       2.054   6.115   1.022  0.00  0.00    +0.041 A 
ATOM     13  C   UNL     1       3.126   5.304   0.690  0.00  0.00    +0.020 A 
ATOM     14  C   UNL     1       2.918   3.982   0.357  0.00  0.00    +0.011 A 
ATOM     15 CL   UNL     1       2.325   7.778   1.440  0.00  0.00    -0.084 Cl
ENDBRANCH   4   9
BRANCH   2  16
ATOM     16  C   UNL     1      -1.376  -0.530  -0.305  0.00  0.00    -0.016 A 
ATOM     17  C   UNL     1      -1.685  -0.956  -1.585  0.00  0.00    +0.006 A 
ATOM     18  C   UNL     1      -2.948  -1.438  -1.870  0.00  0.00    +0.004 A 
ATOM     19  C   UNL     1      -3.909  -1.498  -0.878  0.00  0.00    +0.049 A 
ATOM     20  C   UNL     1      -3.607  -1.073   0.406  0.00  0.00    +0.161 A 
ATOM     21  C   UNL     1      -2.333  -0.591   0.694  0.00  0.00    +0.160 A 
BRANCH  21  22
ATOM     22  O   UNL     1      -2.030  -0.177   1.954  0.00  0.00    -0.503 OA
ATOM     23  H   UNL     1      -2.209   0.760   2.114  0.00  0.00    +0.292 HD
ENDBRANCH  21  22
BRANCH  20  24
ATOM     24  O   UNL     1      -4.551  -1.130   1.383  0.00  0.00    -0.491 OA
ATOM     25  C   UNL     1      -5.834  -1.641   1.015  0.00  0.00    +0.277 C 
ENDBRANCH  20  24
ENDBRANCH   2  16
BRANCH   1  26
ATOM     26  C   UNL     1       3.252  -0.361  -1.845  0.00  0.00    +0.007 C 
BRANCH  26  28
ATOM     27  C   UNL     1       5.634  -0.381  -2.600  0.00  0.00    +0.004 C 
ATOM     28  C   UNL     1       4.700  -0.107  -1.420  0.00  0.00    -0.003 C 
ENDBRANCH  26  28
ENDBRANCH   1  26
TORSDOF 6
