REMARK  Name = ZINC03419298
REMARK  6 active torsions:
REMARK  status: ('A' for Active; 'I' for Inactive)
REMARK    1  A    between atoms: C_4  and  C_7
REMARK    2  A    between atoms: C_8  and  C_28
REMARK    3  A    between atoms: C_11  and  C_13
REMARK    4  A    between atoms: C_16  and  N_19
REMARK    5  A    between atoms: N_19  and  S_20
REMARK    6  A    between atoms: S_20  and  C_23
REMARK                            x       y       z     vdW  Elec       q    Type
REMARK                         _______ _______ _______ _____ _____    ______ ____
ROOT
ATOM      1  C   UNL     1      -3.332   8.909  -0.061  0.00  0.00    +0.101 A 
ATOM      2  C   UNL     1      -3.395   9.586  -1.297  0.00  0.00    +0.119 A 
ATOM      3  N   UNL     1      -3.062   8.934  -2.406  0.00  0.00    -0.145 NA
ATOM      4  N   UNL     1      -2.689   7.703  -2.352  0.00  0.00    -0.128 NA
ATOM      5  C   UNL     1      -2.622   7.045  -1.199  0.00  0.00    +0.182 A 
ATOM      6  N   UNL     1      -2.945   7.636  -0.054  0.00  0.00    -0.224 NA
ENDROOT
BRANCH   1  10
ATOM      7  C   UNL     1      -4.369  10.886   3.556  0.00  0.00    +0.000 A 
ATOM      8  C   UNL     1      -4.660   9.543   3.397  0.00  0.00    +0.001 A 
ATOM      9  C   UNL     1      -4.326   8.896   2.224  0.00  0.00    +0.010 A 
ATOM     10  C   UNL     1      -3.693   9.598   1.199  0.00  0.00    +0.003 A 
ATOM     11  C   UNL     1      -3.397  10.950   1.368  0.00  0.00    +0.010 A 
ATOM     12  C   UNL     1      -3.742  11.588   2.542  0.00  0.00    +0.001 A 
ENDBRANCH   1  10
BRANCH   5  13
ATOM     13  C   UNL     1      -2.186   5.630  -1.192  0.00  0.00    +0.021 A 
ATOM     14  C   UNL     1      -1.849   4.996  -2.388  0.00  0.00    +0.013 A 
ATOM     15  C   UNL     1      -1.443   3.680  -2.378  0.00  0.00    +0.025 A 
ATOM     16  C   UNL     1      -1.369   2.983  -1.177  0.00  0.00    +0.048 A 
ATOM     17  C   UNL     1      -1.710   3.611   0.016  0.00  0.00    +0.025 A 
ATOM     18  C   UNL     1      -2.111   4.929   0.012  0.00  0.00    +0.013 A 
BRANCH  16  19
ATOM     19  N   UNL     1      -0.959   1.651  -1.170  0.00  0.00    -0.216 N 
ATOM     20  H   UNL     1      -1.610   0.943  -1.046  0.00  0.00    +0.174 HD
BRANCH  19  21
ATOM     21  S   UNL     1       0.642   1.277  -1.373  0.00  0.00    +0.079 S 
ATOM     22  O   UNL     1       0.746  -0.136  -1.261  0.00  0.00    -0.149 OA
ATOM     23  O   UNL     1       1.081   1.984  -2.525  0.00  0.00    -0.149 OA
BRANCH  21  24
ATOM     24  C   UNL     1       1.514   1.957  -0.001  0.00  0.00    +0.146 A 
ATOM     25  C   UNL     1       1.715   1.427   1.230  0.00  0.00    +0.036 A 
ATOM     26  C   UNL     1       2.440   2.148   2.160  0.00  0.00    +0.010 A 
ATOM     27  C   UNL     1       2.929   3.364   1.813  0.00  0.00    +0.047 A 
ATOM     28  S   UNL     1       2.369   3.519   0.125  0.00  0.00    -0.077 S 
ENDBRANCH  21  24
ENDBRANCH  19  21
ENDBRANCH  16  19
ENDBRANCH   5  13
BRANCH   2  29
ATOM     29  C   UNL     1      -3.824  11.002  -1.357  0.00  0.00    +0.004 A 
ATOM     30  C   UNL     1      -4.806  11.474  -0.486  0.00  0.00    +0.010 A 
ATOM     31  C   UNL     1      -5.199  12.796  -0.544  0.00  0.00    +0.001 A 
ATOM     32  C   UNL     1      -4.628  13.650  -1.470  0.00  0.00    +0.000 A 
ATOM     33  C   UNL     1      -3.657  13.187  -2.341  0.00  0.00    +0.001 A 
ATOM     34  C   UNL     1      -3.253  11.868  -2.289  0.00  0.00    +0.010 A 
ENDBRANCH   2  29
TORSDOF 6
