REMARK  Name = ZINC09344074
REMARK  9 active torsions:
REMARK  status: ('A' for Active; 'I' for Inactive)
REMARK    1  A    between atoms: C_1  and  C_2
REMARK    2  A    between atoms: C_2  and  O_3
REMARK    3  A    between atoms: O_3  and  C_4
REMARK    4  A    between atoms: C_13  and  C_14
REMARK    5  A    between atoms: N_16  and  C_17
REMARK    6  A    between atoms: C_25  and  C_26
REMARK    7  A    between atoms: N_28  and  C_29
REMARK    8  A    between atoms: C_32  and  O_35
REMARK    9  A    between atoms: O_35  and  C_36
REMARK                            x       y       z     vdW  Elec       q    Type
REMARK                         _______ _______ _______ _____ _____    ______ ____
ROOT
ATOM      1  C   UNL     1      -3.110   7.184  -1.094  0.00  0.00    +0.092 A 
ATOM      2  C   UNL     1      -4.041   7.418  -2.205  0.00  0.00    +0.042 A 
ATOM      3  C   UNL     1      -4.119   6.958  -3.520  0.00  0.00    +0.013 A 
ATOM      4  C   UNL     1      -5.146   7.369  -4.322  0.00  0.00    +0.001 A 
ATOM      5  C   UNL     1      -6.114   8.237  -3.835  0.00  0.00    +0.004 A 
ATOM      6  C   UNL     1      -6.058   8.698  -2.538  0.00  0.00    +0.047 A 
ATOM      7  C   UNL     1      -5.022   8.292  -1.703  0.00  0.00    +0.138 A 
ATOM      8  O   UNL     1      -4.711   8.569  -0.421  0.00  0.00    -0.448 OA
ATOM      9  C   UNL     1      -3.585   7.922  -0.045  0.00  0.00    +0.212 A 
ENDROOT
BRANCH   1  12
ATOM     10  C   UNL     1      -1.232   6.286  -2.228  0.00  0.00    +0.252 C 
ATOM     11  O   UNL     1      -1.606   6.822  -3.254  0.00  0.00    -0.270 OA
ATOM     12  N   UNL     1      -1.976   6.382  -1.108  0.00  0.00    -0.278 N 
ATOM     13  H   UNL     1      -1.720   5.891  -0.312  0.00  0.00    +0.155 HD
BRANCH  10  23
ATOM     14  C   UNL     1       0.053   4.170  -2.506  0.00  0.00    +0.133 A 
ATOM     15  C   UNL     1       1.256   3.462  -2.485  0.00  0.00    +0.047 A 
ATOM     16  C   UNL     1       2.434   4.064  -2.181  0.00  0.00    +0.012 A 
ATOM     17  C   UNL     1       2.484   5.436  -1.871  0.00  0.00    -0.017 A 
ATOM     18  C   UNL     1       3.698   6.068  -1.554  0.00  0.00    +0.008 A 
ATOM     19  C   UNL     1       3.710   7.398  -1.260  0.00  0.00    +0.001 A 
ATOM     20  C   UNL     1       2.533   8.142  -1.262  0.00  0.00    +0.001 A 
ATOM     21  C   UNL     1       1.338   7.562  -1.571  0.00  0.00    +0.009 A 
ATOM     22  C   UNL     1       1.291   6.197  -1.878  0.00  0.00    -0.002 A 
ATOM     23  C   UNL     1       0.030   5.534  -2.209  0.00  0.00    +0.086 A 
BRANCH  14  24
ATOM     24  O   UNL     1      -1.101   3.529  -2.816  0.00  0.00    -0.491 OA
BRANCH  24  26
ATOM     25  C   UNL     1      -2.401   1.587  -3.434  0.00  0.00    +0.048 C 
ATOM     26  C   UNL     1      -1.008   2.133  -3.110  0.00  0.00    +0.226 C 
ENDBRANCH  24  26
ENDBRANCH  14  24
ENDBRANCH  10  23
ENDBRANCH   1  12
BRANCH   9  27
ATOM     27  C   UNL     1      -2.970   8.001   1.278  0.00  0.00    +0.285 C 
ATOM     28  O   UNL     1      -1.903   7.452   1.487  0.00  0.00    -0.266 OA
ATOM     29  N   UNL     1      -3.583   8.680   2.267  0.00  0.00    -0.279 N 
ATOM     30  H   UNL     1      -4.398   9.173   2.084  0.00  0.00    +0.155 HD
BRANCH  29  31
ATOM     31  C   UNL     1      -3.045   8.672   3.560  0.00  0.00    +0.034 A 
ATOM     32  C   UNL     1      -3.888   8.685   4.663  0.00  0.00    +0.027 A 
ATOM     33  C   UNL     1      -3.357   8.672   5.938  0.00  0.00    +0.047 A 
ATOM     34  C   UNL     1      -1.981   8.657   6.116  0.00  0.00    +0.120 A 
ATOM     35  C   UNL     1      -1.138   8.650   5.014  0.00  0.00    +0.047 A 
ATOM     36  C   UNL     1      -1.668   8.657   3.739  0.00  0.00    +0.027 A 
BRANCH  34  37
ATOM     37  O   UNL     1      -1.458   8.649   7.371  0.00  0.00    -0.495 OA
ATOM     38  C   UNL     1      -2.384   8.658   8.460  0.00  0.00    +0.277 C 
ENDBRANCH  34  37
ENDBRANCH  29  31
ENDBRANCH   9  27
TORSDOF 7
