REMARK  Name = ZINC39677709
REMARK  10 active torsions:
REMARK  status: ('A' for Active; 'I' for Inactive)
REMARK    1  A    between atoms: C_1  and  C_2
REMARK    2  A    between atoms: C_4  and  C_11
REMARK    3  A    between atoms: N_5  and  C_7
REMARK    4  A    between atoms: C_7  and  C_8
REMARK    5  A    between atoms: C_7  and  C_9
REMARK    6  A    between atoms: C_7  and  C_10
REMARK    7  A    between atoms: C_15  and  C_24
REMARK    8  A    between atoms: N_26  and  C_27
REMARK    9  A    between atoms: C_27  and  C_28
REMARK   10  A    between atoms: C_31  and  C_33
REMARK                            x       y       z     vdW  Elec       q    Type
REMARK                         _______ _______ _______ _____ _____    ______ ____
ROOT
ATOM      1  C   UNL     1      -0.570  -3.607  -1.417  0.00  0.00    +0.265 C 
ATOM      2  O   UNL     1      -0.778  -3.649  -2.614  0.00  0.00    -0.268 OA
ATOM      3  N   UNL     1      -0.520  -4.749  -0.702  0.00  0.00    -0.295 N 
ATOM      4  C   UNL     1      -0.412  -4.896   0.769  0.00  0.00    +0.121 C 
ATOM      5  C   UNL     1      -1.339  -6.083   1.112  0.00  0.00    +0.100 C 
ATOM      6  C   UNL     1      -1.431  -6.898  -0.189  0.00  0.00    -0.004 C 
ATOM      7  C   UNL     1      -0.567  -6.141  -1.209  0.00  0.00    +0.115 C 
ATOM      8  C   UNL     1      -0.884  -8.305   0.029  0.00  0.00    -0.010 C 
ATOM      9  C   UNL     1      -1.040  -9.114  -1.262  0.00  0.00    -0.082 C 
ATOM     10  N   UNL     1      -2.457  -9.171  -1.638  0.00  0.00    +0.379 N 
ATOM     11  C   UNL     1      -2.952  -7.822  -1.936  0.00  0.00    -0.082 C 
ATOM     12  C   UNL     1      -2.877  -6.958  -0.673  0.00  0.00    -0.010 C 
ATOM     13  H   UNL     1      -2.564  -9.755  -2.454  0.00  0.00    -0.086 HD
ATOM     14  H   UNL     1      -2.990  -9.563  -0.876  0.00  0.00    -0.086 HD
ENDROOT
BRANCH   1  18
ATOM     15  C   UNL     1       0.443   0.021   1.979  0.00  0.00    +0.067 C 
ATOM     16  C   UNL     1       0.066  -0.717   0.720  0.00  0.00    +0.061 A 
ATOM     17  C   UNL     1       0.022  -2.104   0.562  0.00  0.00    +0.057 A 
ATOM     18  C   UNL     1      -0.373  -2.311  -0.748  0.00  0.00    +0.124 A 
ATOM     19  N   UNL     1      -0.542  -1.072  -1.297  0.00  0.00    -0.254 N 
ATOM     20  N   UNL     1      -0.284  -0.172  -0.417  0.00  0.00    -0.175 NA
BRANCH  19  21
ATOM     21  C   UNL     1      -0.959  -0.809  -2.676  0.00  0.00    +0.056 C 
ATOM     22  C   UNL     1      -2.278  -1.532  -2.957  0.00  0.00    +0.036 C 
ATOM     23  C   UNL     1      -1.151   0.696  -2.873  0.00  0.00    +0.036 C 
ATOM     24  C   UNL     1       0.116  -1.316  -3.640  0.00  0.00    +0.036 C 
ENDBRANCH  19  21
ENDBRANCH   1  18
BRANCH   5  25
ATOM     25  C   UNL     1      -2.702  -5.584   1.519  0.00  0.00    +0.218 C 
ATOM     26  O   UNL     1      -3.147  -4.568   1.029  0.00  0.00    -0.275 OA
ATOM     27  N   UNL     1      -3.426  -6.267   2.428  0.00  0.00    -0.310 N 
ATOM     28  H   UNL     1      -3.040  -7.035   2.877  0.00  0.00    +0.149 HD
BRANCH  27  29
ATOM     29  C   UNL     1      -4.796  -5.850   2.736  0.00  0.00    +0.146 C 
BRANCH  29  30
ATOM     30  C   UNL     1      -5.380  -6.772   3.775  0.00  0.00    +0.007 A 
ATOM     31  C   UNL     1      -5.351  -6.661   5.129  0.00  0.00    +0.013 A 
ATOM     32  C   UNL     1      -5.956  -7.632   5.895  0.00  0.00    +0.018 A 
ATOM     33  C   UNL     1      -6.570  -8.681   5.263  0.00  0.00    +0.038 A 
ATOM     34  S   UNL     1      -6.295  -8.287   3.543  0.00  0.00    -0.090 S 
BRANCH  33  35
ATOM     35  C   UNL     1      -7.281  -9.835   5.851  0.00  0.00    +0.078 A 
ATOM     36  C   UNL     1      -7.835 -10.806   5.016  0.00  0.00    +0.029 A 
ATOM     37  C   UNL     1      -8.497 -11.880   5.582  0.00  0.00    +0.004 A 
ATOM     38  C   UNL     1      -8.585 -11.951   6.966  0.00  0.00    +0.020 A 
ATOM     39  C   UNL     1      -8.013 -10.954   7.734  0.00  0.00    +0.111 A 
ATOM     40  N   UNL     1      -7.382  -9.943   7.172  0.00  0.00    -0.254 NA
ENDBRANCH  33  35
ENDBRANCH  29  30
ENDBRANCH  27  29
ENDBRANCH   5  25
TORSDOF 6
