REMARK  Name = ZINC67263396
REMARK  5 active torsions:
REMARK  status: ('A' for Active; 'I' for Inactive)
REMARK    1  A    between atoms: C_1  and  C_2
REMARK    2  A    between atoms: C_2  and  C_4
REMARK    3  A    between atoms: C_2  and  N_11
REMARK    4  A    between atoms: C_21  and  S_24
REMARK    5  A    between atoms: S_24  and  C_27
REMARK                            x       y       z     vdW  Elec       q    Type
REMARK                         _______ _______ _______ _____ _____    ______ ____
ROOT
ATOM      1  N   UNL     1      -1.372  -0.511   0.012  0.00  0.00    -0.322 N 
ATOM      2  C   UNL     1      -2.069  -0.646  -1.175  0.00  0.00    +0.138 A 
ATOM      3  C   UNL     1      -3.383  -1.125  -1.167  0.00  0.00    +0.077 A 
ATOM      4  C   UNL     1      -4.119  -1.274  -2.347  0.00  0.00    +0.087 A 
ATOM      5  C   UNL     1      -5.418  -1.761  -2.196  0.00  0.00    +0.036 A 
ATOM      6  C   UNL     1      -5.895  -2.057  -0.966  0.00  0.00    +0.048 A 
ATOM      7  S   UNL     1      -4.513  -1.661   0.091  0.00  0.00    -0.092 S 
ATOM      8  N   UNL     1      -3.449  -0.914  -3.520  0.00  0.00    -0.192 N 
ATOM      9  C   UNL     1      -2.164  -0.451  -3.479  0.00  0.00    +0.204 A 
ATOM     10  N   UNL     1      -1.496  -0.318  -2.321  0.00  0.00    -0.209 NA
ATOM     11  C   UNL     1      -1.812  -0.191  -4.794  0.00  0.00    +0.249 A 
ATOM     12  N   UNL     1      -2.846  -0.489  -5.572  0.00  0.00    -0.108 NA
ATOM     13  N   UNL     1      -3.833  -0.918  -4.865  0.00  0.00    -0.057 NA
ATOM     14  H   UNL     1      -1.794  -0.752   0.852  0.00  0.00    +0.148 HD
ENDROOT
BRANCH  11  15
ATOM     15  S   UNL     1      -0.257   0.430  -5.341  0.00  0.00    +0.047 S 
ATOM     16  O   UNL     1      -0.488   1.059  -6.594  0.00  0.00    -0.163 OA
ATOM     17  O   UNL     1       0.317   1.117  -4.238  0.00  0.00    -0.163 OA
BRANCH  15  18
ATOM     18  C   UNL     1       0.776  -0.962  -5.661  0.00  0.00    +0.096 A 
ATOM     19  C   UNL     1       1.564  -1.483  -4.652  0.00  0.00    +0.029 A 
ATOM     20  C   UNL     1       2.375  -2.575  -4.902  0.00  0.00    +0.022 A 
ATOM     21  C   UNL     1       2.397  -3.145  -6.162  0.00  0.00    +0.041 A 
ATOM     22  C   UNL     1       1.608  -2.623  -7.171  0.00  0.00    +0.022 A 
ATOM     23  C   UNL     1       0.794  -1.535  -6.918  0.00  0.00    +0.029 A 
ATOM     24 CL   UNL     1       3.415  -4.516  -6.477  0.00  0.00    -0.084 Cl
ENDBRANCH  15  18
ENDBRANCH  11  15
BRANCH   1  26
ATOM     25  C   UNL     1      -0.019   1.526   0.010  0.00  0.00    +0.033 C 
ATOM     26  C   UNL     1       0.002  -0.004   0.002  0.00  0.00    +0.099 C 
BRANCH  26  27
ATOM     27  C   UNL     1       0.731  -0.503   1.223  0.00  0.00    -0.027 A 
ATOM     28  C   UNL     1       0.080  -0.558   2.441  0.00  0.00    +0.008 A 
ATOM     29  C   UNL     1       0.748  -1.016   3.562  0.00  0.00    +0.038 A 
ATOM     30  C   UNL     1       2.068  -1.420   3.463  0.00  0.00    +0.123 A 
ATOM     31  C   UNL     1       2.719  -1.365   2.242  0.00  0.00    +0.038 A 
ATOM     32  C   UNL     1       2.048  -0.911   1.122  0.00  0.00    +0.008 A 
ATOM     33  F   UNL     1       2.722  -1.868   4.558  0.00  0.00    -0.205 F 
ENDBRANCH  26  27
ENDBRANCH   1  26
TORSDOF 4
