REMARK  Name = ZINC06632089
REMARK  10 active torsions:
REMARK  status: ('A' for Active; 'I' for Inactive)
REMARK    1  A    between atoms: C_1  and  C_2
REMARK    2  A    between atoms: C_2  and  C_3
REMARK    3  A    between atoms: C_10  and  N_14
REMARK    4  A    between atoms: C_11  and  C_12
REMARK    5  A    between atoms: C_15  and  C_17
REMARK    6  A    between atoms: C_17  and  C_19
REMARK    7  A    between atoms: C_17  and  S_20
REMARK    8  A    between atoms: S_20  and  C_21
REMARK    9  A    between atoms: C_23  and  C_31
REMARK   10  A    between atoms: C_25  and  C_27
REMARK                            x       y       z     vdW  Elec       q    Type
REMARK                         _______ _______ _______ _____ _____    ______ ____
ROOT
ATOM      1  C   UNL     1      -0.729   1.579   1.267  0.00  0.00    +0.137 C 
ATOM      2  C   UNL     1      -0.013   1.086   0.008  0.00  0.00    +0.029 C 
ENDROOT
BRANCH   1   4
ATOM      3  N   UNL     1       0.342   3.773   1.668  0.00  0.00    -0.278 N 
ATOM      4  C   UNL     1      -0.749   3.086   1.275  0.00  0.00    +0.231 C 
ATOM      5  O   UNL     1      -1.748   3.681   0.929  0.00  0.00    -0.274 OA
ATOM      6  H   UNL     1       1.141   3.297   1.945  0.00  0.00    +0.155 HD
BRANCH   3  13
ATOM      7  C   UNL     1       0.163  10.150   2.075  0.00  0.00    -0.006 C 
ATOM      8  C   UNL     1       1.619   9.862   1.697  0.00  0.00    +0.008 C 
ATOM      9  C   UNL     1       2.067   8.540   2.324  0.00  0.00    +0.037 C 
ATOM     10  C   UNL     1       1.059   7.457   1.958  0.00  0.00    -0.018 A 
ATOM     11  C   UNL     1      -0.180   7.778   1.525  0.00  0.00    -0.004 A 
ATOM     12  S   UNL     1      -0.972   6.222   1.230  0.00  0.00    -0.077 S 
ATOM     13  C   UNL     1       0.323   5.160   1.675  0.00  0.00    +0.090 A 
ATOM     14  C   UNL     1       1.334   6.034   2.047  0.00  0.00    +0.084 A 
ATOM     15  C   UNL     1      -0.745   9.152   1.341  0.00  0.00    +0.046 C 
BRANCH   7  17
ATOM     16  C   UNL     1      -1.614  11.906   2.147  0.00  0.00    +0.004 C 
ATOM     17  C   UNL     1      -0.202  11.577   1.658  0.00  0.00    +0.000 C 
ENDBRANCH   7  17
BRANCH  14  18
ATOM     18  C   UNL     1       2.604   5.550   2.499  0.00  0.00    +0.102 C 
ATOM     19  N   UNL     1       3.612   5.166   2.857  0.00  0.00    -0.191 NA
ENDBRANCH  14  18
ENDBRANCH   3  13
ENDBRANCH   1   4
BRANCH   1  20
ATOM     20  S   UNL     1      -2.427   0.953   1.280  0.00  0.00    -0.074 S 
BRANCH  20  21
ATOM     21  C   UNL     1      -2.114  -0.776   1.419  0.00  0.00    +0.190 A 
ATOM     22  N   UNL     1      -3.138  -1.615   1.467  0.00  0.00    -0.222 NA
ATOM     23  C   UNL     1      -2.935  -2.926   1.567  0.00  0.00    +0.076 A 
ATOM     24  C   UNL     1      -1.623  -3.406   1.630  0.00  0.00    +0.060 A 
ATOM     25  C   UNL     1      -0.585  -2.493   1.582  0.00  0.00    +0.148 A 
ATOM     26  N   UNL     1      -0.861  -1.203   1.477  0.00  0.00    -0.218 NA
BRANCH  23  27
ATOM     27  C   UNL     1      -4.082  -3.864   1.615  0.00  0.00    +0.000 A 
ATOM     28  C   UNL     1      -3.861  -5.236   1.720  0.00  0.00    +0.010 A 
ATOM     29  C   UNL     1      -4.933  -6.104   1.770  0.00  0.00    +0.001 A 
ATOM     30  C   UNL     1      -6.225  -5.615   1.706  0.00  0.00    +0.000 A 
ATOM     31  C   UNL     1      -6.451  -4.255   1.597  0.00  0.00    +0.001 A 
ATOM     32  C   UNL     1      -5.387  -3.377   1.551  0.00  0.00    +0.010 A 
ENDBRANCH  23  27
BRANCH  25  33
ATOM     33  C   UNL     1       0.846  -2.963   1.647  0.00  0.00    +0.434 C 
ATOM     34  F   UNL     1       1.699  -1.855   1.695  0.00  0.00    -0.164 F 
ATOM     35  F   UNL     1       1.029  -3.742   2.795  0.00  0.00    -0.164 F 
ATOM     36  F   UNL     1       1.137  -3.728   0.513  0.00  0.00    -0.164 F 
ENDBRANCH  25  33
ENDBRANCH  20  21
ENDBRANCH   1  20
TORSDOF 8
