REMARK  Name = ZINC39237547
REMARK  7 active torsions:
REMARK  status: ('A' for Active; 'I' for Inactive)
REMARK    1  A    between atoms: C_1  and  C_2
REMARK    2  A    between atoms: C_5  and  S_8
REMARK    3  A    between atoms: S_8  and  C_9
REMARK    4  A    between atoms: C_9  and  C_10
REMARK    5  A    between atoms: C_16  and  S_18
REMARK    6  A    between atoms: S_18  and  C_19
REMARK    7  A    between atoms: C_21  and  C_32
REMARK                            x       y       z     vdW  Elec       q    Type
REMARK                         _______ _______ _______ _____ _____    ______ ____
ROOT
ATOM      1  C   UNL     1      -3.631  -8.262   0.909  0.00  0.00    +0.171 C 
ATOM      2  C   UNL     1      -5.077  -8.720   0.898  0.00  0.00    -0.009 C 
ATOM      3  C   UNL     1      -5.824  -8.435  -0.248  0.00  0.00    +0.003 A 
ATOM      4  C   UNL     1      -7.176  -8.825  -0.342  0.00  0.00    +0.030 A 
ATOM      5  C   UNL     1      -7.881  -8.535  -1.469  0.00  0.00    +0.042 A 
ATOM      6  C   UNL     1      -7.293  -7.859  -2.537  0.00  0.00    +0.022 A 
ATOM      7  C   UNL     1      -5.992  -7.458  -2.504  0.00  0.00    +0.025 A 
ATOM      8  C   UNL     1      -5.204  -7.723  -1.371  0.00  0.00    +0.041 A 
ATOM      9  N   UNL     1      -3.927  -7.328  -1.341  0.00  0.00    -0.284 N 
ATOM     10  C   UNL     1      -3.123  -7.539  -0.317  0.00  0.00    +0.235 C 
ATOM     11  O   UNL     1      -1.971  -7.150  -0.360  0.00  0.00    -0.274 OA
ATOM     12 CL   UNL     1      -9.546  -9.016  -1.580  0.00  0.00    -0.084 Cl
ATOM     13  H   UNL     1      -3.573  -6.861  -2.113  0.00  0.00    +0.155 HD
ENDROOT
BRANCH   2  14
ATOM     14  C   UNL     1      -5.644  -9.407   2.001  0.00  0.00    -0.020 A 
ATOM     15  C   UNL     1      -6.077 -10.736   1.860  0.00  0.00    +0.008 A 
ATOM     16  C   UNL     1      -6.627 -11.394   2.937  0.00  0.00    +0.001 A 
ATOM     17  C   UNL     1      -6.755 -10.750   4.157  0.00  0.00    +0.000 A 
ATOM     18  C   UNL     1      -6.331  -9.439   4.307  0.00  0.00    +0.001 A 
ATOM     19  C   UNL     1      -5.773  -8.765   3.244  0.00  0.00    +0.008 A 
ENDBRANCH   2  14
BRANCH   1  20
ATOM     20  S   UNL     1      -2.586  -9.723   1.167  0.00  0.00    -0.070 S 
BRANCH  20  27
ATOM     21  C   UNL     1       0.397  -7.203   1.576  0.00  0.00    +0.059 A 
ATOM     22  C   UNL     1       1.482  -7.998   1.808  0.00  0.00    +0.094 A 
ATOM     23  C   UNL     1       1.307  -9.392   1.845  0.00  0.00    +0.252 A 
ATOM     24  O   UNL     1       2.255 -10.132   2.051  0.00  0.00    -0.268 OA
ATOM     25  N   UNL     1       0.070  -9.897   1.649  0.00  0.00    -0.302 N 
ATOM     26  H   UNL     1      -0.073 -10.856   1.671  0.00  0.00    +0.171 HD
ATOM     27  C   UNL     1      -0.975  -9.055   1.422  0.00  0.00    +0.170 A 
ATOM     28  N   UNL     1      -0.804  -7.747   1.394  0.00  0.00    -0.227 NA
BRANCH  21  29
ATOM     29  C   UNL     1       0.558  -5.705   1.532  0.00  0.00    +0.130 C 
BRANCH  29  30
ATOM     30  S   UNL     1       0.471  -5.138  -0.189  0.00  0.00    -0.119 S 
BRANCH  30  35
ATOM     31  C   UNL     1       1.161   0.846   0.208  0.00  0.00    +0.044 C 
ATOM     32  C   UNL     1       0.989  -0.648   0.109  0.00  0.00    -0.050 A 
ATOM     33  C   UNL     1       0.817  -1.242  -1.128  0.00  0.00    +0.004 A 
ATOM     34  C   UNL     1       0.659  -2.611  -1.223  0.00  0.00    +0.015 A 
ATOM     35  C   UNL     1       0.673  -3.391  -0.073  0.00  0.00    +0.008 A 
ATOM     36  C   UNL     1       0.846  -2.791   1.168  0.00  0.00    +0.015 A 
ATOM     37  C   UNL     1       1.009  -1.423   1.255  0.00  0.00    +0.004 A 
ENDBRANCH  30  35
ENDBRANCH  29  30
ENDBRANCH  21  29
ENDBRANCH  20  27
ENDBRANCH   1  20
TORSDOF 6
