REMARK  Name = ZINC36351170
REMARK  8 active torsions:
REMARK  status: ('A' for Active; 'I' for Inactive)
REMARK    1  A    between atoms: C_1  and  C_2
REMARK    2  A    between atoms: C_2  and  O_3
REMARK    3  A    between atoms: O_3  and  C_4
REMARK    4  A    between atoms: C_4  and  C_6
REMARK    5  A    between atoms: C_8  and  O_35
REMARK    6  A    between atoms: C_10  and  C_28
REMARK    7  A    between atoms: C_11  and  C_21
REMARK    8  A    between atoms: C_15  and  C_20
REMARK                            x       y       z     vdW  Elec       q    Type
REMARK                         _______ _______ _______ _____ _____    ______ ____
ROOT
ATOM      1  C   UNL     1       1.696  -2.907   1.722  0.00  0.00    +0.197 C 
ATOM      2  C   UNL     1       0.925  -2.207   2.886  0.00  0.00    +0.176 C 
ATOM      3  C   UNL     1       1.180  -3.182   4.037  0.00  0.00    +0.132 C 
ATOM      4  C   UNL     1       0.950  -4.512   3.222  0.00  0.00    +0.148 C 
ATOM      5  N   UNL     1       1.767  -4.361   2.077  0.00  0.00    -0.275 NA
ATOM      6  N   UNL     1       0.817  -5.437   4.287  0.00  0.00    -0.268 N 
ATOM      7  C   UNL     1       1.191  -6.717   4.556  0.00  0.00    +0.082 C 
ATOM      8  C   UNL     1       0.670  -7.388   5.603  0.00  0.00    -0.036 C 
ATOM      9  C   UNL     1      -0.263  -6.765   6.451  0.00  0.00    +0.008 C 
ATOM     10  C   UNL     1      -0.551  -5.449   6.277  0.00  0.00    +0.042 C 
ATOM     11  C   UNL     1       0.083  -4.726   5.241  0.00  0.00    +0.101 C 
ATOM     12  N   UNL     1       0.174  -3.404   5.060  0.00  0.00    -0.358 N 
ATOM     13  C   UNL     1       1.089  -8.811   5.867  0.00  0.00    +0.045 C 
ATOM     14  H   UNL     1       1.434  -4.935   1.317  0.00  0.00    +0.125 HD
ATOM     15  H   UNL     1      -0.337  -2.722   5.525  0.00  0.00    +0.162 HD
ENDROOT
BRANCH   4  16
ATOM     16  C   UNL     1      -0.458  -4.280   2.739  0.00  0.00    -0.006 A 
ATOM     17  C   UNL     1      -1.457  -3.970   3.643  0.00  0.00    +0.008 A 
ATOM     18  C   UNL     1      -2.749  -3.757   3.200  0.00  0.00    +0.020 A 
ATOM     19  C   UNL     1      -3.042  -3.854   1.852  0.00  0.00    +0.041 A 
ATOM     20  C   UNL     1      -2.042  -4.163   0.947  0.00  0.00    +0.020 A 
ATOM     21  C   UNL     1      -0.750  -4.370   1.391  0.00  0.00    +0.008 A 
ATOM     22 CL   UNL     1      -4.665  -3.587   1.295  0.00  0.00    -0.084 Cl
ENDBRANCH   4  16
BRANCH   3  23
ATOM     23  C   UNL     1       2.565  -3.042   4.614  0.00  0.00    -0.016 A 
ATOM     24  C   UNL     1       3.612  -3.771   4.082  0.00  0.00    +0.007 A 
ATOM     25  C   UNL     1       4.883  -3.643   4.610  0.00  0.00    +0.020 A 
ATOM     26  C   UNL     1       5.107  -2.784   5.672  0.00  0.00    +0.041 A 
ATOM     27  C   UNL     1       4.059  -2.054   6.204  0.00  0.00    +0.020 A 
ATOM     28  C   UNL     1       2.790  -2.179   5.671  0.00  0.00    +0.007 A 
ATOM     29 CL   UNL     1       6.703  -2.623   6.336  0.00  0.00    -0.084 Cl
ENDBRANCH   3  23
BRANCH   1  30
ATOM     30  C   UNL     1       0.951  -2.726   0.425  0.00  0.00    +0.327 C 
ATOM     31  O   UNL     1       0.965  -3.602  -0.407  0.00  0.00    -0.249 OA
BRANCH  30  32
ATOM     32  O   UNL     1       0.271  -1.592   0.194  0.00  0.00    -0.464 OA
BRANCH  32  34
ATOM     33  C   UNL     1      -1.125  -0.137  -1.138  0.00  0.00    +0.048 C 
ATOM     34  C   UNL     1      -0.412  -1.488  -1.056  0.00  0.00    +0.229 C 
ENDBRANCH  32  34
ENDBRANCH  30  32
ENDBRANCH   1  30
BRANCH   2  35
ATOM     35  O   UNL     1      -0.470  -2.110   2.593  0.00  0.00    -0.387 OA
ATOM     36  H   UNL     1      -0.671  -1.586   1.806  0.00  0.00    +0.210 HD
ENDBRANCH   2  35
TORSDOF 6
