REMARK  Name = ZINC15882193
REMARK  8 active torsions:
REMARK  status: ('A' for Active; 'I' for Inactive)
REMARK    1  A    between atoms: C_1  and  C_2
REMARK    2  A    between atoms: C_4  and  C_32
REMARK    3  A    between atoms: C_5  and  S_9
REMARK    4  A    between atoms: C_6  and  C_8
REMARK    5  A    between atoms: S_9  and  N_12
REMARK    6  A    between atoms: N_12  and  C_13
REMARK    7  A    between atoms: C_16  and  C_19
REMARK    8  A    between atoms: C_28  and  C_31
REMARK                            x       y       z     vdW  Elec       q    Type
REMARK                         _______ _______ _______ _____ _____    ______ ____
ROOT
ATOM      1  C   UNL     1      -0.782   3.496   2.875  0.00  0.00    +0.048 A 
ATOM      2  C   UNL     1       0.535   3.425   2.438  0.00  0.00    +0.025 A 
ATOM      3  C   UNL     1       1.474   4.306   2.932  0.00  0.00    +0.012 A 
ATOM      4  C   UNL     1       1.104   5.260   3.879  0.00  0.00    +0.002 A 
ATOM      5  C   UNL     1      -0.217   5.325   4.320  0.00  0.00    +0.012 A 
ATOM      6  C   UNL     1      -1.154   4.447   3.819  0.00  0.00    +0.025 A 
ENDROOT
BRANCH   4   7
ATOM      7  C   UNL     1       2.114   6.203   4.416  0.00  0.00    +0.093 A 
ATOM      8  C   UNL     1       3.440   6.138   3.974  0.00  0.00    +0.033 A 
ATOM      9  C   UNL     1       4.345   7.040   4.505  0.00  0.00    +0.047 A 
ATOM     10  C   UNL     1       3.880   7.958   5.448  0.00  0.00    +0.144 A 
ATOM     11  N   UNL     1       2.605   7.947   5.808  0.00  0.00    -0.134 NA
ATOM     12  N   UNL     1       1.762   7.114   5.313  0.00  0.00    -0.147 NA
ATOM     13  N   UNL     1       4.753   8.883   6.008  0.00  0.00    -0.314 N 
ATOM     14  C   UNL     1       5.902   8.213   6.630  0.00  0.00    +0.107 C 
ATOM     15  C   UNL     1       6.910   9.262   7.106  0.00  0.00    +0.022 C 
ATOM     16  C   UNL     1       6.231  10.194   8.114  0.00  0.00    -0.011 C 
ATOM     17  C   UNL     1       5.010  10.842   7.456  0.00  0.00    +0.022 C 
ATOM     18  C   UNL     1       4.057   9.748   6.970  0.00  0.00    +0.107 C 
ATOM     19  C   UNL     1       7.216  11.282   8.547  0.00  0.00    +0.007 C 
ENDBRANCH   4   7
BRANCH   1  20
ATOM     20  N   UNL     1      -1.732   2.607   2.371  0.00  0.00    -0.216 N 
ATOM     21  H   UNL     1      -2.352   2.166   2.973  0.00  0.00    +0.174 HD
BRANCH  20  22
ATOM     22  S   UNL     1      -1.803   2.307   0.744  0.00  0.00    +0.073 S 
ATOM     23  O   UNL     1      -1.702   3.567   0.093  0.00  0.00    -0.150 OA
ATOM     24  O   UNL     1      -2.903   1.431   0.540  0.00  0.00    -0.150 OA
BRANCH  22  29
ATOM     25  C   UNL     1       3.171  -0.786  -0.702  0.00  0.00    +0.044 C 
ATOM     26  C   UNL     1       1.929  -0.013  -0.342  0.00  0.00    -0.050 A 
ATOM     27  C   UNL     1       1.780   1.294  -0.766  0.00  0.00    +0.008 A 
ATOM     28  C   UNL     1       0.639   2.002  -0.437  0.00  0.00    -0.023 A 
ATOM     29  C   UNL     1      -0.353   1.403   0.317  0.00  0.00    +0.114 A 
ATOM     30  C   UNL     1      -0.204   0.095   0.741  0.00  0.00    -0.023 A 
ATOM     31  C   UNL     1       0.937  -0.612   0.413  0.00  0.00    +0.008 A 
ATOM     32  C   UNL     1      -1.285  -0.558   1.563  0.00  0.00    +0.046 C 
ATOM     33  C   UNL     1       0.476   3.427  -0.900  0.00  0.00    +0.046 C 
ENDBRANCH  22  29
ENDBRANCH  20  22
ENDBRANCH   1  20
TORSDOF 4
