REMARK  Name = ZINC01771803
REMARK  8 active torsions:
REMARK  status: ('A' for Active; 'I' for Inactive)
REMARK    1  A    between atoms: C_1  and  C_2
REMARK    2  A    between atoms: C_3  and  C_14
REMARK    3  A    between atoms: N_5  and  C_7
REMARK    4  A    between atoms: N_15  and  N_16
REMARK    5  A    between atoms: C_17  and  C_19
REMARK    6  A    between atoms: C_19  and  C_21
REMARK    7  A    between atoms: C_19  and  N_33
REMARK    8  A    between atoms: C_34  and  C_36
REMARK                            x       y       z     vdW  Elec       q    Type
REMARK                         _______ _______ _______ _____ _____    ______ ____
ROOT
ATOM      1  C   UNL     1       6.132  -0.704  -0.063  0.00  0.00    +0.212 C 
ENDROOT
BRANCH   1   2
ATOM      2  C   UNL     1       6.497  -1.048  -1.484  0.00  0.00    +0.099 A 
ATOM      3  C   UNL     1       7.386  -2.177  -1.758  0.00  0.00    +0.013 A 
ATOM      4  C   UNL     1       7.909  -2.968  -0.734  0.00  0.00    +0.010 A 
ATOM      5  C   UNL     1       8.731  -4.016  -1.041  0.00  0.00    +0.001 A 
ATOM      6  C   UNL     1       9.050  -4.310  -2.361  0.00  0.00    +0.001 A 
ATOM      7  C   UNL     1       8.544  -3.549  -3.392  0.00  0.00    +0.014 A 
ATOM      8  C   UNL     1       7.704  -2.475  -3.103  0.00  0.00    +0.050 A 
ATOM      9  C   UNL     1       7.132  -1.628  -4.156  0.00  0.00    +0.272 A 
ATOM     10  O   UNL     1       7.382  -1.843  -5.329  0.00  0.00    -0.266 OA
ATOM     11  N   UNL     1       6.326  -0.606  -3.801  0.00  0.00    -0.242 N 
ATOM     12  H   UNL     1       5.946  -0.042  -4.493  0.00  0.00    +0.192 HD
ATOM     13  N   UNL     1       6.026  -0.338  -2.465  0.00  0.00    -0.173 NA
ENDBRANCH   1   2
BRANCH   1  15
ATOM     14  N   UNL     1       8.470  -0.276   0.621  0.00  0.00    -0.205 N 
ATOM     15  C   UNL     1       7.203   0.174   0.533  0.00  0.00    +0.259 C 
ATOM     16  O   UNL     1       6.924   1.285   0.932  0.00  0.00    -0.272 OA
ATOM     17  H   UNL     1       8.693  -1.164   0.302  0.00  0.00    +0.177 HD
BRANCH  14  19
ATOM     18  C   UNL     1      10.686   0.108   1.260  0.00  0.00    +0.143 C 
ATOM     19  N   UNL     1       9.466   0.540   1.175  0.00  0.00    -0.188 NA
BRANCH  18  22
ATOM     20  C   UNL     1      13.739  -0.673   1.613  0.00  0.00    +0.068 C 
ATOM     21  C   UNL     1      13.096   0.632   2.006  0.00  0.00    +0.070 A 
ATOM     22  C   UNL     1      11.734   0.967   1.843  0.00  0.00    +0.054 A 
ATOM     23  C   UNL     1      11.565   2.245   2.335  0.00  0.00    +0.142 A 
ATOM     24  N   UNL     1      12.769   2.670   2.773  0.00  0.00    -0.221 N 
ATOM     25  N   UNL     1      13.703   1.651   2.554  0.00  0.00    -0.170 NA
ATOM     26 CL   UNL     1      10.078   3.140   2.384  0.00  0.00    -0.061 Cl
BRANCH  24  27
ATOM     27  C   UNL     1      13.039   3.919   3.349  0.00  0.00    +0.067 A 
ATOM     28  C   UNL     1      12.366   5.049   2.906  0.00  0.00    +0.028 A 
ATOM     29  C   UNL     1      12.630   6.278   3.480  0.00  0.00    +0.002 A 
ATOM     30  C   UNL     1      13.572   6.384   4.487  0.00  0.00    +0.000 A 
ATOM     31  C   UNL     1      14.247   5.261   4.927  0.00  0.00    +0.002 A 
ATOM     32  C   UNL     1      13.984   4.029   4.361  0.00  0.00    +0.028 A 
ENDBRANCH  24  27
ENDBRANCH  18  22
ENDBRANCH  14  19
ENDBRANCH   1  15
BRANCH   1  33
ATOM     33  N   UNL     1       4.852   0.008  -0.046  0.00  0.00    -0.295 N 
ATOM     34  C   UNL     1       3.696  -0.685  -0.038  0.00  0.00    +0.245 C 
ATOM     35  O   UNL     1       3.715  -1.900  -0.046  0.00  0.00    -0.270 OA
ATOM     36  H   UNL     1       4.836   0.978  -0.040  0.00  0.00    +0.150 HD
BRANCH  34  37
ATOM     37  C   UNL     1       2.403   0.034  -0.021  0.00  0.00    +0.037 A 
ATOM     38  C   UNL     1       1.204  -0.681  -0.013  0.00  0.00    +0.013 A 
ATOM     39  C   UNL     1       0.002  -0.004   0.002  0.00  0.00    +0.001 A 
ATOM     40  C   UNL     1      -0.017   1.379   0.010  0.00  0.00    +0.000 A 
ATOM     41  C   UNL     1       1.168   2.094   0.002  0.00  0.00    +0.001 A 
ATOM     42  C   UNL     1       2.377   1.429  -0.013  0.00  0.00    +0.013 A 
ENDBRANCH  34  37
ENDBRANCH   1  33
TORSDOF 7
