REMARK  Name = ZINC01830350
REMARK  11 active torsions:
REMARK  status: ('A' for Active; 'I' for Inactive)
REMARK    1  A    between atoms: C_3  and  C_6
REMARK    2  A    between atoms: C_6  and  N_7
REMARK    3  A    between atoms: N_7  and  S_8
REMARK    4  A    between atoms: S_8  and  C_11
REMARK    5  A    between atoms: N_18  and  N_19
REMARK    6  A    between atoms: N_19  and  C_20
REMARK    7  A    between atoms: C_20  and  N_22
REMARK    8  A    between atoms: C_27  and  S_29
REMARK    9  A    between atoms: S_29  and  N_32
REMARK   10  A    between atoms: N_32  and  C_33
REMARK   11  A    between atoms: C_33  and  C_34
REMARK                            x       y       z     vdW  Elec       q    Type
REMARK                         _______ _______ _______ _____ _____    ______ ____
ROOT
ATOM      1  C   UNL     1      -1.125   1.783   0.790  0.00  0.00    +0.106 A 
ATOM      2  C   UNL     1      -1.163   3.164   0.683  0.00  0.00    +0.029 A 
ATOM      3  C   UNL     1      -0.026   3.873   0.356  0.00  0.00    +0.011 A 
ATOM      4  C   UNL     1       1.175   3.201   0.136  0.00  0.00    -0.008 A 
ATOM      5  C   UNL     1       1.214   1.801   0.251  0.00  0.00    +0.012 A 
ATOM      6  C   UNL     1       0.056   1.100   0.581  0.00  0.00    +0.039 A 
ATOM      7  C   UNL     1       2.597   1.361  -0.032  0.00  0.00    +0.097 C 
ATOM      8  N   UNL     1       3.039   0.130  -0.026  0.00  0.00    -0.180 NA
ATOM      9  C   UNL     1       3.387   2.577  -0.323  0.00  0.00    +0.012 A 
ATOM     10  C   UNL     1       2.527   3.684  -0.220  0.00  0.00    -0.008 A 
ATOM     11  C   UNL     1       3.028   4.965  -0.449  0.00  0.00    +0.011 A 
ATOM     12  C   UNL     1       4.358   5.137  -0.773  0.00  0.00    +0.029 A 
ATOM     13  C   UNL     1       5.205   4.045  -0.875  0.00  0.00    +0.106 A 
ATOM     14  C   UNL     1       4.727   2.770  -0.651  0.00  0.00    +0.039 A 
ENDROOT
BRANCH   1  15
ATOM     15  S   UNL     1      -2.590   0.895   1.201  0.00  0.00    +0.059 S 
ATOM     16  O   UNL     1      -3.684   1.713   0.811  0.00  0.00    -0.153 OA
ATOM     17  O   UNL     1      -2.414  -0.427   0.710  0.00  0.00    -0.153 OA
BRANCH  15  18
ATOM     18  N   UNL     1      -2.648   0.783   2.852  0.00  0.00    -0.183 NA
ATOM     19  H   UNL     1      -2.582  -0.084   3.282  0.00  0.00    +0.148 HD
BRANCH  18  20
ATOM     20  C   UNL     1      -2.798   1.994   3.663  0.00  0.00    +0.180 C 
BRANCH  20  23
ATOM     21  C   UNL     1      -3.131   1.042   7.208  0.00  0.00    +0.041 A 
ATOM     22  C   UNL     1      -2.340   1.357   6.079  0.00  0.00    +0.046 A 
ATOM     23  C   UNL     1      -3.190   1.612   5.068  0.00  0.00    +0.120 A 
ATOM     24  O   UNL     1      -4.445   1.474   5.523  0.00  0.00    -0.466 OA
ATOM     25  C   UNL     1      -4.416   1.123   6.819  0.00  0.00    +0.195 A 
ENDBRANCH  20  23
ENDBRANCH  18  20
ENDBRANCH  15  18
ENDBRANCH   1  15
BRANCH  13  26
ATOM     26  S   UNL     1       6.900   4.286  -1.290  0.00  0.00    +0.059 S 
ATOM     27  O   UNL     1       7.224   5.618  -0.915  0.00  0.00    -0.153 OA
ATOM     28  O   UNL     1       7.605   3.160  -0.787  0.00  0.00    -0.153 OA
BRANCH  26  29
ATOM     29  N   UNL     1       7.014   4.218  -2.940  0.00  0.00    -0.183 NA
ATOM     30  H   UNL     1       7.514   3.502  -3.363  0.00  0.00    +0.148 HD
BRANCH  29  31
ATOM     31  C   UNL     1       6.360   5.239  -3.763  0.00  0.00    +0.180 C 
BRANCH  31  32
ATOM     32  C   UNL     1       6.904   5.177  -5.167  0.00  0.00    +0.120 A 
ATOM     33  C   UNL     1       6.409   4.429  -6.170  0.00  0.00    +0.046 A 
ATOM     34  C   UNL     1       7.219   4.675  -7.302  0.00  0.00    +0.041 A 
ATOM     35  C   UNL     1       8.160   5.559  -6.924  0.00  0.00    +0.195 A 
ATOM     36  O   UNL     1       7.961   5.863  -5.631  0.00  0.00    -0.466 OA
ENDBRANCH  31  32
ENDBRANCH  29  31
ENDBRANCH  26  29
ENDBRANCH  13  26
BRANCH   8  37
ATOM     37  N   UNL     1       4.412  -0.123  -0.146  0.00  0.00    -0.218 N 
ATOM     38  H   UNL     1       5.042   0.615  -0.149  0.00  0.00    +0.176 HD
BRANCH  37  39
ATOM     39  C   UNL     1       4.857  -1.390  -0.259  0.00  0.00    +0.147 C 
ATOM     40  S   UNL     1       6.534  -1.698  -0.406  0.00  0.00    -0.017 S 
BRANCH  39  41
ATOM     41  N   UNL     1       3.981  -2.414  -0.255  0.00  0.00    -0.339 N 
ATOM     42  H   UNL     1       3.031  -2.240  -0.172  0.00  0.00    +0.144 HD
ATOM     43  H   UNL     1       4.301  -3.326  -0.336  0.00  0.00    +0.144 HD
ENDBRANCH  39  41
ENDBRANCH  37  39
ENDBRANCH   8  37
TORSDOF 11
