REMARK  Name = ZINC16011519
REMARK  4 active torsions:
REMARK  status: ('A' for Active; 'I' for Inactive)
REMARK    1  A    between atoms: C_1  and  C_2
REMARK    2  A    between atoms: C_12  and  C_30
REMARK    3  A    between atoms: C_30  and  C_32
REMARK    4  A    between atoms: C_36  and  N_38
REMARK                            x       y       z     vdW  Elec       q    Type
REMARK                         _______ _______ _______ _____ _____    ______ ____
ROOT
ATOM      1  C   UNL     1      -0.031   1.506   0.011  0.00  0.00    +0.045 C 
ATOM      2  C   UNL     1      -0.008  -0.001   0.002  0.00  0.00    -0.029 A 
ATOM      3  C   UNL     1      -0.004  -0.681  -1.198  0.00  0.00    +0.005 A 
ATOM      4  C   UNL     1       0.017  -2.064  -1.217  0.00  0.00    +0.001 A 
ATOM      5  C   UNL     1       0.036  -2.768  -0.026  0.00  0.00    +0.008 A 
ATOM      6  C   UNL     1       0.033  -2.094   1.174  0.00  0.00    +0.004 A 
ATOM      7  C   UNL     1       0.016  -0.702   1.205  0.00  0.00    +0.042 A 
ATOM      8  N   UNL     1       0.021  -0.249   2.526  0.00  0.00    -0.283 N 
ATOM      9  C   UNL     1       0.047  -1.264   3.411  0.00  0.00    +0.243 C 
ATOM     10  O   UNL     1       0.056  -1.170   4.620  0.00  0.00    -0.273 OA
ATOM     11  C   UNL     1       0.050  -2.537   2.610  0.00  0.00    +0.137 C 
ATOM     12  C   UNL     1      -1.175  -3.414   2.933  0.00  0.00    +0.115 C 
ATOM     13  C   UNL     1      -0.661  -4.227   4.137  0.00  0.00    +0.102 C 
ATOM     14  C   UNL     1      -1.388  -5.533   4.269  0.00  0.00    -0.009 A 
ATOM     15  C   UNL     1      -1.554  -6.617   3.437  0.00  0.00    +0.006 A 
ATOM     16  C   UNL     1      -2.301  -7.704   3.855  0.00  0.00    +0.000 A 
ATOM     17  C   UNL     1      -2.881  -7.698   5.111  0.00  0.00    +0.002 A 
ATOM     18  C   UNL     1      -2.717  -6.614   5.949  0.00  0.00    +0.023 A 
ATOM     19  C   UNL     1      -1.968  -5.516   5.535  0.00  0.00    +0.038 A 
ATOM     20  N   UNL     1      -1.665  -4.319   6.189  0.00  0.00    -0.284 N 
ATOM     21  C   UNL     1      -0.901  -3.506   5.432  0.00  0.00    +0.230 C 
ATOM     22  O   UNL     1      -0.488  -2.407   5.737  0.00  0.00    -0.274 OA
ATOM     23  C   UNL     1       0.830  -4.423   3.855  0.00  0.00    +0.078 C 
ATOM     24  N   UNL     1       1.236  -3.352   2.912  0.00  0.00    -0.280 NA
ATOM     25  C   UNL     1       2.265  -2.519   3.572  0.00  0.00    +0.086 C 
ATOM     26  C   UNL     1       2.882  -3.428   4.662  0.00  0.00    +0.017 C 
ATOM     27  C   UNL     1       1.638  -4.237   5.153  0.00  0.00    +0.021 C 
ATOM     28  H   UNL     1       0.009   0.688   2.777  0.00  0.00    +0.155 HD
ATOM     29  H   UNL     1      -1.969  -4.098   7.083  0.00  0.00    +0.155 HD
ENDROOT
BRANCH  12  30
ATOM     30  C   UNL     1      -1.515  -4.316   1.775  0.00  0.00    +0.170 C 
ATOM     31  O   UNL     1      -0.672  -5.059   1.318  0.00  0.00    -0.292 OA
BRANCH  30  32
ATOM     32  C   UNL     1      -2.869  -4.296   1.199  0.00  0.00    +0.020 A 
ATOM     33  C   UNL     1      -3.841  -3.437   1.719  0.00  0.00    +0.011 A 
ATOM     34  C   UNL     1      -5.108  -3.424   1.174  0.00  0.00    +0.003 A 
ATOM     35  C   UNL     1      -5.417  -4.259   0.114  0.00  0.00    +0.033 A 
ATOM     36  C   UNL     1      -4.460  -5.112  -0.407  0.00  0.00    +0.127 A 
ATOM     37  C   UNL     1      -3.187  -5.133   0.124  0.00  0.00    +0.044 A 
BRANCH  36  38
ATOM     38  N   UNL     1      -4.802  -6.001  -1.540  0.00  0.00    +0.056 N 
ATOM     39  O   UNL     1      -5.915  -5.981  -2.009  0.00  0.00    -0.126 OA
ATOM     40  O   UNL     1      -3.967  -6.747  -1.996  0.00  0.00    -0.126 OA
ENDBRANCH  36  38
ENDBRANCH  30  32
ENDBRANCH  12  30
TORSDOF 3
