REMARK  Name = ZINC35866982
REMARK  8 active torsions:
REMARK  status: ('A' for Active; 'I' for Inactive)
REMARK    1  A    between atoms: C_1  and  C_2
REMARK    2  A    between atoms: C_2  and  C_3
REMARK    3  A    between atoms: C_3  and  C_5
REMARK    4  A    between atoms: C_3  and  C_6
REMARK    5  A    between atoms: N_27  and  C_28
REMARK    6  A    between atoms: C_33  and  O_34
REMARK    7  A    between atoms: O_34  and  C_35
REMARK    8  A    between atoms: C_35  and  C_36
REMARK                            x       y       z     vdW  Elec       q    Type
REMARK                         _______ _______ _______ _____ _____    ______ ____
ROOT
ATOM      1  C   UNL     1       0.437  -2.857  -2.551  0.00  0.00    +0.135 A 
ATOM      2  N   UNL     1       1.638  -3.408  -2.569  0.00  0.00    -0.216 NA
ATOM      3  C   UNL     1       2.107  -4.111  -1.551  0.00  0.00    +0.133 A 
ATOM      4  C   UNL     1       1.294  -4.283  -0.396  0.00  0.00    +0.051 A 
ATOM      5  C   UNL     1       1.596  -5.012   0.837  0.00  0.00    -0.025 A 
ATOM      6  C   UNL     1       0.643  -5.021   1.791  0.00  0.00    -0.004 A 
ATOM      7  S   UNL     1      -0.696  -4.074   1.117  0.00  0.00    -0.073 S 
ATOM      8  C   UNL     1       0.028  -3.666  -0.450  0.00  0.00    +0.114 A 
ATOM      9  N   UNL     1      -0.359  -2.977  -1.506  0.00  0.00    -0.224 NA
ATOM     10  C   UNL     1       0.706  -5.691   3.130  0.00  0.00    +0.043 C 
ATOM     11  C   UNL     1       1.875  -6.686   3.120  0.00  0.00    +0.005 C 
ATOM     12  C   UNL     1       3.111  -5.985   2.550  0.00  0.00    +0.005 C 
ATOM     13  C   UNL     1       2.922  -5.736   1.053  0.00  0.00    +0.037 C 
ATOM     14  N   UNL     1       3.370  -4.671  -1.609  0.00  0.00    -0.312 N 
ATOM     15  C   UNL     1       3.548  -6.076  -2.004  0.00  0.00    +0.125 C 
ATOM     16  C   UNL     1       4.522  -6.133  -3.187  0.00  0.00    +0.128 C 
ATOM     17  N   UNL     1       5.711  -5.335  -2.855  0.00  0.00    -0.282 N 
ATOM     18  C   UNL     1       5.533  -3.930  -2.460  0.00  0.00    +0.128 C 
ATOM     19  C   UNL     1       4.559  -3.872  -1.282  0.00  0.00    +0.125 C 
ATOM     20  C   UNL     1       6.942  -5.881  -2.911  0.00  0.00    +0.307 C 
ATOM     21  O   UNL     1       7.085  -7.014  -3.329  0.00  0.00    -0.252 OA
ATOM     22  N   UNL     1       8.013  -5.171  -2.506  0.00  0.00    -0.266 N 
ATOM     23  H   UNL     1       7.894  -4.287  -2.125  0.00  0.00    +0.156 HD
ENDROOT
BRANCH  22  24
ATOM     24  C   UNL     1       9.300  -5.711  -2.633  0.00  0.00    +0.077 A 
ATOM     25  C   UNL     1       9.484  -7.085  -2.600  0.00  0.00    +0.027 A 
ATOM     26  C   UNL     1      10.755  -7.615  -2.726  0.00  0.00    +0.002 A 
ATOM     27  C   UNL     1      11.844  -6.779  -2.885  0.00  0.00    +0.004 A 
ATOM     28  C   UNL     1      11.668  -5.408  -2.918  0.00  0.00    +0.047 A 
ATOM     29  C   UNL     1      10.398  -4.869  -2.798  0.00  0.00    +0.142 A 
BRANCH  29  30
ATOM     30  O   UNL     1      10.222  -3.521  -2.837  0.00  0.00    -0.490 OA
BRANCH  30  31
ATOM     31  C   UNL     1      11.393  -2.719  -3.009  0.00  0.00    +0.226 C 
ATOM     32  C   UNL     1      11.000  -1.241  -3.027  0.00  0.00    +0.048 C 
ENDBRANCH  30  31
ENDBRANCH  29  30
ENDBRANCH  22  24
BRANCH   1  33
ATOM     33  C   UNL     1      -0.031  -2.070  -3.748  0.00  0.00    +0.054 C 
ATOM     34  C   UNL     1      -1.303  -2.707  -4.311  0.00  0.00    +0.015 C 
BRANCH  33  36
ATOM     35  C   UNL     1      -0.680   0.201  -4.562  0.00  0.00    +0.004 C 
ATOM     36  C   UNL     1      -0.325  -0.629  -3.327  0.00  0.00    +0.007 C 
ENDBRANCH  33  36
ENDBRANCH   1  33
TORSDOF 5
