REMARK  Name = ZINC40010991
REMARK  13 active torsions:
REMARK  status: ('A' for Active; 'I' for Inactive)
REMARK    1  A    between atoms: C_1  and  O_2
REMARK    2  A    between atoms: O_2  and  C_3
REMARK    3  A    between atoms: C_3  and  C_4
REMARK    4  A    between atoms: C_4  and  N_5
REMARK    5  A    between atoms: N_5  and  C_6
REMARK    6  A    between atoms: C_6  and  N_8
REMARK    7  A    between atoms: C_13  and  O_35
REMARK    8  A    between atoms: C_14  and  O_33
REMARK    9  A    between atoms: C_17  and  C_19
REMARK   10  A    between atoms: C_24  and  O_31
REMARK   11  A    between atoms: O_31  and  C_32
REMARK   12  A    between atoms: O_33  and  C_34
REMARK   13  A    between atoms: O_35  and  C_36
REMARK                            x       y       z     vdW  Elec       q    Type
REMARK                         _______ _______ _______ _____ _____    ______ ____
ROOT
ATOM      1  N   UNL     1      -2.316  -4.286  -0.935  0.00  0.00    -0.304 N 
ATOM      2  C   UNL     1      -3.417  -3.319  -1.077  0.00  0.00    +0.112 C 
ATOM      3  C   UNL     1      -4.112  -3.591  -2.410  0.00  0.00    +0.054 C 
ATOM      4  C   UNL     1      -4.393  -5.061  -2.579  0.00  0.00    -0.037 A 
ATOM      5  C   UNL     1      -5.372  -5.427  -3.495  0.00  0.00    +0.053 A 
ATOM      6  C   UNL     1      -5.675  -6.758  -3.708  0.00  0.00    +0.162 A 
ATOM      7  C   UNL     1      -4.992  -7.742  -2.998  0.00  0.00    +0.162 A 
ATOM      8  C   UNL     1      -4.021  -7.375  -2.085  0.00  0.00    +0.055 A 
ATOM      9  C   UNL     1      -3.725  -6.035  -1.871  0.00  0.00    -0.019 A 
ATOM     10  C   UNL     1      -2.674  -5.706  -0.845  0.00  0.00    +0.121 C 
ENDROOT
BRANCH  10  11
ATOM     11  C   UNL     1      -1.431  -6.561  -1.099  0.00  0.00    +0.123 C 
ATOM     12  C   UNL     1      -0.791  -6.082  -2.387  0.00  0.00    -0.002 C 
ATOM     13  C   UNL     1      -0.637  -6.996  -3.386  0.00  0.00    -0.003 A 
ATOM     14  C   UNL     1      -0.029  -6.617  -4.662  0.00  0.00    +0.055 A 
ATOM     15  C   UNL     1       0.105  -7.564  -5.632  0.00  0.00    +0.121 A 
ATOM     16  C   UNL     1      -0.325  -8.880  -5.428  0.00  0.00    +0.047 A 
ATOM     17  C   UNL     1      -0.896  -9.291  -4.266  0.00  0.00    +0.027 A 
ATOM     18  C   UNL     1      -1.080  -8.389  -3.201  0.00  0.00    +0.041 A 
ATOM     19  N   UNL     1      -1.641  -8.806  -2.066  0.00  0.00    -0.284 N 
ATOM     20  C   UNL     1      -1.845  -8.014  -1.028  0.00  0.00    +0.226 C 
ATOM     21  O   UNL     1      -2.363  -8.452  -0.018  0.00  0.00    -0.275 OA
ATOM     22  H   UNL     1      -1.914  -9.735  -1.999  0.00  0.00    +0.155 HD
BRANCH  15  23
ATOM     23  O   UNL     1       0.668  -7.224  -6.822  0.00  0.00    -0.495 OA
ATOM     24  C   UNL     1       0.784  -8.256  -7.803  0.00  0.00    +0.277 C 
ENDBRANCH  15  23
ENDBRANCH  10  11
BRANCH   1  25
ATOM     25  C   UNL     1      -1.030  -3.884  -0.896  0.00  0.00    +0.133 C 
ATOM     26  S   UNL     1       0.216  -5.025  -0.618  0.00  0.00    -0.019 S 
BRANCH  25  27
ATOM     27  N   UNL     1      -0.725  -2.583  -1.076  0.00  0.00    -0.324 N 
ATOM     28  H   UNL     1      -1.422  -1.949  -1.306  0.00  0.00    +0.148 HD
BRANCH  27  29
ATOM     29  C   UNL     1       0.659  -2.127  -0.922  0.00  0.00    +0.131 C 
BRANCH  29  30
ATOM     30  C   UNL     1       0.731  -0.621  -1.178  0.00  0.00    +0.178 C 
BRANCH  30  32
ATOM     31  C   UNL     1      -0.006   1.491  -0.316  0.00  0.00    +0.194 C 
ATOM     32  O   UNL     1      -0.009   0.070  -0.169  0.00  0.00    -0.381 OA
ENDBRANCH  30  32
ENDBRANCH  29  30
ENDBRANCH  27  29
ENDBRANCH  25  27
ENDBRANCH   1  25
BRANCH   7  33
ATOM     33  O   UNL     1      -5.278  -9.056  -3.202  0.00  0.00    -0.491 OA
ATOM     34  C   UNL     1      -4.535 -10.008  -2.437  0.00  0.00    +0.277 C 
ENDBRANCH   7  33
BRANCH   6  35
ATOM     35  O   UNL     1      -6.635  -7.106  -4.607  0.00  0.00    -0.491 OA
ATOM     36  C   UNL     1      -7.292  -6.042  -5.298  0.00  0.00    +0.277 C 
ENDBRANCH   6  35
TORSDOF 9
