REMARK  Name = ZINC40016643
REMARK  12 active torsions:
REMARK  status: ('A' for Active; 'I' for Inactive)
REMARK    1  A    between atoms: C_1  and  C_2
REMARK    2  A    between atoms: C_2  and  C_3
REMARK    3  A    between atoms: C_3  and  O_4
REMARK    4  A    between atoms: O_4  and  C_5
REMARK    5  A    between atoms: C_8  and  C_11
REMARK    6  A    between atoms: C_13  and  C_35
REMARK    7  A    between atoms: C_14  and  C_34
REMARK    8  A    between atoms: C_21  and  C_22
REMARK    9  A    between atoms: C_29  and  C_32
REMARK   10  A    between atoms: C_35  and  O_37
REMARK   11  A    between atoms: O_37  and  C_38
REMARK   12  A    between atoms: C_38  and  C_39
REMARK                            x       y       z     vdW  Elec       q    Type
REMARK                         _______ _______ _______ _____ _____    ______ ____
ROOT
ATOM      1  C   UNL     1      -5.903  -5.086  -0.047  0.00  0.00    +0.162 C 
ATOM      2  C   UNL     1      -6.246  -5.608  -1.423  0.00  0.00    +0.085 C 
ATOM      3  C   UNL     1      -6.681  -6.899  -1.531  0.00  0.00    +0.053 C 
ATOM      4  N   UNL     1      -6.796  -7.665  -0.453  0.00  0.00    -0.228 NA
ATOM      5  C   UNL     1      -6.518  -7.283   0.768  0.00  0.00    +0.178 A 
ATOM      6  N   UNL     1      -6.066  -6.027   1.097  0.00  0.00    -0.275 N 
ATOM      7  C   UNL     1      -5.814  -5.752   2.384  0.00  0.00    +0.268 A 
ATOM      8  O   UNL     1      -5.413  -4.654   2.724  0.00  0.00    -0.266 OA
ATOM      9  C   UNL     1      -6.036  -6.816   3.372  0.00  0.00    +0.081 A 
ATOM     10  C   UNL     1      -5.859  -6.794   4.719  0.00  0.00    +0.028 C 
ATOM     11  S   UNL     1      -6.605  -8.145   2.326  0.00  0.00    -0.046 S 
ATOM     12  C   UNL     1      -7.033  -7.458  -2.885  0.00  0.00    +0.066 C 
ENDROOT
BRANCH  10  13
ATOM     13  C   UNL     1      -6.008  -8.029   5.499  0.00  0.00    -0.023 A 
ATOM     14  C   UNL     1      -6.253  -7.969   6.877  0.00  0.00    +0.011 A 
ATOM     15  C   UNL     1      -6.396  -9.127   7.604  0.00  0.00    +0.046 A 
ATOM     16  C   UNL     1      -6.297 -10.371   6.979  0.00  0.00    +0.124 A 
ATOM     17  C   UNL     1      -6.045 -10.426   5.611  0.00  0.00    -0.002 A 
ATOM     18  C   UNL     1      -5.911  -9.278   4.871  0.00  0.00    +0.015 A 
ATOM     19  C   UNL     1      -5.968 -11.893   5.233  0.00  0.00    +0.083 C 
ATOM     20  C   UNL     1      -5.813 -12.572   6.614  0.00  0.00    +0.175 C 
ATOM     21  O   UNL     1      -6.416 -11.620   7.507  0.00  0.00    -0.488 OA
ATOM     22  C   UNL     1      -4.336 -12.778   6.954  0.00  0.00    +0.052 C 
ENDBRANCH  10  13
BRANCH   1  26
ATOM     23  C   UNL     1      -1.832  -3.788  -0.111  0.00  0.00    +0.121 A 
ATOM     24  C   UNL     1      -2.856  -2.872  -0.300  0.00  0.00    +0.046 A 
ATOM     25  C   UNL     1      -4.171  -3.294  -0.279  0.00  0.00    +0.009 A 
ATOM     26  C   UNL     1      -4.467  -4.628  -0.069  0.00  0.00    -0.020 A 
ATOM     27  C   UNL     1      -3.448  -5.543   0.120  0.00  0.00    +0.009 A 
ATOM     28  C   UNL     1      -2.131  -5.127   0.094  0.00  0.00    +0.046 A 
BRANCH  23  29
ATOM     29  O   UNL     1      -0.537  -3.375  -0.131  0.00  0.00    -0.492 OA
BRANCH  29  30
ATOM     30  C   UNL     1      -0.304  -1.982  -0.347  0.00  0.00    +0.229 C 
BRANCH  30  32
ATOM     31  C   UNL     1       1.451  -0.217  -0.569  0.00  0.00    +0.007 C 
ATOM     32  C   UNL     1       1.202  -1.709  -0.338  0.00  0.00    +0.038 C 
ENDBRANCH  30  32
ENDBRANCH  29  30
ENDBRANCH  23  29
ENDBRANCH   1  26
BRANCH   2  33
ATOM     33  C   UNL     1      -6.122  -4.790  -2.558  0.00  0.00    +0.339 C 
ATOM     34  O   UNL     1      -6.272  -5.264  -3.670  0.00  0.00    -0.245 OA
BRANCH  33  35
ATOM     35  O   UNL     1      -5.837  -3.477  -2.416  0.00  0.00    -0.462 OA
BRANCH  35  36
ATOM     36  C   UNL     1      -5.725  -2.705  -3.613  0.00  0.00    +0.229 C 
ATOM     37  C   UNL     1      -5.401  -1.253  -3.255  0.00  0.00    +0.048 C 
ENDBRANCH  35  36
ENDBRANCH  33  35
ENDBRANCH   2  33
TORSDOF 8
