REMARK  Name = ZINC63504826
REMARK  9 active torsions:
REMARK  status: ('A' for Active; 'I' for Inactive)
REMARK    1  A    between atoms: C_1  and  C_2
REMARK    2  A    between atoms: C_4  and  C_16
REMARK    3  A    between atoms: C_9  and  C_12
REMARK    4  A    between atoms: C_16  and  C_17
REMARK    5  A    between atoms: C_17  and  N_18
REMARK    6  A    between atoms: C_22  and  C_26
REMARK    7  A    between atoms: C_22  and  C_27
REMARK    8  A    between atoms: C_23  and  C_24
REMARK    9  A    between atoms: C_23  and  O_25
REMARK                            x       y       z     vdW  Elec       q    Type
REMARK                         _______ _______ _______ _____ _____    ______ ____
ROOT
ATOM      1  C   UNL     1      -0.019   1.526   0.010  0.00  0.00    +0.035 C 
ATOM      2  C   UNL     1       0.002  -0.004   0.002  0.00  0.00    +0.103 C 
ATOM      3  C   UNL     1       0.729  -0.509  -1.224  0.00  0.00    -0.037 C 
ATOM      4  C   UNL     1       1.785  -1.220  -0.768  0.00  0.00    -0.000 A 
ATOM      5  C   UNL     1       2.858  -1.954  -1.449  0.00  0.00    +0.010 A 
ATOM      6  C   UNL     1       3.797  -2.583  -0.705  0.00  0.00    +0.001 A 
ATOM      7  C   UNL     1       3.770  -2.551   0.696  0.00  0.00    +0.014 A 
ATOM      8  C   UNL     1       2.817  -1.897   1.393  0.00  0.00    +0.078 A 
ATOM      9  C   UNL     1       1.780  -1.201   0.712  0.00  0.00    +0.055 A 
ATOM     10  N   UNL     1       0.758  -0.506   1.155  0.00  0.00    -0.377 N 
ATOM     11  H   UNL     1       0.540  -0.349   2.087  0.00  0.00    +0.160 HD
ENDROOT
BRANCH   8  12
ATOM     12  C   UNL     1       2.851  -1.906   2.899  0.00  0.00    +0.419 C 
ATOM     13  F   UNL     1       3.953  -2.648   3.337  0.00  0.00    -0.166 F 
ATOM     14  F   UNL     1       2.957  -0.593   3.370  0.00  0.00    -0.166 F 
ATOM     15  F   UNL     1       1.675  -2.483   3.389  0.00  0.00    -0.166 F 
ENDBRANCH   8  12
BRANCH   3  16
ATOM     16  C   UNL     1       0.353  -0.268  -2.664  0.00  0.00    +0.052 C 
BRANCH  16  17
ATOM     17  C   UNL     1       1.364  -0.963  -3.578  0.00  0.00    +0.118 C 
BRANCH  17  18
ATOM     18  N   UNL     1       0.998  -0.729  -4.977  0.00  0.00    -0.235 N 
ATOM     19  C   UNL     1       0.185  -1.499  -5.725  0.00  0.00    +0.406 C 
ATOM     20  O   UNL     1      -0.375  -2.491  -5.303  0.00  0.00    -0.226 OA
ATOM     21  O   UNL     1       0.060  -1.054  -6.986  0.00  0.00    -0.440 OA
ATOM     22  C   UNL     1       0.473   0.327  -7.014  0.00  0.00    +0.155 C 
ATOM     23  C   UNL     1       1.450   0.397  -5.819  0.00  0.00    +0.174 C 
ATOM     24  C   UNL     1       1.306   1.726  -5.073  0.00  0.00    +0.068 C 
ATOM     25  C   UNL     1      -0.721   1.258  -6.793  0.00  0.00    +0.060 C 
ATOM     26  C   UNL     1       1.185   0.657  -8.327  0.00  0.00    +0.060 C 
BRANCH  23  27
ATOM     27  O   UNL     1       2.796   0.200  -6.253  0.00  0.00    -0.368 OA
ATOM     28  H   UNL     1       3.439   0.147  -5.533  0.00  0.00    +0.212 HD
ENDBRANCH  23  27
ENDBRANCH  17  18
ENDBRANCH  16  17
ENDBRANCH   3  16
TORSDOF 5
