REMARK  Name = ZINC13445331
REMARK  11 active torsions:
REMARK  status: ('A' for Active; 'I' for Inactive)
REMARK    1  A    between atoms: C_4  and  C_7
REMARK    2  A    between atoms: C_7  and  N_8
REMARK    3  A    between atoms: N_8  and  C_9
REMARK    4  A    between atoms: C_9  and  C_10
REMARK    5  A    between atoms: C_10  and  C_11
REMARK    6  A    between atoms: C_14  and  C_16
REMARK    7  A    between atoms: C_16  and  S_17
REMARK    8  A    between atoms: S_17  and  C_18
REMARK    9  A    between atoms: N_28  and  C_29
REMARK   10  A    between atoms: C_29  and  C_30
REMARK   11  A    between atoms: C_30  and  C_31
REMARK                            x       y       z     vdW  Elec       q    Type
REMARK                         _______ _______ _______ _____ _____    ______ ____
ROOT
ATOM      1  C   UNL     1      -1.702  -2.468   3.360  0.00  0.00    +0.173 C 
ENDROOT
BRANCH   1   3
ATOM      2  N   UNL     1      -2.981  -4.575   3.574  0.00  0.00    -0.296 N 
ATOM      3  C   UNL     1      -2.772  -3.425   2.902  0.00  0.00    +0.226 C 
ATOM      4  O   UNL     1      -3.446  -3.161   1.929  0.00  0.00    -0.275 OA
BRANCH   2   5
ATOM      5  C   UNL     1      -4.021  -5.505   3.129  0.00  0.00    +0.142 C 
BRANCH   5   9
ATOM      6  C   UNL     1      -2.354  -8.275   0.336  0.00  0.00    +0.000 A 
ATOM      7  C   UNL     1      -2.347  -8.567   1.687  0.00  0.00    +0.000 A 
ATOM      8  C   UNL     1      -2.886  -7.670   2.591  0.00  0.00    +0.005 A 
ATOM      9  C   UNL     1      -3.433  -6.482   2.143  0.00  0.00    -0.030 A 
ATOM     10  C   UNL     1      -3.445  -6.193   0.792  0.00  0.00    +0.005 A 
ATOM     11  C   UNL     1      -2.901  -7.087  -0.111  0.00  0.00    +0.000 A 
ENDBRANCH   5   9
ENDBRANCH   2   5
BRANCH   2  12
ATOM     12  C   UNL     1      -2.167  -4.894   4.750  0.00  0.00    +0.117 C 
BRANCH  12  13
ATOM     13  C   UNL     1      -2.843  -4.337   6.004  0.00  0.00    +0.114 C 
BRANCH  13  14
ATOM     14  C   UNL     1      -2.006  -4.665   7.214  0.00  0.00    +0.212 C 
ATOM     15  O   UNL     1      -0.971  -5.284   7.085  0.00  0.00    -0.276 OA
ATOM     16  N   UNL     1      -2.408  -4.271   8.438  0.00  0.00    -0.329 N 
ATOM     17  H   UNL     1      -3.236  -3.777   8.541  0.00  0.00    +0.145 HD
ATOM     18  H   UNL     1      -1.869  -4.483   9.217  0.00  0.00    +0.145 HD
ENDBRANCH  13  14
ENDBRANCH  12  13
ENDBRANCH   2  12
ENDBRANCH   1   3
BRANCH   1  19
ATOM     19  S   UNL     1      -1.669  -1.030   2.262  0.00  0.00    -0.078 S 
BRANCH  19  20
ATOM     20  C   UNL     1      -0.367  -0.105   3.008  0.00  0.00    +0.173 A 
ATOM     21  N   UNL     1       0.226  -0.603   4.065  0.00  0.00    -0.223 NA
ATOM     22  C   UNL     1       1.225   0.053   4.689  0.00  0.00    +0.079 A 
ATOM     23  C   UNL     1       1.854  -0.475   5.820  0.00  0.00    +0.028 A 
ATOM     24  C   UNL     1       2.862   0.224   6.422  0.00  0.00    +0.002 A 
ATOM     25  C   UNL     1       3.273   1.455   5.926  0.00  0.00    +0.001 A 
ATOM     26  C   UNL     1       2.678   1.997   4.821  0.00  0.00    +0.015 A 
ATOM     27  C   UNL     1       1.647   1.305   4.187  0.00  0.00    +0.065 A 
ATOM     28  C   UNL     1       0.970   1.840   2.997  0.00  0.00    +0.262 A 
ATOM     29  O   UNL     1       1.288   2.912   2.518  0.00  0.00    -0.267 OA
ATOM     30  N   UNL     1      -0.020   1.094   2.454  0.00  0.00    -0.287 N 
BRANCH  30  31
ATOM     31  C   UNL     1      -0.729   1.579   1.267  0.00  0.00    +0.138 C 
BRANCH  31  32
ATOM     32  C   UNL     1      -0.013   1.086   0.008  0.00  0.00    +0.147 C 
BRANCH  32  33
ATOM     33  C   UNL     1      -0.742   1.585  -1.213  0.00  0.00    +0.358 C 
ATOM     34  O   UNL     1      -1.732   2.266  -1.089  0.00  0.00    -0.246 OA
ATOM     35  O   UNL     1      -0.290   1.274  -2.438  0.00  0.00    -0.246 OA
ENDBRANCH  32  33
ENDBRANCH  31  32
ENDBRANCH  30  31
ENDBRANCH  19  20
ENDBRANCH   1  19
TORSDOF 11
