REMARK  Name = ZINC00842493
REMARK  6 active torsions:
REMARK  status: ('A' for Active; 'I' for Inactive)
REMARK    1  A    between atoms: C_3  and  O_16
REMARK    2  A    between atoms: C_6  and  N_7
REMARK    3  A    between atoms: C_8  and  C_10
REMARK    4  A    between atoms: O_16  and  C_17
REMARK    5  A    between atoms: C_20  and  N_23
REMARK    6  A    between atoms: C_24  and  C_26
REMARK                            x       y       z     vdW  Elec       q    Type
REMARK                         _______ _______ _______ _____ _____    ______ ____
ROOT
ATOM      1  O   UNL     1       3.885   2.268  -0.133  0.00  0.00    -0.456 OA
ENDROOT
BRANCH   1   4
ATOM      2  C   UNL     1       1.480  -0.457   0.038  0.00  0.00    +0.027 A 
ATOM      3  C   UNL     1       2.684   0.218  -0.024  0.00  0.00    +0.048 A 
ATOM      4  C   UNL     1       2.700   1.605  -0.073  0.00  0.00    +0.129 A 
ATOM      5  C   UNL     1       1.508   2.314  -0.060  0.00  0.00    +0.048 A 
ATOM      6  C   UNL     1       0.304   1.641   0.002  0.00  0.00    +0.027 A 
ATOM      7  C   UNL     1       0.287   0.253   0.051  0.00  0.00    +0.034 A 
BRANCH   7   8
ATOM      8  N   UNL     1      -0.934  -0.430   0.115  0.00  0.00    -0.279 N 
ATOM      9  C   UNL     1      -1.029  -1.575   0.820  0.00  0.00    +0.284 C 
ATOM     10  O   UNL     1      -0.087  -1.959   1.487  0.00  0.00    -0.266 OA
ATOM     11  H   UNL     1      -1.710  -0.080  -0.349  0.00  0.00    +0.155 HD
BRANCH   9  12
ATOM     12  C   UNL     1      -2.268  -2.356   0.784  0.00  0.00    +0.191 A 
ATOM     13  C   UNL     1      -2.500  -3.525   1.452  0.00  0.00    +0.056 A 
ATOM     14  C   UNL     1      -3.807  -3.921   1.131  0.00  0.00    +0.058 A 
ATOM     15  C   UNL     1      -4.311  -2.988   0.291  0.00  0.00    +0.171 A 
ATOM     16  O   UNL     1      -3.383  -2.044   0.089  0.00  0.00    -0.444 OA
ATOM     17 BR   UNL     1      -6.043  -3.010  -0.467  0.00  0.00    -0.008 Br
ENDBRANCH   9  12
ENDBRANCH   7   8
ENDBRANCH   1   4
BRANCH   1  18
ATOM     18  C   UNL     1       5.030   1.539  -0.056  0.00  0.00    +0.129 A 
ATOM     19  C   UNL     1       5.369   0.671  -1.085  0.00  0.00    +0.048 A 
ATOM     20  C   UNL     1       6.532  -0.070  -1.007  0.00  0.00    +0.027 A 
ATOM     21  C   UNL     1       7.361   0.053   0.100  0.00  0.00    +0.034 A 
ATOM     22  C   UNL     1       7.021   0.922   1.129  0.00  0.00    +0.027 A 
ATOM     23  C   UNL     1       5.861   1.667   1.047  0.00  0.00    +0.048 A 
BRANCH  21  24
ATOM     24  N   UNL     1       8.539  -0.699   0.180  0.00  0.00    -0.279 N 
ATOM     25  C   UNL     1       8.971  -1.151   1.374  0.00  0.00    +0.284 C 
ATOM     26  O   UNL     1       8.285  -0.996   2.368  0.00  0.00    -0.266 OA
ATOM     27  H   UNL     1       9.045  -0.895  -0.625  0.00  0.00    +0.155 HD
BRANCH  25  28
ATOM     28  C   UNL     1      10.267  -1.828   1.476  0.00  0.00    +0.191 A 
ATOM     29  C   UNL     1      10.819  -2.336   2.618  0.00  0.00    +0.056 A 
ATOM     30  C   UNL     1      12.055  -2.890   2.256  0.00  0.00    +0.058 A 
ATOM     31  C   UNL     1      12.204  -2.699   0.925  0.00  0.00    +0.171 A 
ATOM     32  O   UNL     1      11.121  -2.063   0.458  0.00  0.00    -0.444 OA
ATOM     33 BR   UNL     1      13.691  -3.245  -0.108  0.00  0.00    -0.008 Br
ENDBRANCH  25  28
ENDBRANCH  21  24
ENDBRANCH   1  18
TORSDOF 6
