REMARK  Name = ZINC04146174
REMARK  12 active torsions:
REMARK  status: ('A' for Active; 'I' for Inactive)
REMARK    1  A    between atoms: C_1  and  C_2
REMARK    2  A    between atoms: C_3  and  C_31
REMARK    3  A    between atoms: C_4  and  C_13
REMARK    4  A    between atoms: C_16  and  N_19
REMARK    5  A    between atoms: N_19  and  S_20
REMARK    6  A    between atoms: S_20  and  C_23
REMARK    7  A    between atoms: C_26  and  O_29
REMARK    8  A    between atoms: O_29  and  C_30
REMARK    9  A    between atoms: C_31  and  O_33
REMARK   10  A    between atoms: O_33  and  C_34
REMARK   11  A    between atoms: C_34  and  C_35
REMARK   12  A    between atoms: C_34  and  C_36
REMARK                            x       y       z     vdW  Elec       q    Type
REMARK                         _______ _______ _______ _____ _____    ______ ____
ROOT
ATOM      1  C   UNL     1      -1.317  -2.737   1.466  0.00  0.00    -0.022 A 
ATOM      2  C   UNL     1      -0.182  -2.758   2.256  0.00  0.00    +0.007 A 
ATOM      3  C   UNL     1      -0.267  -3.148   3.578  0.00  0.00    +0.025 A 
ATOM      4  C   UNL     1      -1.493  -3.519   4.114  0.00  0.00    +0.048 A 
ATOM      5  C   UNL     1      -2.631  -3.497   3.318  0.00  0.00    +0.025 A 
ATOM      6  C   UNL     1      -2.541  -3.101   1.998  0.00  0.00    +0.007 A 
ENDROOT
BRANCH   1  10
ATOM      7  C   UNL     1       0.079   1.333  -0.122  0.00  0.00    +0.066 C 
ATOM      8  C   UNL     1       0.030  -0.173  -0.104  0.00  0.00    +0.053 C 
ATOM      9  C   UNL     1      -1.177  -0.806  -0.058  0.00  0.00    +0.082 C 
ATOM     10  C   UNL     1      -1.221  -2.312   0.023  0.00  0.00    +0.145 C 
ATOM     11  N   UNL     1       0.014  -2.852  -0.575  0.00  0.00    -0.298 N 
ATOM     12  C   UNL     1      -0.084  -4.042  -1.400  0.00  0.00    +0.109 C 
ATOM     13  C   UNL     1       1.099  -4.979  -1.368  0.00  0.00    +0.030 C 
ATOM     14  C   UNL     1       2.401  -4.267  -1.740  0.00  0.00    +0.079 C 
ATOM     15  S   UNL     1       2.724  -3.021  -0.451  0.00  0.00    -0.090 S 
ATOM     16  C   UNL     1       1.179  -2.168  -0.370  0.00  0.00    +0.157 C 
ATOM     17  N   UNL     1       1.164  -0.867  -0.139  0.00  0.00    -0.230 NA
BRANCH   9  18
ATOM     18  C   UNL     1      -2.368  -0.062  -0.086  0.00  0.00    +0.339 C 
ATOM     19  O   UNL     1      -2.326   1.153  -0.151  0.00  0.00    -0.245 OA
BRANCH  18  20
ATOM     20  O   UNL     1      -3.560  -0.696  -0.040  0.00  0.00    -0.459 OA
BRANCH  20  21
ATOM     21  C   UNL     1      -4.731   0.123  -0.072  0.00  0.00    +0.171 C 
ATOM     22  C   UNL     1      -5.164   0.338  -1.524  0.00  0.00    +0.052 C 
ATOM     23  C   UNL     1      -5.858  -0.568   0.699  0.00  0.00    +0.052 C 
ENDBRANCH  20  21
ENDBRANCH  18  20
ENDBRANCH   9  18
ENDBRANCH   1  10
BRANCH   4  24
ATOM     24  N   UNL     1      -1.582  -3.915   5.451  0.00  0.00    -0.216 N 
ATOM     25  H   UNL     1      -0.938  -4.542   5.815  0.00  0.00    +0.174 HD
BRANCH  24  26
ATOM     26  S   UNL     1      -2.786  -3.312   6.414  0.00  0.00    +0.072 S 
ATOM     27  O   UNL     1      -4.008  -3.534   5.724  0.00  0.00    -0.150 OA
ATOM     28  O   UNL     1      -2.549  -3.812   7.723  0.00  0.00    -0.150 OA
BRANCH  26  29
ATOM     29  C   UNL     1      -2.564  -1.565   6.495  0.00  0.00    +0.109 A 
ATOM     30  C   UNL     1      -1.687  -1.024   7.417  0.00  0.00    +0.032 A 
ATOM     31  C   UNL     1      -1.511   0.345   7.482  0.00  0.00    +0.047 A 
ATOM     32  C   UNL     1      -2.215   1.176   6.622  0.00  0.00    +0.120 A 
ATOM     33  C   UNL     1      -3.093   0.629   5.698  0.00  0.00    +0.047 A 
ATOM     34  C   UNL     1      -3.262  -0.740   5.633  0.00  0.00    +0.032 A 
BRANCH  32  35
ATOM     35  O   UNL     1      -2.043   2.522   6.685  0.00  0.00    -0.495 OA
ATOM     36  C   UNL     1      -2.800   3.316   5.769  0.00  0.00    +0.277 C 
ENDBRANCH  32  35
ENDBRANCH  26  29
ENDBRANCH  24  26
ENDBRANCH   4  24
TORSDOF 8
