REMARK  Name = ZINC39934818
REMARK  7 active torsions:
REMARK  status: ('A' for Active; 'I' for Inactive)
REMARK    1  A    between atoms: C_1  and  C_2
REMARK    2  A    between atoms: C_7  and  C_12
REMARK    3  A    between atoms: C_12  and  C_33
REMARK    4  A    between atoms: C_13  and  C_14
REMARK    5  A    between atoms: N_17  and  C_24
REMARK    6  A    between atoms: C_24  and  C_25
REMARK    7  A    between atoms: C_30  and  C_31
REMARK                            x       y       z     vdW  Elec       q    Type
REMARK                         _______ _______ _______ _____ _____    ______ ____
ROOT
ATOM      1  C   UNL     1      -2.247  -7.085   2.759  0.00  0.00    +0.062 C 
ATOM      2  C   UNL     1      -2.214  -8.521   2.211  0.00  0.00    +0.117 C 
ATOM      3  N   UNL     1      -2.216  -9.384   3.395  0.00  0.00    -0.324 N 
ATOM      4  C   UNL     1      -2.245  -8.608   4.554  0.00  0.00    +0.034 A 
ATOM      5  C   UNL     1      -2.266  -7.250   4.262  0.00  0.00    -0.018 A 
ATOM      6  C   UNL     1      -2.298  -6.312   5.276  0.00  0.00    +0.006 A 
ATOM      7  C   UNL     1      -2.310  -6.719   6.598  0.00  0.00    +0.000 A 
ATOM      8  C   UNL     1      -2.291  -8.067   6.903  0.00  0.00    +0.002 A 
ATOM      9  C   UNL     1      -2.256  -9.013   5.891  0.00  0.00    +0.023 A 
ENDROOT
BRANCH   1  11
ATOM     10  C   UNL     1      -1.136  -5.208   1.624  0.00  0.00    +0.068 C 
ATOM     11  C   UNL     1      -1.016  -6.330   2.329  0.00  0.00    +0.001 C 
BRANCH  10  18
ATOM     12  C   UNL     1       0.034   1.274  -0.711  0.00  0.00    +0.044 C 
ATOM     13  C   UNL     1       0.059  -0.230  -0.622  0.00  0.00    -0.048 A 
ATOM     14  C   UNL     1       0.100  -0.976  -1.814  0.00  0.00    +0.005 A 
ATOM     15  C   UNL     1       0.125  -2.324  -1.827  0.00  0.00    +0.027 A 
ATOM     16  C   UNL     1       0.110  -3.061  -0.556  0.00  0.00    +0.060 A 
ATOM     17  N   UNL     1       0.126  -4.331  -0.270  0.00  0.00    -0.359 N 
ATOM     18  C   UNL     1       0.096  -4.453   1.193  0.00  0.00    +0.216 C 
ATOM     19  N   UNL     1       0.059  -3.084   1.722  0.00  0.00    -0.359 N 
ATOM     20  C   UNL     1       0.068  -2.272   0.705  0.00  0.00    +0.061 A 
ATOM     21  C   UNL     1       0.048  -0.806   0.596  0.00  0.00    +0.030 A 
ATOM     22  H   UNL     1       0.153  -5.062  -0.906  0.00  0.00    +0.162 HD
ATOM     23  H   UNL     1       0.034  -2.831   2.658  0.00  0.00    +0.162 HD
ENDBRANCH  10  18
BRANCH  10  24
ATOM     24  C   UNL     1      -2.435  -4.718   1.274  0.00  0.00    +0.098 C 
ATOM     25  N   UNL     1      -3.466  -4.329   0.997  0.00  0.00    -0.191 NA
ENDBRANCH  10  24
ENDBRANCH   1  11
BRANCH   3  26
ATOM     26  C   UNL     1      -2.190 -10.849   3.366  0.00  0.00    +0.141 C 
BRANCH  26  27
ATOM     27  C   UNL     1      -3.598 -11.378   3.466  0.00  0.00    -0.013 A 
ATOM     28  C   UNL     1      -4.087 -11.816   4.680  0.00  0.00    +0.006 A 
ATOM     29  C   UNL     1      -5.378 -12.302   4.774  0.00  0.00    +0.000 A 
ATOM     30  C   UNL     1      -6.189 -12.353   3.653  0.00  0.00    +0.001 A 
ATOM     31  C   UNL     1      -5.712 -11.919   2.434  0.00  0.00    +0.019 A 
ATOM     32  C   UNL     1      -4.412 -11.421   2.333  0.00  0.00    +0.056 A 
BRANCH  32  33
ATOM     33  C   UNL     1      -3.913 -10.963   1.071  0.00  0.00    +0.099 C 
ATOM     34  N   UNL     1      -3.517 -10.599   0.070  0.00  0.00    -0.191 NA
ENDBRANCH  32  33
ENDBRANCH  26  27
ENDBRANCH   3  26
TORSDOF 6
