REMARK  Name = ZINC57312241
REMARK  10 active torsions:
REMARK  status: ('A' for Active; 'I' for Inactive)
REMARK    1  A    between atoms: C_1  and  C_2
REMARK    2  A    between atoms: C_3  and  O_33
REMARK    3  A    between atoms: C_4  and  C_23
REMARK    4  A    between atoms: C_10  and  C_11
REMARK    5  A    between atoms: C_13  and  O_19
REMARK    6  A    between atoms: C_16  and  O_17
REMARK    7  A    between atoms: O_17  and  C_18
REMARK    8  A    between atoms: O_19  and  C_20
REMARK    9  A    between atoms: C_23  and  N_24
REMARK   10  A    between atoms: N_24  and  C_25
REMARK                            x       y       z     vdW  Elec       q    Type
REMARK                         _______ _______ _______ _____ _____    ______ ____
ROOT
ATOM      1  C   UNL     1       0.983   1.400   0.041  0.00  0.00    +0.051 C 
ATOM      2  C   UNL     1       0.924  -0.106   0.056  0.00  0.00    +0.034 A 
ATOM      3  C   UNL     1       1.111  -0.818  -1.119  0.00  0.00    +0.125 A 
ATOM      4  C   UNL     1       1.059  -2.209  -1.119  0.00  0.00    -0.022 A 
ATOM      5  C   UNL     1       0.823  -2.888   0.043  0.00  0.00    +0.020 A 
ATOM      6  C   UNL     1       0.634  -2.184   1.233  0.00  0.00    +0.068 A 
ATOM      7  C   UNL     1       0.690  -0.781   1.247  0.00  0.00    +0.146 A 
ATOM      8  O   UNL     1       0.485  -0.330   2.503  0.00  0.00    -0.451 OA
ATOM      9  C   UNL     1       0.293  -1.345   3.378  0.00  0.00    +0.176 C 
ATOM     10  C   UNL     1       0.063  -1.224   4.711  0.00  0.00    +0.062 C 
ATOM     11  C   UNL     1       0.367  -2.603   2.621  0.00  0.00    +0.231 C 
ATOM     12  O   UNL     1       0.247  -3.739   3.047  0.00  0.00    -0.283 OA
ENDROOT
BRANCH  10  13
ATOM     13  C   UNL     1       0.161   0.090   5.355  0.00  0.00    +0.024 A 
ATOM     14  C   UNL     1       0.139   1.258   4.582  0.00  0.00    +0.057 A 
ATOM     15  C   UNL     1       0.232   2.491   5.198  0.00  0.00    +0.121 A 
ATOM     16  C   UNL     1       0.348   2.576   6.580  0.00  0.00    +0.049 A 
ATOM     17  C   UNL     1       0.370   1.431   7.352  0.00  0.00    +0.050 A 
ATOM     18  C   UNL     1       0.273   0.185   6.752  0.00  0.00    +0.128 A 
BRANCH  18  19
ATOM     19  O   UNL     1       0.290  -0.939   7.512  0.00  0.00    -0.495 OA
ATOM     20  C   UNL     1       0.406  -0.766   8.926  0.00  0.00    +0.277 C 
ENDBRANCH  18  19
BRANCH  15  21
ATOM     21  O   UNL     1       0.211   3.626   4.448  0.00  0.00    -0.495 OA
ATOM     22  C   UNL     1       0.312   4.867   5.148  0.00  0.00    +0.277 C 
ENDBRANCH  15  21
ENDBRANCH  10  13
BRANCH   3  23
ATOM     23  O   UNL     1       1.345  -0.153  -2.279  0.00  0.00    -0.506 OA
ATOM     24  H   UNL     1       2.281   0.008  -2.458  0.00  0.00    +0.292 HD
ENDBRANCH   3  23
BRANCH   4  25
ATOM     25  C   UNL     1       1.264  -2.968  -2.405  0.00  0.00    -0.043 C 
BRANCH  25  26
ATOM     26  N   UNL     1       2.700  -3.057  -2.698  0.00  0.00    +0.385 N 
ATOM     27  H   UNL     1       3.083  -2.128  -2.791  0.00  0.00    -0.085 HD
ATOM     28  H   UNL     1       3.168  -3.539  -1.944  0.00  0.00    -0.085 HD
BRANCH  26  29
ATOM     29  C   UNL     1       2.900  -3.797  -3.951  0.00  0.00    -0.049 C 
ATOM     30  C   UNL     1       2.306  -2.993  -5.119  0.00  0.00    +0.008 C 
ATOM     31  C   UNL     1       2.800  -3.632  -6.448  0.00  0.00    +0.164 C 
ATOM     32  S   UNL     1       4.552  -4.000  -6.014  0.00  0.00    -0.033 S 
ATOM     33  O   UNL     1       5.365  -2.902  -6.405  0.00  0.00    -0.174 OA
ATOM     34  O   UNL     1       4.876  -5.307  -6.469  0.00  0.00    -0.174 OA
ATOM     35  C   UNL     1       4.414  -4.019  -4.181  0.00  0.00    +0.150 C 
ENDBRANCH  26  29
ENDBRANCH  25  26
ENDBRANCH   4  25
TORSDOF 7
