REMARK  Name = ZINC20873155
REMARK  12 active torsions:
REMARK  status: ('A' for Active; 'I' for Inactive)
REMARK    1  A    between atoms: C_1  and  C_2
REMARK    2  A    between atoms: C_6  and  C_30
REMARK    3  A    between atoms: C_9  and  N_12
REMARK    4  A    between atoms: N_12  and  C_13
REMARK    5  A    between atoms: C_13  and  C_14
REMARK    6  A    between atoms: C_19  and  O_20
REMARK    7  A    between atoms: O_20  and  C_21
REMARK    8  A    between atoms: C_21  and  C_22
REMARK    9  A    between atoms: N_24  and  C_25
REMARK   10  A    between atoms: C_25  and  C_26
REMARK   11  A    between atoms: C_25  and  C_27
REMARK   12  A    between atoms: C_25  and  C_28
REMARK                            x       y       z     vdW  Elec       q    Type
REMARK                         _______ _______ _______ _____ _____    ______ ____
ROOT
ATOM      1  C   UNL     1      -0.017   1.383   0.010  0.00  0.00    -0.022 A 
ATOM      2  C   UNL     1       1.171   2.089   0.002  0.00  0.00    +0.020 A 
ATOM      3  C   UNL     1       2.378   1.414  -0.013  0.00  0.00    +0.018 A 
ATOM      4  C   UNL     1       2.399   0.030  -0.021  0.00  0.00    +0.019 A 
ATOM      5  C   UNL     1       1.214  -0.679  -0.013  0.00  0.00    +0.047 A 
ATOM      6  C   UNL     1       0.002  -0.004   0.002  0.00  0.00    +0.123 A 
ATOM      7 BR   UNL     1       4.002   2.383  -0.023  0.00  0.00    -0.050 Br
ENDROOT
BRANCH   1   8
ATOM      8  C   UNL     1      -1.332   2.119   0.020  0.00  0.00    -0.042 C 
BRANCH   8   9
ATOM      9  N   UNL     1      -1.870   2.141   1.387  0.00  0.00    +0.386 N 
ATOM     10  H   UNL     1      -1.146   2.646   2.043  0.00  0.00    -0.085 HD
ATOM     11  H   UNL     1      -2.012   1.105   1.726  0.00  0.00    -0.085 HD
BRANCH   9  20
ATOM     12  C   UNL     1      -5.548   3.597   4.358  0.00  0.00    +0.011 C 
ATOM     13  C   UNL     1      -5.020   3.595   2.922  0.00  0.00    -0.033 C 
ATOM     14  C   UNL     1      -6.027   2.892   2.009  0.00  0.00    +0.010 C 
ATOM     15  C   UNL     1      -5.499   2.890   0.573  0.00  0.00    -0.011 C 
ATOM     16  C   UNL     1      -5.302   4.332   0.100  0.00  0.00    +0.010 C 
ATOM     17  C   UNL     1      -4.295   5.035   1.013  0.00  0.00    -0.033 C 
ATOM     18  C   UNL     1      -4.823   5.037   2.449  0.00  0.00    +0.013 C 
ATOM     19  C   UNL     1      -2.957   4.294   0.962  0.00  0.00    -0.006 C 
ATOM     20  C   UNL     1      -3.154   2.852   1.435  0.00  0.00    -0.067 C 
ATOM     21  C   UNL     1      -4.161   2.149   0.522  0.00  0.00    -0.009 C 
ATOM     22  C   UNL     1      -3.682   2.854   2.871  0.00  0.00    -0.006 C 
ATOM     23  C   UNL     1      -4.098   6.476   0.540  0.00  0.00    +0.011 C 
ENDBRANCH   9  20
ENDBRANCH   8   9
ENDBRANCH   1   8
BRANCH   6  24
ATOM     24  O   UNL     1      -1.165  -0.701   0.010  0.00  0.00    -0.483 OA
BRANCH  24  25
ATOM     25  C   UNL     1      -1.070  -2.126   0.001  0.00  0.00    +0.324 C 
BRANCH  25  26
ATOM     26  C   UNL     1      -2.454  -2.722   0.012  0.00  0.00    +0.251 C 
ATOM     27  O   UNL     1      -3.426  -1.998   0.025  0.00  0.00    -0.272 OA
ATOM     28  N   UNL     1      -2.611  -4.061   0.006  0.00  0.00    -0.308 N 
ATOM     29  H   UNL     1      -1.730  -4.718  -0.006  0.00  0.00    +0.149 HD
BRANCH  28  30
ATOM     30  C   UNL     1      -3.957  -4.640   0.017  0.00  0.00    +0.026 C 
ATOM     31  C   UNL     1      -4.723  -4.173  -1.223  0.00  0.00    +0.031 C 
ATOM     32  C   UNL     1      -3.855  -6.167   0.007  0.00  0.00    +0.031 C 
ATOM     33  C   UNL     1      -4.698  -4.186   1.276  0.00  0.00    +0.031 C 
ENDBRANCH  28  30
ENDBRANCH  25  26
ENDBRANCH  24  25
ENDBRANCH   6  24
TORSDOF 7
