REMARK  Name = ZINC38905708
REMARK  10 active torsions:
REMARK  status: ('A' for Active; 'I' for Inactive)
REMARK    1  A    between atoms: C_3  and  C_6
REMARK    2  A    between atoms: C_6  and  S_7
REMARK    3  A    between atoms: S_7  and  C_8
REMARK    4  A    between atoms: C_8  and  C_9
REMARK    5  A    between atoms: C_9  and  C_10
REMARK    6  A    between atoms: C_10  and  N_11
REMARK    7  A    between atoms: C_12  and  C_14
REMARK    8  A    between atoms: N_19  and  C_21
REMARK    9  A    between atoms: C_21  and  C_22
REMARK   10  A    between atoms: C_24  and  C_27
REMARK                            x       y       z     vdW  Elec       q    Type
REMARK                         _______ _______ _______ _____ _____    ______ ____
ROOT
ATOM      1  C   UNL     1      10.826   0.430   5.491  0.00  0.00    +0.058 C 
ATOM      2  C   UNL     1      10.368  -0.815   6.256  0.00  0.00    +0.009 C 
ATOM      3  C   UNL     1      11.092  -0.869   7.605  0.00  0.00    -0.018 C 
ATOM      4  C   UNL     1      12.604  -0.858   7.366  0.00  0.00    -0.078 C 
ATOM      5  N   UNL     1      12.982   0.368   6.654  0.00  0.00    +0.386 N 
ATOM      6  C   UNL     1      12.348   0.393   5.331  0.00  0.00    -0.065 C 
ATOM      7  H   UNL     1      12.680   1.171   7.186  0.00  0.00    -0.081 HD
ENDROOT
BRANCH   1   9
ATOM      8  N   UNL     1       8.834   0.483   4.026  0.00  0.00    -0.315 N 
ATOM      9  C   UNL     1      10.177   0.452   4.131  0.00  0.00    +0.214 C 
ATOM     10  O   UNL     1      10.864   0.441   3.131  0.00  0.00    -0.276 OA
ATOM     11  H   UNL     1       8.285   0.492   4.825  0.00  0.00    +0.149 HD
BRANCH   8  12
ATOM     12  C   UNL     1       8.203   0.504   2.704  0.00  0.00    +0.105 C 
BRANCH  12  13
ATOM     13  C   UNL     1       6.682   0.539   2.865  0.00  0.00    +0.029 C 
BRANCH  13  14
ATOM     14  C   UNL     1       6.024   0.561   1.484  0.00  0.00    +0.071 C 
BRANCH  14  15
ATOM     15  S   UNL     1       4.220   0.602   1.675  0.00  0.00    -0.153 S 
BRANCH  15  16
ATOM     16  C   UNL     1       3.599   0.625  -0.029  0.00  0.00    +0.143 C 
BRANCH  16  19
ATOM     17  C   UNL     1      -0.016   1.341   0.009  0.00  0.00    +0.041 A 
ATOM     18  C   UNL     1       1.331   1.769  -0.001  0.00  0.00    +0.045 A 
ATOM     19  C   UNL     1       2.092   0.660  -0.014  0.00  0.00    +0.115 A 
ATOM     20  O   UNL     1       1.282  -0.411  -0.012  0.00  0.00    -0.467 OA
ATOM     21  C   UNL     1       0.002  -0.004   0.002  0.00  0.00    +0.195 A 
ENDBRANCH  16  19
ENDBRANCH  15  16
ENDBRANCH  14  15
ENDBRANCH  13  14
ENDBRANCH  12  13
ENDBRANCH   8  12
ENDBRANCH   1   9
BRANCH   5  22
ATOM     22  C   UNL     1      14.442   0.410   6.497  0.00  0.00    +0.022 C 
BRANCH  22  23
ATOM     23  C   UNL     1      15.091   0.519   7.853  0.00  0.00    +0.211 A 
ATOM     24  N   UNL     1      15.461  -0.480   8.602  0.00  0.00    -0.193 NA
ATOM     25  C   UNL     1      16.004  -0.023   9.744  0.00  0.00    +0.202 A 
ATOM     26  N   UNL     1      15.980   1.287   9.724  0.00  0.00    -0.056 NA
ATOM     27  O   UNL     1      15.389   1.660   8.488  0.00  0.00    -0.340 OA
BRANCH  25  28
ATOM     28  C   UNL     1      16.540  -0.862  10.844  0.00  0.00    +0.023 A 
ATOM     29  C   UNL     1      16.512  -2.251  10.741  0.00  0.00    +0.013 A 
ATOM     30  C   UNL     1      17.012  -3.027  11.767  0.00  0.00    +0.016 A 
ATOM     31  C   UNL     1      17.540  -2.428  12.897  0.00  0.00    +0.018 A 
ATOM     32  C   UNL     1      17.571  -1.048  13.004  0.00  0.00    +0.016 A 
ATOM     33  C   UNL     1      17.079  -0.263  11.981  0.00  0.00    +0.013 A 
ATOM     34 BR   UNL     1      18.223  -3.497  14.299  0.00  0.00    -0.050 Br
ENDBRANCH  25  28
ENDBRANCH  22  23
ENDBRANCH   5  22
TORSDOF 10
