REMARK  Name = ZINC63383712
REMARK  12 active torsions:
REMARK  status: ('A' for Active; 'I' for Inactive)
REMARK    1  A    between atoms: C_1  and  C_2
REMARK    2  A    between atoms: C_2  and  C_3
REMARK    3  A    between atoms: C_2  and  C_4
REMARK    4  A    between atoms: C_4  and  C_5
REMARK    5  A    between atoms: C_5  and  N_6
REMARK    6  A    between atoms: C_7  and  C_9
REMARK    7  A    between atoms: C_9  and  C_11
REMARK    8  A    between atoms: C_9  and  N_15
REMARK    9  A    between atoms: C_11  and  C_12
REMARK   10  A    between atoms: C_12  and  C_13
REMARK   11  A    between atoms: C_12  and  C_14
REMARK   12  A    between atoms: C_16  and  C_18
REMARK                            x       y       z     vdW  Elec       q    Type
REMARK                         _______ _______ _______ _____ _____    ______ ____
ROOT
ATOM      1  C   UNL     1      -5.104  -8.225  -0.022  0.00  0.00    +0.167 C 
ATOM      2  C   UNL     1      -4.097  -8.760  -1.059  0.00  0.00    +0.065 C 
ATOM      3  C   UNL     1      -4.830  -8.878  -2.372  0.00  0.00    -0.034 C 
ATOM      4  C   UNL     1      -4.535  -8.401  -3.577  0.00  0.00    -0.001 A 
ATOM      5  C   UNL     1      -3.356  -7.678  -4.082  0.00  0.00    +0.010 A 
ATOM      6  C   UNL     1      -3.392  -7.314  -5.391  0.00  0.00    +0.001 A 
ATOM      7  C   UNL     1      -4.467  -7.594  -6.239  0.00  0.00    +0.002 A 
ATOM      8  C   UNL     1      -5.587  -8.262  -5.862  0.00  0.00    +0.026 A 
ATOM      9  C   UNL     1      -5.664  -8.702  -4.509  0.00  0.00    +0.043 A 
ATOM     10  N   UNL     1      -6.595  -9.369  -3.893  0.00  0.00    -0.375 N 
ATOM     11  C   UNL     1      -6.153  -9.620  -2.520  0.00  0.00    +0.131 C 
ATOM     12  C   UNL     1      -7.113  -9.002  -1.497  0.00  0.00    +0.134 C 
ATOM     13  N   UNL     1      -6.384  -8.921  -0.208  0.00  0.00    -0.276 N 
ATOM     14  C   UNL     1      -7.076  -9.594   0.729  0.00  0.00    +0.248 C 
ATOM     15  O   UNL     1      -6.779  -9.651   1.907  0.00  0.00    -0.270 OA
ATOM     16  C   UNL     1      -8.240 -10.246   0.126  0.00  0.00    +0.042 A 
ATOM     17  C   UNL     1      -8.287  -9.896  -1.260  0.00  0.00    -0.013 A 
ATOM     18  C   UNL     1      -9.273 -10.358  -2.104  0.00  0.00    +0.006 A 
ATOM     19  C   UNL     1     -10.241 -11.189  -1.549  0.00  0.00    +0.000 A 
ATOM     20  C   UNL     1     -10.222 -11.537  -0.213  0.00  0.00    +0.001 A 
ATOM     21  C   UNL     1      -9.212 -11.080   0.685  0.00  0.00    +0.013 A 
ATOM     22  H   UNL     1      -7.438  -9.652  -4.279  0.00  0.00    +0.160 HD
ENDROOT
BRANCH   1  24
ATOM     23  N   UNL     1      -4.251  -5.905  -0.109  0.00  0.00    -0.302 N 
ATOM     24  C   UNL     1      -5.299  -6.745  -0.223  0.00  0.00    +0.235 C 
ATOM     25  O   UNL     1      -6.399  -6.308  -0.488  0.00  0.00    -0.274 OA
ATOM     26  H   UNL     1      -3.359  -6.259   0.031  0.00  0.00    +0.150 HD
BRANCH  23  27
ATOM     27  C   UNL     1      -4.459  -4.457  -0.197  0.00  0.00    +0.159 C 
BRANCH  27  29
ATOM     28  N   UNL     1      -3.160  -2.494  -0.956  0.00  0.00    -0.314 N 
ATOM     29  C   UNL     1      -3.163  -3.786  -0.571  0.00  0.00    +0.233 C 
ATOM     30  O   UNL     1      -2.122  -4.407  -0.526  0.00  0.00    -0.274 OA
ATOM     31  H   UNL     1      -3.996  -2.010  -1.038  0.00  0.00    +0.149 HD
BRANCH  28  32
ATOM     32  C   UNL     1      -1.893  -1.821  -1.252  0.00  0.00    +0.104 C 
BRANCH  32  33
ATOM     33  C   UNL     1      -2.168  -0.373  -1.662  0.00  0.00    +0.022 C 
BRANCH  33  35
ATOM     34  C   UNL     1      -1.127   1.738  -2.501  0.00  0.00    +0.007 C 
ATOM     35  C   UNL     1      -0.845   0.331  -1.971  0.00  0.00    -0.016 C 
ATOM     36  C   UNL     1      -0.007   0.424  -0.694  0.00  0.00    +0.007 C 
ENDBRANCH  33  35
ENDBRANCH  32  33
ENDBRANCH  28  32
ENDBRANCH  27  29
BRANCH  27  37
ATOM     37  C   UNL     1      -4.936  -3.927   1.156  0.00  0.00    +0.034 C 
BRANCH  37  38
ATOM     38  C   UNL     1      -5.186  -2.421   1.055  0.00  0.00    -0.015 C 
ATOM     39  C   UNL     1      -6.363  -2.163   0.112  0.00  0.00    +0.007 C 
ATOM     40  C   UNL     1      -5.512  -1.864   2.442  0.00  0.00    +0.007 C 
ENDBRANCH  37  38
ENDBRANCH  27  37
ENDBRANCH  23  27
ENDBRANCH   1  24
TORSDOF 8
