REMARK  Name = ZINC20710102
REMARK  6 active torsions:
REMARK  status: ('A' for Active; 'I' for Inactive)
REMARK    1  A    between atoms: C_5  and  O_7
REMARK    2  A    between atoms: O_7  and  C_8
REMARK    3  A    between atoms: C_8  and  C_9
REMARK    4  A    between atoms: C_16  and  C_25
REMARK    5  A    between atoms: C_27  and  N_32
REMARK    6  A    between atoms: C_30  and  O_31
REMARK                            x       y       z     vdW  Elec       q    Type
REMARK                         _______ _______ _______ _____ _____    ______ ____
ROOT
ATOM      1  C   UNL     1      -6.280   4.291   3.289  0.00  0.00    +0.004 A 
ATOM      2  C   UNL     1      -7.010   5.357   2.799  0.00  0.00    +0.006 A 
ATOM      3  C   UNL     1      -6.588   6.040   1.677  0.00  0.00    -0.016 A 
ATOM      4  C   UNL     1      -5.424   5.657   1.010  0.00  0.00    +0.074 A 
ATOM      5  C   UNL     1      -4.690   4.579   1.520  0.00  0.00    +0.142 A 
ATOM      6  C   UNL     1      -5.120   3.903   2.645  0.00  0.00    +0.047 A 
ATOM      7  N   UNL     1      -4.952   6.266  -0.154  0.00  0.00    -0.334 N 
ATOM      8  C   UNL     1      -5.689   7.448  -0.627  0.00  0.00    +0.109 C 
ATOM      9  C   UNL     1      -7.162   7.173  -0.406  0.00  0.00    +0.029 C 
ATOM     10  C   UNL     1      -7.339   7.198   1.144  0.00  0.00    +0.049 C 
ATOM     11  C   UNL     1      -8.805   7.347   1.312  0.00  0.00    -0.023 C 
ATOM     12  C   UNL     1      -9.288   7.990   0.254  0.00  0.00    -0.030 C 
ATOM     13  C   UNL     1      -8.159   8.291  -0.734  0.00  0.00    +0.033 C 
ATOM     14  H   UNL     1      -4.077   5.903  -0.713  0.00  0.00    +0.147 HD
ENDROOT
BRANCH   8  15
ATOM     15  C   UNL     1      -5.422   7.667  -2.094  0.00  0.00    +0.017 A 
ATOM     16  C   UNL     1      -5.001   6.615  -2.885  0.00  0.00    +0.041 A 
ATOM     17  C   UNL     1      -4.755   6.816  -4.231  0.00  0.00    +0.127 A 
ATOM     18  C   UNL     1      -4.931   8.068  -4.789  0.00  0.00    +0.036 A 
ATOM     19  C   UNL     1      -5.351   9.123  -4.003  0.00  0.00    +0.048 A 
ATOM     20  C   UNL     1      -5.603   8.924  -2.653  0.00  0.00    +0.122 A 
BRANCH  17  21
ATOM     21  N   UNL     1      -4.304   5.687  -5.075  0.00  0.00    +0.056 N 
ATOM     22  O   UNL     1      -4.150   4.583  -4.585  0.00  0.00    -0.126 OA
ATOM     23  O   UNL     1      -4.088   5.862  -6.261  0.00  0.00    -0.126 OA
ENDBRANCH  17  21
BRANCH  20  24
ATOM     24  O   UNL     1      -6.023   9.959  -1.879  0.00  0.00    -0.506 OA
ATOM     25  H   UNL     1      -6.167  10.955  -2.323  0.00  0.00    +0.292 HD
ENDBRANCH  20  24
ENDBRANCH   8  15
BRANCH   5  26
ATOM     26  O   UNL     1      -3.544   4.191   0.899  0.00  0.00    -0.488 OA
BRANCH  26  27
ATOM     27  C   UNL     1      -2.840   3.085   1.468  0.00  0.00    +0.260 C 
BRANCH  27  28
ATOM     28  C   UNL     1      -1.587   2.797   0.638  0.00  0.00    +0.156 C 
ATOM     29  C   UNL     1      -0.788   1.610   1.241  0.00  0.00    +0.037 C 
ATOM     30  C   UNL     1      -0.013   1.086   0.008  0.00  0.00    +0.031 C 
ATOM     31  C   UNL     1      -0.808   1.621  -1.198  0.00  0.00    +0.160 C 
ATOM     32  O   UNL     1      -1.946   2.329  -0.680  0.00  0.00    -0.373 OA
ENDBRANCH  27  28
ENDBRANCH  26  27
ENDBRANCH   5  26
TORSDOF 6
