REMARK  Name = ZINC42309037
REMARK  4 active torsions:
REMARK  status: ('A' for Active; 'I' for Inactive)
REMARK    1  A    between atoms: C_1  and  C_2
REMARK    2  A    between atoms: C_2  and  C_3
REMARK    3  A    between atoms: N_12  and  C_13
REMARK    4  A    between atoms: C_13  and  C_14
REMARK                            x       y       z     vdW  Elec       q    Type
REMARK                         _______ _______ _______ _____ _____    ______ ____
ROOT
ATOM      1  C   UNL     1       0.721  -0.494  -1.252  0.00  0.00    +0.006 C 
ATOM      2  C   UNL     1       0.630  -2.020  -1.327  0.00  0.00    +0.006 C 
ATOM      3  C   UNL     1       1.314  -2.511  -2.605  0.00  0.00    +0.019 C 
ATOM      4  C   UNL     1       2.793  -2.115  -2.572  0.00  0.00    +0.109 C 
ATOM      5  N   UNL     1       2.891  -0.666  -2.355  0.00  0.00    -0.285 N 
ATOM      6  C   UNL     1       2.193  -0.075  -1.204  0.00  0.00    +0.112 C 
ATOM      7  C   UNL     1       3.606   0.108  -3.195  0.00  0.00    +0.302 C 
ATOM      8  O   UNL     1       3.601   1.317  -3.061  0.00  0.00    -0.253 OA
ATOM      9  N   UNL     1       4.326  -0.457  -4.184  0.00  0.00    -0.296 N 
ATOM     10  H   UNL     1       4.273  -1.414  -4.337  0.00  0.00    +0.150 HD
ENDROOT
BRANCH   1  12
ATOM     11  C   UNL     1      -0.008   1.528   0.021  0.00  0.00    +0.004 C 
ATOM     12  C   UNL     1       0.009  -0.002   0.010  0.00  0.00    +0.002 C 
ENDBRANCH   1  12
BRANCH   9  13
ATOM     13  C   UNL     1       5.189   0.372  -5.029  0.00  0.00    +0.153 C 
BRANCH  13  14
ATOM     14  C   UNL     1       5.888  -0.509  -6.065  0.00  0.00    +0.228 C 
ATOM     15  C   UNL     1       6.877   0.335  -6.881  0.00  0.00    +0.275 C 
ATOM     16  O   UNL     1       7.502  -0.516  -7.848  0.00  0.00    -0.485 OA
ATOM     17  C   UNL     1       6.684  -1.343  -8.554  0.00  0.00    +0.162 A 
ATOM     18  C   UNL     1       7.146  -1.917  -9.729  0.00  0.00    +0.049 A 
ATOM     19  C   UNL     1       6.328  -2.762 -10.455  0.00  0.00    +0.004 A 
ATOM     20  C   UNL     1       5.048  -3.039 -10.012  0.00  0.00    +0.004 A 
ATOM     21  C   UNL     1       4.581  -2.470  -8.842  0.00  0.00    +0.049 A 
ATOM     22  C   UNL     1       5.396  -1.619  -8.110  0.00  0.00    +0.163 A 
ATOM     23  O   UNL     1       4.919  -1.060  -6.964  0.00  0.00    -0.480 OA
ENDBRANCH  13  14
ENDBRANCH   9  13
TORSDOF 3
