REMARK  Name = ZINC49738939
REMARK  4 active torsions:
REMARK  status: ('A' for Active; 'I' for Inactive)
REMARK    1  A    between atoms: C_1  and  C_2
REMARK    2  A    between atoms: C_5  and  C_8
REMARK    3  A    between atoms: N_10  and  C_11
REMARK    4  A    between atoms: C_11  and  C_12
REMARK                            x       y       z     vdW  Elec       q    Type
REMARK                         _______ _______ _______ _____ _____    ______ ____
ROOT
ATOM      1  C   UNL     1       0.093  -6.396   1.134  0.00  0.00    +0.158 C 
ENDROOT
BRANCH   1   2
ATOM      2  C   UNL     1       0.107  -6.914   2.574  0.00  0.00    +0.276 C 
ATOM      3  C   UNL     1       0.253  -8.415   2.566  0.00  0.00    +0.260 C 
ATOM      4  O   UNL     1       1.353  -8.920   2.642  0.00  0.00    -0.271 OA
ATOM      5  N   UNL     1      -0.845  -9.194   2.474  0.00  0.00    -0.279 N 
ATOM      6  C   UNL     1      -2.113  -8.596   2.515  0.00  0.00    +0.076 A 
ATOM      7  C   UNL     1      -3.247  -9.327   2.198  0.00  0.00    +0.027 A 
ATOM      8  C   UNL     1      -4.488  -8.719   2.231  0.00  0.00    +0.002 A 
ATOM      9  C   UNL     1      -4.601  -7.385   2.577  0.00  0.00    +0.004 A 
ATOM     10  C   UNL     1      -3.473  -6.652   2.900  0.00  0.00    +0.047 A 
ATOM     11  C   UNL     1      -2.227  -7.255   2.876  0.00  0.00    +0.143 A 
ATOM     12  O   UNL     1      -1.115  -6.554   3.221  0.00  0.00    -0.476 OA
ATOM     13  H   UNL     1      -0.759 -10.155   2.380  0.00  0.00    +0.155 HD
ENDBRANCH   1   2
BRANCH   1  16
ATOM     14  C   UNL     1       0.059  -4.251  -0.021  0.00  0.00    +0.244 C 
ATOM     15  O   UNL     1       0.062  -4.853  -1.077  0.00  0.00    -0.270 OA
ATOM     16  N   UNL     1       0.074  -4.931   1.142  0.00  0.00    -0.307 N 
ATOM     17  H   UNL     1       0.072  -4.451   1.985  0.00  0.00    +0.149 HD
BRANCH  14  22
ATOM     18  C   UNL     1      -0.018   1.503   0.010  0.00  0.00    +0.044 C 
ATOM     19  C   UNL     1       0.002  -0.004   0.002  0.00  0.00    -0.050 A 
ATOM     20  C   UNL     1       0.006  -0.686  -1.202  0.00  0.00    +0.004 A 
ATOM     21  C   UNL     1       0.024  -2.066  -1.216  0.00  0.00    +0.013 A 
ATOM     22  C   UNL     1       0.040  -2.773  -0.013  0.00  0.00    +0.037 A 
ATOM     23  C   UNL     1       0.036  -2.079   1.198  0.00  0.00    +0.013 A 
ATOM     24  C   UNL     1       0.023  -0.699   1.198  0.00  0.00    +0.004 A 
ENDBRANCH  14  22
ENDBRANCH   1  16
TORSDOF 3
