REMARK  Name = ZINC39197937
REMARK  9 active torsions:
REMARK  status: ('A' for Active; 'I' for Inactive)
REMARK    1  A    between atoms: C_4  and  C_7
REMARK    2  A    between atoms: C_7  and  C_8
REMARK    3  A    between atoms: C_7  and  C_26
REMARK    4  A    between atoms: C_7  and  C_32
REMARK    5  A    between atoms: C_8  and  C_9
REMARK    6  A    between atoms: N_11  and  C_12
REMARK    7  A    between atoms: C_12  and  C_13
REMARK    8  A    between atoms: C_13  and  C_15
REMARK    9  A    between atoms: C_13  and  N_21
REMARK                            x       y       z     vdW  Elec       q    Type
REMARK                         _______ _______ _______ _____ _____    ______ ____
ROOT
ATOM      1  C   UNL     1       3.685  -0.740  -0.112  0.00  0.00    +0.054 C 
ENDROOT
BRANCH   1   5
ATOM      2  C   UNL     1      -0.100   0.907   0.987  0.00  0.00    +0.000 A 
ATOM      3  C   UNL     1       0.325  -0.283   1.547  0.00  0.00    +0.000 A 
ATOM      4  C   UNL     1       1.550  -0.816   1.192  0.00  0.00    +0.005 A 
ATOM      5  C   UNL     1       2.350  -0.159   0.275  0.00  0.00    -0.032 A 
ATOM      6  C   UNL     1       1.924   1.031  -0.286  0.00  0.00    +0.005 A 
ATOM      7  C   UNL     1       0.700   1.564   0.071  0.00  0.00    +0.000 A 
ENDBRANCH   1   5
BRANCH   1   8
ATOM      8  C   UNL     1       4.280   0.072  -1.234  0.00  0.00    -0.032 A 
ATOM      9  C   UNL     1       5.529   0.644  -1.087  0.00  0.00    +0.005 A 
ATOM     10  C   UNL     1       6.074   1.389  -2.116  0.00  0.00    +0.000 A 
ATOM     11  C   UNL     1       5.370   1.560  -3.293  0.00  0.00    +0.000 A 
ATOM     12  C   UNL     1       4.121   0.986  -3.441  0.00  0.00    +0.000 A 
ATOM     13  C   UNL     1       3.578   0.238  -2.413  0.00  0.00    +0.005 A 
ENDBRANCH   1   8
BRANCH   1  14
ATOM     14  C   UNL     1       4.611  -0.706   1.077  0.00  0.00    -0.032 A 
ATOM     15  C   UNL     1       5.074  -1.887   1.627  0.00  0.00    +0.005 A 
ATOM     16  C   UNL     1       5.923  -1.856   2.717  0.00  0.00    +0.000 A 
ATOM     17  C   UNL     1       6.309  -0.644   3.258  0.00  0.00    +0.000 A 
ATOM     18  C   UNL     1       5.847   0.537   2.708  0.00  0.00    +0.000 A 
ATOM     19  C   UNL     1       5.002   0.506   1.615  0.00  0.00    +0.005 A 
ENDBRANCH   1  14
BRANCH   1  20
ATOM     20  C   UNL     1       3.499  -2.187  -0.572  0.00  0.00    +0.116 C 
BRANCH  20  21
ATOM     21  C   UNL     1       4.834  -2.767  -0.959  0.00  0.00    +0.214 C 
ATOM     22  O   UNL     1       5.837  -2.090  -0.875  0.00  0.00    -0.276 OA
ATOM     23  N   UNL     1       4.915  -4.039  -1.398  0.00  0.00    -0.316 N 
ATOM     24  H   UNL     1       4.113  -4.580  -1.465  0.00  0.00    +0.149 HD
BRANCH  23  25
ATOM     25  C   UNL     1       6.213  -4.603  -1.774  0.00  0.00    +0.093 C 
BRANCH  25  26
ATOM     26  C   UNL     1       6.047  -6.086  -2.111  0.00  0.00    -0.019 C 
BRANCH  26  27
ATOM     27  C   UNL     1       5.601  -6.834  -0.881  0.00  0.00    -0.041 A 
ATOM     28  C   UNL     1       4.267  -7.172  -0.709  0.00  0.00    +0.005 A 
ATOM     29  C   UNL     1       3.903  -7.860   0.438  0.00  0.00    +0.020 A 
ATOM     30  C   UNL     1       4.875  -8.183   1.366  0.00  0.00    +0.111 A 
ATOM     31  N   UNL     1       6.135  -7.845   1.170  0.00  0.00    -0.263 NA
ATOM     32  C   UNL     1       6.518  -7.196   0.088  0.00  0.00    +0.112 A 
ENDBRANCH  26  27
BRANCH  26  33
ATOM     33  N   UNL     1       7.329  -6.630  -2.577  0.00  0.00    +0.385 N 
ATOM     34  C   UNL     1       7.150  -8.022  -3.062  0.00  0.00    -0.078 C 
ATOM     35  C   UNL     1       8.368  -8.232  -3.997  0.00  0.00    -0.020 C 
ATOM     36  C   UNL     1       8.520  -6.854  -4.681  0.00  0.00    -0.020 C 
ATOM     37  C   UNL     1       7.819  -5.857  -3.739  0.00  0.00    -0.078 C 
ATOM     38  H   UNL     1       8.009  -6.605  -1.831  0.00  0.00    -0.081 HD
ENDBRANCH  26  33
ENDBRANCH  25  26
ENDBRANCH  23  25
ENDBRANCH  20  21
ENDBRANCH   1  20
TORSDOF 9
