REMARK  Name = ZINC00677770
REMARK  14 active torsions:
REMARK  status: ('A' for Active; 'I' for Inactive)
REMARK    1  A    between atoms: C_1  and  C_2
REMARK    2  A    between atoms: C_2  and  N_3
REMARK    3  A    between atoms: N_3  and  C_4
REMARK    4  A    between atoms: N_3  and  C_6
REMARK    5  A    between atoms: C_4  and  C_5
REMARK    6  A    between atoms: C_9  and  C_12
REMARK    7  A    between atoms: C_19  and  C_37
REMARK    8  A    between atoms: C_20  and  C_33
REMARK    9  A    between atoms: C_21  and  C_23
REMARK   10  A    between atoms: C_26  and  O_29
REMARK   11  A    between atoms: O_29  and  C_30
REMARK   12  A    between atoms: C_30  and  C_32
REMARK   13  A    between atoms: C_33  and  O_35
REMARK   14  A    between atoms: O_35  and  C_36
REMARK                            x       y       z     vdW  Elec       q    Type
REMARK                         _______ _______ _______ _____ _____    ______ ____
ROOT
ATOM      1  C   UNL     1      -4.586   2.756  -4.192  0.00  0.00    +0.028 C 
ATOM      2  C   UNL     1      -4.491   2.529  -2.856  0.00  0.00    +0.081 A 
ATOM      3  C   UNL     1      -3.343   2.063  -2.068  0.00  0.00    +0.268 A 
ATOM      4  O   UNL     1      -2.276   1.817  -2.600  0.00  0.00    -0.266 OA
ATOM      5  N   UNL     1      -3.505   1.917  -0.746  0.00  0.00    -0.275 N 
ATOM      6  C   UNL     1      -4.731   2.209  -0.195  0.00  0.00    +0.178 A 
ATOM      7  N   UNL     1      -5.005   2.103   1.081  0.00  0.00    -0.228 NA
ATOM      8  C   UNL     1      -4.145   1.705   2.010  0.00  0.00    +0.053 C 
ATOM      9  C   UNL     1      -2.865   1.365   1.672  0.00  0.00    +0.085 C 
ATOM     10  C   UNL     1      -2.465   1.458   0.217  0.00  0.00    +0.162 C 
ATOM     11  C   UNL     1      -4.584   1.625   3.449  0.00  0.00    +0.066 C 
ATOM     12  S   UNL     1      -5.728   2.717  -1.582  0.00  0.00    -0.046 S 
ENDROOT
BRANCH   1  16
ATOM     13  C   UNL     1      -1.437   1.584  -6.769  0.00  0.00    +0.030 A 
ATOM     14  C   UNL     1      -1.790   0.775  -5.692  0.00  0.00    +0.024 A 
ATOM     15  C   UNL     1      -2.809   1.150  -4.855  0.00  0.00    +0.010 A 
ATOM     16  C   UNL     1      -3.495   2.350  -5.085  0.00  0.00    -0.024 A 
ATOM     17  C   UNL     1      -3.140   3.158  -6.173  0.00  0.00    +0.010 A 
ATOM     18  C   UNL     1      -2.115   2.777  -7.001  0.00  0.00    +0.024 A 
BRANCH  13  19
ATOM     19  N   UNL     1      -0.402   1.199  -7.616  0.00  0.00    -0.330 N 
BRANCH  19  21
ATOM     20  C   UNL     1       1.046   3.044  -8.309  0.00  0.00    +0.024 C 
ATOM     21  C   UNL     1      -0.028   2.048  -8.750  0.00  0.00    +0.102 C 
ENDBRANCH  19  21
BRANCH  19  22
ATOM     22  C   UNL     1       0.315  -0.056  -7.374  0.00  0.00    +0.102 C 
ATOM     23  C   UNL     1      -0.381  -1.193  -8.125  0.00  0.00    +0.024 C 
ENDBRANCH  19  22
ENDBRANCH  13  19
ENDBRANCH   1  16
BRANCH  10  24
ATOM     24  C   UNL     1      -1.293   2.401   0.118  0.00  0.00    -0.020 A 
ATOM     25  C   UNL     1      -0.004   1.900   0.091  0.00  0.00    +0.009 A 
ATOM     26  C   UNL     1       1.071   2.762  -0.006  0.00  0.00    +0.047 A 
ATOM     27  C   UNL     1       0.857   4.131  -0.070  0.00  0.00    +0.132 A 
ATOM     28  C   UNL     1      -0.436   4.631  -0.036  0.00  0.00    +0.047 A 
ATOM     29  C   UNL     1      -1.508   3.765   0.061  0.00  0.00    +0.009 A 
BRANCH  27  30
ATOM     30  O   UNL     1       1.914   4.981  -0.166  0.00  0.00    -0.426 OA
BRANCH  30  31
ATOM     31  C   UNL     1       2.647   4.918  -1.288  0.00  0.00    +0.309 C 
ATOM     32  O   UNL     1       2.303   4.197  -2.195  0.00  0.00    -0.251 OA
ATOM     33  C   UNL     1       3.899   5.746  -1.418  0.00  0.00    +0.136 C 
ENDBRANCH  30  31
ENDBRANCH  27  30
ENDBRANCH  10  24
BRANCH   9  34
ATOM     34  C   UNL     1      -1.948   0.942   2.648  0.00  0.00    +0.339 C 
ATOM     35  O   UNL     1      -2.309   0.802   3.803  0.00  0.00    -0.245 OA
BRANCH  34  36
ATOM     36  O   UNL     1      -0.665   0.692   2.306  0.00  0.00    -0.465 OA
ATOM     37  C   UNL     1       0.213   0.265   3.350  0.00  0.00    +0.280 C 
ENDBRANCH  34  36
ENDBRANCH   9  34
TORSDOF 9
