REMARK  Name = ZINC08582537
REMARK  16 active torsions:
REMARK  status: ('A' for Active; 'I' for Inactive)
REMARK    1  A    between atoms: C_1  and  C_2
REMARK    2  A    between atoms: C_2  and  C_3
REMARK    3  A    between atoms: C_3  and  C_4
REMARK    4  A    between atoms: C_4  and  C_6
REMARK    5  A    between atoms: C_4  and  N_71
REMARK    6  A    between atoms: N_10  and  C_11
REMARK    7  A    between atoms: C_11  and  C_12
REMARK    8  A    between atoms: C_12  and  O_14
REMARK    9  A    between atoms: O_14  and  C_15
REMARK   10  A    between atoms: C_15  and  C_16
REMARK   11  A    between atoms: C_17  and  C_18
REMARK   12  A    between atoms: C_17  and  N_71
REMARK   13  A    between atoms: C_21  and  C_30
REMARK   14  A    between atoms: C_23  and  C_29
REMARK   15  A    between atoms: C_27  and  O_28
REMARK   16  A    between atoms: C_31  and  N_71
REMARK                            x       y       z     vdW  Elec       q    Type
REMARK                         _______ _______ _______ _____ _____    ______ ____
ROOT
ATOM      1  N   UNL     1      -3.777   2.673  -0.058  0.00  0.00    +0.391 N 
ATOM      2  H   UNL     1      -3.359   3.565  -0.348  0.00  0.00    -0.080 HD
ENDROOT
BRANCH   1   3
ATOM      3  C   UNL     1      -4.588   2.896   1.157  0.00  0.00    -0.067 C 
ATOM      4  C   UNL     1      -5.949   3.512   0.774  0.00  0.00    -0.015 C 
ATOM      5  C   UNL     1      -6.234   4.535   1.902  0.00  0.00    -0.002 C 
ATOM      6  C   UNL     1      -4.832   5.128   2.189  0.00  0.00    -0.002 C 
ATOM      7  C   UNL     1      -3.877   3.923   2.057  0.00  0.00    -0.015 C 
ENDBRANCH   1   3
BRANCH   1   8
ATOM      8  C   UNL     1      -2.696   1.706   0.225  0.00  0.00    +0.003 C 
BRANCH   8   9
ATOM      9  C   UNL     1      -1.501   2.461   0.746  0.00  0.00    +0.139 A 
ATOM     10  N   UNL     1      -1.353   2.958   1.949  0.00  0.00    -0.115 NA
ATOM     11  N   UNL     1      -0.201   3.533   2.003  0.00  0.00    -0.023 NA
ATOM     12  N   UNL     1       0.392   3.410   0.868  0.00  0.00    -0.043 NA
ATOM     13  N   UNL     1      -0.376   2.752   0.067  0.00  0.00    -0.220 N 
BRANCH  13  14
ATOM     14  C   UNL     1      -0.082   2.394  -1.323  0.00  0.00    +0.267 C 
BRANCH  14  15
ATOM     15  C   UNL     1       0.606   1.053  -1.362  0.00  0.00    +0.329 C 
ATOM     16  O   UNL     1       0.827   0.458  -0.334  0.00  0.00    -0.249 OA
BRANCH  15  17
ATOM     17  O   UNL     1       0.972   0.521  -2.539  0.00  0.00    -0.464 OA
BRANCH  17  18
ATOM     18  C   UNL     1       1.629  -0.773  -2.500  0.00  0.00    +0.229 C 
ATOM     19  C   UNL     1       1.970  -1.215  -3.925  0.00  0.00    +0.048 C 
ENDBRANCH  17  18
ENDBRANCH  15  17
ENDBRANCH  14  15
ENDBRANCH  13  14
ENDBRANCH   8   9
BRANCH   8  20
ATOM     20  C   UNL     1      -3.153   0.688   1.272  0.00  0.00    -0.008 C 
BRANCH  20  22
ATOM     21  C   UNL     1      -4.703  -1.223   1.707  0.00  0.00    +0.004 C 
ATOM     22  C   UNL     1      -4.352  -0.095   0.734  0.00  0.00    -0.005 C 
ENDBRANCH  20  22
ENDBRANCH   8  20
ENDBRANCH   1   8
BRANCH   1  23
ATOM     23  C   UNL     1      -4.635   2.167  -1.151  0.00  0.00    -0.036 C 
BRANCH  23  24
ATOM     24  C   UNL     1      -3.895   2.318  -2.455  0.00  0.00    -0.002 A 
ATOM     25  C   UNL     1      -3.239   1.252  -2.995  0.00  0.00    +0.017 A 
ATOM     26  C   UNL     1      -2.563   1.434  -4.218  0.00  0.00    +0.004 A 
ATOM     27  C   UNL     1      -1.871   0.378  -4.833  0.00  0.00    -0.041 A 
ATOM     28  C   UNL     1      -1.225   0.593  -6.012  0.00  0.00    +0.007 A 
ATOM     29  C   UNL     1      -1.242   1.848  -6.618  0.00  0.00    -0.048 A 
ATOM     30  C   UNL     1      -1.903   2.893  -6.049  0.00  0.00    +0.031 A 
ATOM     31  C   UNL     1      -2.582   2.710  -4.832  0.00  0.00    +0.075 A 
ATOM     32  N   UNL     1      -3.239   3.720  -4.251  0.00  0.00    -0.213 NA
ATOM     33  C   UNL     1      -3.876   3.554  -3.112  0.00  0.00    +0.214 A 
ATOM     34  C   UNL     1      -0.517   2.051  -7.923  0.00  0.00    +0.044 C 
ATOM     35  C   UNL     1      -1.842  -0.985  -4.190  0.00  0.00    +0.044 C 
BRANCH  33  36
ATOM     36  O   UNL     1      -4.529   4.606  -2.560  0.00  0.00    -0.492 OA
ATOM     37  H   UNL     1      -3.967   5.180  -2.022  0.00  0.00    +0.294 HD
ENDBRANCH  33  36
ENDBRANCH  23  24
ENDBRANCH   1  23
TORSDOF 12
