REMARK  Name = ZINC15519180
REMARK  12 active torsions:
REMARK  status: ('A' for Active; 'I' for Inactive)
REMARK    1  A    between atoms: C_1  and  C_2
REMARK    2  A    between atoms: C_2  and  O_3
REMARK    3  A    between atoms: O_3  and  C_4
REMARK    4  A    between atoms: C_7  and  S_23
REMARK    5  A    between atoms: C_9  and  N_10
REMARK    6  A    between atoms: C_11  and  C_13
REMARK    7  A    between atoms: C_13  and  N_63
REMARK    8  A    between atoms: C_14  and  C_15
REMARK    9  A    between atoms: C_14  and  N_63
REMARK   10  A    between atoms: C_17  and  C_18
REMARK   11  A    between atoms: C_17  and  N_63
REMARK   12  A    between atoms: S_23  and  N_26
REMARK                            x       y       z     vdW  Elec       q    Type
REMARK                         _______ _______ _______ _____ _____    ______ ____
ROOT
ATOM      1  C   UNL     1       4.529  -1.327  -2.802  0.00  0.00    +0.142 A 
ATOM      2  C   UNL     1       3.545  -2.081  -2.183  0.00  0.00    +0.049 A 
ATOM      3  C   UNL     1       3.135  -1.764  -0.902  0.00  0.00    +0.032 A 
ATOM      4  C   UNL     1       3.696  -0.689  -0.238  0.00  0.00    +0.107 A 
ATOM      5  C   UNL     1       4.679   0.068  -0.848  0.00  0.00    +0.055 A 
ATOM      6  C   UNL     1       5.099  -0.247  -2.132  0.00  0.00    +0.077 A 
ENDROOT
BRANCH   6   7
ATOM      7  N   UNL     1       6.095   0.519  -2.753  0.00  0.00    -0.284 N 
ATOM      8  C   UNL     1       6.976   1.212  -2.005  0.00  0.00    +0.201 C 
ATOM      9  O   UNL     1       6.970   1.097  -0.798  0.00  0.00    -0.278 OA
ATOM     10  H   UNL     1       6.150   0.550  -3.721  0.00  0.00    +0.155 HD
BRANCH   8  11
ATOM     11  C   UNL     1       7.969   2.131  -2.669  0.00  0.00    +0.020 C 
BRANCH  11  12
ATOM     12  N   UNL     1       8.793   2.776  -1.626  0.00  0.00    +0.391 N 
ATOM     13  H   UNL     1       8.174   3.196  -0.923  0.00  0.00    -0.080 HD
BRANCH  12  14
ATOM     14  C   UNL     1       9.653   1.770  -0.968  0.00  0.00    -0.051 C 
BRANCH  14  15
ATOM     15  C   UNL     1      10.629   1.182  -1.954  0.00  0.00    -0.053 C 
ATOM     16  C   UNL     1      11.913   1.201  -1.696  0.00  0.00    +0.002 C 
ENDBRANCH  14  15
ENDBRANCH  12  14
BRANCH  12  17
ATOM     17  C   UNL     1       9.627   3.839  -2.226  0.00  0.00    -0.035 C 
BRANCH  17  18
ATOM     18  C   UNL     1      10.180   4.702  -1.122  0.00  0.00    -0.027 A 
ATOM     19  C   UNL     1      11.383   4.628  -0.501  0.00  0.00    +0.009 A 
ATOM     20  C   UNL     1      11.680   5.540   0.495  0.00  0.00    +0.008 A 
ATOM     21  C   UNL     1      10.756   6.474   0.828  0.00  0.00    +0.045 A 
ATOM     22  S   UNL     1       9.418   6.084  -0.287  0.00  0.00    -0.103 S 
ENDBRANCH  17  18
ENDBRANCH  12  17
ENDBRANCH  11  12
ENDBRANCH   8  11
ENDBRANCH   6   7
BRANCH   4  23
ATOM     23  S   UNL     1       3.163  -0.287   1.393  0.00  0.00    +0.061 S 
ATOM     24  O   UNL     1       4.231   0.422   2.006  0.00  0.00    -0.153 OA
ATOM     25  O   UNL     1       2.622  -1.478   1.948  0.00  0.00    -0.153 OA
BRANCH  23  26
ATOM     26  N   UNL     1       1.907   0.781   1.248  0.00  0.00    -0.177 NA
ATOM     27  C   UNL     1       0.522   0.299   1.153  0.00  0.00    +0.109 C 
ATOM     28  C   UNL     1      -0.126   0.904  -0.097  0.00  0.00    +0.017 C 
ATOM     29  C   UNL     1       0.007   2.428  -0.049  0.00  0.00    +0.003 C 
ATOM     30  C   UNL     1       1.489   2.812  -0.039  0.00  0.00    +0.017 C 
ATOM     31  C   UNL     1       2.155   2.228   1.211  0.00  0.00    +0.109 C 
ENDBRANCH  23  26
ENDBRANCH   4  23
BRANCH   1  32
ATOM     32  O   UNL     1       4.937  -1.641  -4.061  0.00  0.00    -0.490 OA
BRANCH  32  34
ATOM     33  C   UNL     1       4.893  -2.957  -6.087  0.00  0.00    +0.048 C 
ATOM     34  C   UNL     1       4.309  -2.761  -4.687  0.00  0.00    +0.226 C 
ENDBRANCH  32  34
ENDBRANCH   1  32
TORSDOF 11
