REMARK  Name = ZINC09043467
REMARK  10 active torsions:
REMARK  status: ('A' for Active; 'I' for Inactive)
REMARK    1  A    between atoms: C_1  and  C_2
REMARK    2  A    between atoms: C_5  and  N_9
REMARK    3  A    between atoms: C_6  and  C_8
REMARK    4  A    between atoms: C_10  and  C_12
REMARK    5  A    between atoms: C_13  and  C_35
REMARK    6  A    between atoms: N_19  and  C_22
REMARK    7  A    between atoms: C_22  and  C_23
REMARK    8  A    between atoms: C_23  and  O_25
REMARK    9  A    between atoms: O_25  and  C_26
REMARK   10  A    between atoms: C_31  and  C_34
REMARK                            x       y       z     vdW  Elec       q    Type
REMARK                         _______ _______ _______ _____ _____    ______ ____
ROOT
ATOM      1  C   UNL     1      -7.998   6.757  -5.029  0.00  0.00    +0.080 A 
ATOM      2  C   UNL     1      -6.750   6.395  -4.612  0.00  0.00    -0.017 A 
ATOM      3  C   UNL     1      -6.516   6.145  -3.258  0.00  0.00    +0.076 A 
ATOM      4  C   UNL     1      -7.631   6.293  -2.402  0.00  0.00    +0.116 A 
ATOM      5  S   UNL     1      -8.935   6.766  -3.510  0.00  0.00    -0.064 S 
ATOM      6  N   UNL     1      -7.542   6.085  -1.095  0.00  0.00    -0.230 NA
ATOM      7  C   UNL     1      -6.418   5.733  -0.532  0.00  0.00    +0.203 A 
ATOM      8  N   UNL     1      -5.281   5.560  -1.250  0.00  0.00    -0.288 N 
ATOM      9  C   UNL     1      -5.258   5.749  -2.584  0.00  0.00    +0.263 A 
ATOM     10  O   UNL     1      -4.230   5.595  -3.219  0.00  0.00    -0.267 OA
ATOM     11  C   UNL     1      -5.628   6.265  -5.610  0.00  0.00    +0.046 C 
ENDROOT
BRANCH   1  13
ATOM     12  N   UNL     1      -9.741   7.404  -6.606  0.00  0.00    -0.281 N 
ATOM     13  C   UNL     1      -8.456   7.061  -6.388  0.00  0.00    +0.255 C 
ATOM     14  O   UNL     1      -7.675   7.005  -7.320  0.00  0.00    -0.269 OA
ATOM     15  H   UNL     1     -10.381   7.371  -5.878  0.00  0.00    +0.155 HD
BRANCH  12  20
ATOM     16  C   UNL     1     -11.406   9.034 -11.777  0.00  0.00    +0.044 C 
ATOM     17  C   UNL     1     -10.963   8.601 -10.403  0.00  0.00    -0.050 A 
ATOM     18  C   UNL     1      -9.640   8.742 -10.028  0.00  0.00    +0.005 A 
ATOM     19  C   UNL     1      -9.231   8.346  -8.770  0.00  0.00    +0.024 A 
ATOM     20  C   UNL     1     -10.151   7.806  -7.880  0.00  0.00    +0.037 A 
ATOM     21  C   UNL     1     -11.479   7.660  -8.262  0.00  0.00    -0.029 A 
ATOM     22  C   UNL     1     -11.882   8.063  -9.521  0.00  0.00    +0.008 A 
ATOM     23  C   UNL     1     -12.479   7.068  -7.303  0.00  0.00    +0.045 C 
ENDBRANCH  12  20
ENDBRANCH   1  13
BRANCH   8  24
ATOM     24  C   UNL     1      -4.051   5.163  -0.560  0.00  0.00    +0.246 C 
BRANCH  24  25
ATOM     25  C   UNL     1      -3.961   3.660  -0.518  0.00  0.00    +0.327 C 
ATOM     26  O   UNL     1      -4.834   2.988  -1.013  0.00  0.00    -0.249 OA
BRANCH  25  27
ATOM     27  O   UNL     1      -2.910   3.067   0.070  0.00  0.00    -0.460 OA
BRANCH  27  28
ATOM     28  C   UNL     1      -2.889   1.615   0.073  0.00  0.00    +0.177 C 
ATOM     29  C   UNL     1      -2.174   1.112  -1.183  0.00  0.00    +0.044 C 
ATOM     30  C   UNL     1      -0.739   1.643  -1.200  0.00  0.00    +0.004 C 
ATOM     31  C   UNL     1       0.003   1.147   0.042  0.00  0.00    +0.003 C 
ATOM     32  C   UNL     1      -0.711   1.649   1.298  0.00  0.00    -0.011 C 
ATOM     33  C   UNL     1      -2.146   1.119   1.316  0.00  0.00    +0.048 C 
ATOM     34  C   UNL     1       0.031   1.153   2.541  0.00  0.00    +0.007 C 
ENDBRANCH  27  28
ENDBRANCH  25  27
ENDBRANCH  24  25
ENDBRANCH   8  24
TORSDOF 6
