REMARK  Name = ZINC18118022
REMARK  6 active torsions:
REMARK  status: ('A' for Active; 'I' for Inactive)
REMARK    1  A    between atoms: C_1  and  C_2
REMARK    2  A    between atoms: C_5  and  N_9
REMARK    3  A    between atoms: C_6  and  C_8
REMARK    4  A    between atoms: C_15  and  C_24
REMARK    5  A    between atoms: C_15  and  C_25
REMARK    6  A    between atoms: C_21  and  C_23
REMARK                            x       y       z     vdW  Elec       q    Type
REMARK                         _______ _______ _______ _____ _____    ______ ____
ROOT
ATOM      1  N   UNL     1       0.059  -4.138  -0.021  0.00  0.00    -0.239 NA
ATOM      2  C   UNL     1       0.062  -4.796  -1.175  0.00  0.00    +0.117 A 
ATOM      3  C   UNL     1       0.154  -4.214  -2.474  0.00  0.00    +0.029 A 
ATOM      4  C   UNL     1       0.188  -4.900  -3.658  0.00  0.00    +0.030 A 
ATOM      5  S   UNL     1       0.053  -6.565  -3.456  0.00  0.00    -0.052 S 
ATOM      6  S   UNL     1      -0.040  -6.568  -1.377  0.00  0.00    -0.032 S 
ATOM      7  C   UNL     1       0.350  -4.237  -5.011  0.00  0.00    +0.059 C 
ATOM      8  N   UNL     1      -0.186  -2.873  -4.940  0.00  0.00    -0.334 N 
ATOM      9  C   UNL     1       0.071  -2.094  -3.808  0.00  0.00    +0.036 A 
ATOM     10  C   UNL     1       0.233  -2.706  -2.564  0.00  0.00    +0.006 A 
ATOM     11  C   UNL     1       0.467  -1.951  -1.426  0.00  0.00    +0.011 A 
ATOM     12  C   UNL     1       0.551  -0.573  -1.535  0.00  0.00    +0.004 A 
ATOM     13  C   UNL     1       0.402   0.037  -2.768  0.00  0.00    -0.049 A 
ATOM     14  C   UNL     1       0.163  -0.714  -3.905  0.00  0.00    +0.027 A 
ATOM     15  C   UNL     1       0.503   1.537  -2.873  0.00  0.00    +0.044 C 
ATOM     16  C   UNL     1      -0.416  -5.035  -6.068  0.00  0.00    +0.037 C 
ATOM     17  C   UNL     1       1.834  -4.186  -5.381  0.00  0.00    +0.037 C 
ATOM     18  H   UNL     1      -0.715  -2.516  -5.671  0.00  0.00    +0.147 HD
ENDROOT
BRANCH   1  23
ATOM     19  C   UNL     1      -3.686  -0.013   0.864  0.00  0.00    +0.044 C 
ATOM     20  C   UNL     1      -2.685  -1.115   0.628  0.00  0.00    -0.050 A 
ATOM     21  C   UNL     1      -2.775  -1.892  -0.514  0.00  0.00    +0.005 A 
ATOM     22  C   UNL     1      -1.863  -2.902  -0.738  0.00  0.00    +0.028 A 
ATOM     23  C   UNL     1      -0.846  -3.140   0.193  0.00  0.00    +0.068 A 
ATOM     24  C   UNL     1      -0.763  -2.350   1.344  0.00  0.00    -0.025 A 
ATOM     25  C   UNL     1      -1.679  -1.341   1.551  0.00  0.00    +0.008 A 
ATOM     26  C   UNL     1       0.328  -2.599   2.354  0.00  0.00    +0.046 C 
ENDBRANCH   1  23
TORSDOF 1
