REMARK  Name = ZINC35508438
REMARK  5 active torsions:
REMARK  status: ('A' for Active; 'I' for Inactive)
REMARK    1  A    between atoms: C_1  and  C_2
REMARK    2  A    between atoms: C_2  and  N_3
REMARK    3  A    between atoms: C_5  and  C_28
REMARK    4  A    between atoms: C_7  and  C_20
REMARK    5  A    between atoms: N_10  and  C_13
REMARK                            x       y       z     vdW  Elec       q    Type
REMARK                         _______ _______ _______ _____ _____    ______ ____
ROOT
ATOM      1  N   UNL     1      -1.472  -0.254   0.052  0.00  0.00    -0.289 N 
ATOM      2  C   UNL     1      -2.137  -0.763   1.153  0.00  0.00    +0.120 A 
ATOM      3  C   UNL     1      -1.819  -0.918   2.503  0.00  0.00    +0.155 A 
ATOM      4  N   UNL     1      -2.726  -1.465   3.313  0.00  0.00    -0.220 NA
ATOM      5  C   UNL     1      -3.904  -1.854   2.852  0.00  0.00    +0.166 A 
ATOM      6  N   UNL     1      -4.242  -1.723   1.575  0.00  0.00    -0.207 NA
ATOM      7  C   UNL     1      -3.401  -1.190   0.706  0.00  0.00    +0.170 A 
ATOM      8  N   UNL     1      -3.451  -0.923  -0.650  0.00  0.00    -0.245 N 
ATOM      9  C   UNL     1      -2.285  -0.358  -1.018  0.00  0.00    +0.336 A 
ATOM     10  O   UNL     1      -2.007   0.003  -2.145  0.00  0.00    -0.246 OA
ENDROOT
BRANCH   5  11
ATOM     11  C   UNL     1      -4.878  -2.456   3.793  0.00  0.00    +0.057 A 
ATOM     12  C   UNL     1      -6.125  -2.880   3.334  0.00  0.00    +0.052 A 
ATOM     13  C   UNL     1      -7.029  -3.441   4.216  0.00  0.00    +0.124 A 
ATOM     14  C   UNL     1      -6.699  -3.582   5.554  0.00  0.00    +0.041 A 
ATOM     15  C   UNL     1      -5.465  -3.164   6.016  0.00  0.00    +0.042 A 
ATOM     16  C   UNL     1      -4.550  -2.607   5.141  0.00  0.00    +0.134 A 
ATOM     17  F   UNL     1      -3.342  -2.204   5.592  0.00  0.00    -0.205 F 
ATOM     18  F   UNL     1      -8.237  -3.852   3.772  0.00  0.00    -0.205 F 
ENDBRANCH   5  11
BRANCH   8  19
ATOM     19  C   UNL     1      -4.535  -1.191  -1.499  0.00  0.00    +0.053 A 
ATOM     20  C   UNL     1      -5.689  -1.770  -0.990  0.00  0.00    +0.029 A 
ATOM     21  C   UNL     1      -6.756  -2.033  -1.827  0.00  0.00    +0.040 A 
ATOM     22  C   UNL     1      -6.675  -1.720  -3.173  0.00  0.00    +0.124 A 
ATOM     23  C   UNL     1      -5.524  -1.143  -3.683  0.00  0.00    +0.040 A 
ATOM     24  C   UNL     1      -4.457  -0.873  -2.848  0.00  0.00    +0.029 A 
ATOM     25  F   UNL     1      -7.719  -1.978  -3.990  0.00  0.00    -0.205 F 
ENDBRANCH   8  19
BRANCH   3  26
ATOM     26  C   UNL     1      -0.502  -0.485   3.025  0.00  0.00    +0.262 C 
ATOM     27  O   UNL     1       0.487  -1.159   2.813  0.00  0.00    -0.269 OA
ATOM     28  N   UNL     1      -0.400   0.656   3.734  0.00  0.00    -0.324 N 
ATOM     29  H   UNL     1      -1.190   1.195   3.903  0.00  0.00    +0.145 HD
ATOM     30  H   UNL     1       0.462   0.940   4.076  0.00  0.00    +0.145 HD
ENDBRANCH   3  26
BRANCH   1  32
ATOM     31  C   UNL     1      -0.181   1.791   0.412  0.00  0.00    +0.027 C 
ATOM     32  C   UNL     1      -0.119   0.306   0.050  0.00  0.00    +0.124 C 
ENDBRANCH   1  32
TORSDOF 4
