REMARK  Name = ZINC66744618
REMARK  10 active torsions:
REMARK  status: ('A' for Active; 'I' for Inactive)
REMARK    1  A    between atoms: C_1  and  C_2
REMARK    2  A    between atoms: N_4  and  C_5
REMARK    3  A    between atoms: C_13  and  C_16
REMARK    4  A    between atoms: C_17  and  C_18
REMARK    5  A    between atoms: N_20  and  C_21
REMARK    6  A    between atoms: C_21  and  C_22
REMARK    7  A    between atoms: C_21  and  C_23
REMARK    8  A    between atoms: C_21  and  C_24
REMARK    9  A    between atoms: C_24  and  O_25
REMARK   10  A    between atoms: O_25  and  C_26
REMARK                            x       y       z     vdW  Elec       q    Type
REMARK                         _______ _______ _______ _____ _____    ______ ____
ROOT
ATOM      1  C   UNL     1       0.721  -0.762   1.097  0.00  0.00    +0.110 C 
ATOM      2  C   UNL     1       0.019  -0.008  -0.003  0.00  0.00    +0.223 C 
ATOM      3  O   UNL     1      -0.085   1.198   0.059  0.00  0.00    -0.275 OA
ATOM      4  N   UNL     1      -0.493  -0.675  -1.057  0.00  0.00    -0.219 N 
ATOM      5  C   UNL     1      -1.037   0.027  -2.126  0.00  0.00    +0.172 A 
ATOM      6  N   UNL     1      -1.219   1.325  -2.261  0.00  0.00    -0.225 NA
ATOM      7  C   UNL     1      -1.761   1.836  -3.368  0.00  0.00    +0.073 A 
ATOM      8  C   UNL     1      -2.134   0.982  -4.382  0.00  0.00    +0.076 A 
ATOM      9  S   UNL     1      -1.664  -0.593  -3.680  0.00  0.00    -0.059 S 
ENDROOT
BRANCH   4  10
ATOM     10  C   UNL     1      -0.478  -2.076  -1.074  0.00  0.00    +0.043 A 
ATOM     11  C   UNL     1       0.298  -2.752  -2.006  0.00  0.00    +0.024 A 
ATOM     12  C   UNL     1       0.311  -4.133  -2.021  0.00  0.00    +0.002 A 
ATOM     13  C   UNL     1      -0.448  -4.842  -1.108  0.00  0.00    +0.000 A 
ATOM     14  C   UNL     1      -1.222  -4.172  -0.178  0.00  0.00    +0.002 A 
ATOM     15  C   UNL     1      -1.234  -2.791  -0.155  0.00  0.00    +0.024 A 
ENDBRANCH   4  10
BRANCH   7  16
ATOM     16  C   UNL     1      -1.958   3.283  -3.502  0.00  0.00    +0.033 C 
ATOM     17  C   UNL     1      -1.587   4.111  -2.498  0.00  0.00    +0.069 C 
BRANCH  17  18
ATOM     18  C   UNL     1      -1.777   5.509  -2.627  0.00  0.00    +0.237 C 
ATOM     19  O   UNL     1      -2.273   5.965  -3.642  0.00  0.00    -0.271 OA
ATOM     20  N   UNL     1      -1.408   6.334  -1.628  0.00  0.00    -0.305 N 
ATOM     21  H   UNL     1      -1.013   5.971  -0.820  0.00  0.00    +0.150 HD
BRANCH  20  22
ATOM     22  C   UNL     1      -1.604   7.780  -1.761  0.00  0.00    +0.052 C 
ATOM     23  C   UNL     1      -0.820   8.291  -2.971  0.00  0.00    +0.033 C 
ATOM     24  C   UNL     1      -3.092   8.077  -1.956  0.00  0.00    +0.033 C 
BRANCH  22  25
ATOM     25  C   UNL     1      -1.105   8.481  -0.496  0.00  0.00    +0.184 C 
BRANCH  25  26
ATOM     26  O   UNL     1      -1.296   9.892  -0.627  0.00  0.00    -0.381 OA
ATOM     27  C   UNL     1      -0.861  10.645   0.507  0.00  0.00    +0.194 C 
ENDBRANCH  25  26
ENDBRANCH  22  25
ENDBRANCH  20  22
ENDBRANCH  17  18
ENDBRANCH   7  16
TORSDOF 6
