REMARK  Name = ZINC08636639
REMARK  6 active torsions:
REMARK  status: ('A' for Active; 'I' for Inactive)
REMARK    1  A    between atoms: C_4  and  C_7
REMARK    2  A    between atoms: N_8  and  N_9
REMARK    3  A    between atoms: C_10  and  C_12
REMARK    4  A    between atoms: C_13  and  N_34
REMARK    5  A    between atoms: C_15  and  C_28
REMARK    6  A    between atoms: C_17  and  C_21
REMARK                            x       y       z     vdW  Elec       q    Type
REMARK                         _______ _______ _______ _____ _____    ______ ____
ROOT
ATOM      1  C   UNL     1      -2.233  -4.173   0.001  0.00  0.00    +0.215 A 
ATOM      2  C   UNL     1      -3.348  -4.989   0.007  0.00  0.00    +0.086 A 
ATOM      3  C   UNL     1      -2.836  -6.360  -0.005  0.00  0.00    +0.069 A 
ATOM      4  C   UNL     1      -3.439  -7.632  -0.006  0.00  0.00    -0.002 A 
ATOM      5  C   UNL     1      -2.607  -8.748  -0.019  0.00  0.00    +0.037 A 
ATOM      6  C   UNL     1      -1.225  -8.562  -0.032  0.00  0.00    +0.075 A 
ATOM      7  N   UNL     1      -0.689  -7.349  -0.031  0.00  0.00    -0.212 NA
ATOM      8  C   UNL     1      -1.433  -6.253  -0.018  0.00  0.00    +0.231 A 
ATOM      9  O   UNL     1      -1.119  -4.942  -0.020  0.00  0.00    -0.430 OA
ENDROOT
BRANCH   6  10
ATOM     10  C   UNL     1      -0.334  -9.746  -0.047  0.00  0.00    +0.001 A 
ATOM     11  C   UNL     1      -0.877 -11.030  -0.043  0.00  0.00    +0.011 A 
ATOM     12  C   UNL     1      -0.044 -12.130  -0.062  0.00  0.00    +0.020 A 
ATOM     13  C   UNL     1       1.330 -11.960  -0.074  0.00  0.00    +0.041 A 
ATOM     14  C   UNL     1       1.875 -10.687  -0.073  0.00  0.00    +0.020 A 
ATOM     15  C   UNL     1       1.050  -9.581  -0.059  0.00  0.00    +0.011 A 
ATOM     16 CL   UNL     1       2.373 -13.347  -0.090  0.00  0.00    -0.084 Cl
ENDBRANCH   6  10
BRANCH   4  17
ATOM     17  C   UNL     1      -4.913  -7.779   0.007  0.00  0.00    -0.017 A 
ATOM     18  C   UNL     1      -5.678  -7.086   0.945  0.00  0.00    +0.008 A 
ATOM     19  C   UNL     1      -7.051  -7.222   0.948  0.00  0.00    +0.001 A 
ATOM     20  C   UNL     1      -7.669  -8.053   0.031  0.00  0.00    +0.000 A 
ATOM     21  C   UNL     1      -6.915  -8.747  -0.899  0.00  0.00    +0.001 A 
ATOM     22  C   UNL     1      -5.542  -8.615  -0.916  0.00  0.00    +0.008 A 
ENDBRANCH   4  17
BRANCH   1  24
ATOM     23  N   UNL     1      -1.094  -2.069   0.001  0.00  0.00    -0.200 N 
ATOM     24  C   UNL     1      -2.252  -2.759   0.009  0.00  0.00    +0.300 C 
ATOM     25  O   UNL     1      -3.315  -2.164   0.022  0.00  0.00    -0.265 OA
ATOM     26  H   UNL     1      -0.247  -2.543  -0.009  0.00  0.00    +0.178 HD
BRANCH  23  28
ATOM     27  C   UNL     1       0.002  -0.004   0.002  0.00  0.00    +0.138 C 
ATOM     28  N   UNL     1      -1.113  -0.668   0.009  0.00  0.00    -0.187 NA
BRANCH  27  32
ATOM     29  C   UNL     1      -0.056   4.240   0.026  0.00  0.00    +0.000 A 
ATOM     30  C   UNL     1       1.154   3.568   0.010  0.00  0.00    +0.001 A 
ATOM     31  C   UNL     1       1.180   2.189   0.003  0.00  0.00    +0.009 A 
ATOM     32  C   UNL     1      -0.018   1.470   0.010  0.00  0.00    -0.005 A 
ATOM     33  C   UNL     1      -1.235   2.156   0.020  0.00  0.00    +0.009 A 
ATOM     34  C   UNL     1      -1.246   3.535   0.034  0.00  0.00    +0.001 A 
ENDBRANCH  27  32
ENDBRANCH  23  28
ENDBRANCH   1  24
BRANCH   2  35
ATOM     35  N   UNL     1      -4.676  -4.591   0.022  0.00  0.00    -0.354 N 
ATOM     36  H   UNL     1      -4.899  -3.647   0.029  0.00  0.00    +0.142 HD
ATOM     37  H   UNL     1      -5.381  -5.257   0.025  0.00  0.00    +0.142 HD
ENDBRANCH   2  35
TORSDOF 6
