REMARK  Name = ZINC39897279
REMARK  10 active torsions:
REMARK  status: ('A' for Active; 'I' for Inactive)
REMARK    1  A    between atoms: C_1  and  C_2
REMARK    2  A    between atoms: C_2  and  C_3
REMARK    3  A    between atoms: C_6  and  N_9
REMARK    4  A    between atoms: C_12  and  C_29
REMARK    5  A    between atoms: C_16  and  C_17
REMARK    6  A    between atoms: C_16  and  C_19
REMARK    7  A    between atoms: N_21  and  C_22
REMARK    8  A    between atoms: C_25  and  C_28
REMARK    9  A    between atoms: C_29  and  C_30
REMARK   10  A    between atoms: C_35  and  C_36
REMARK                            x       y       z     vdW  Elec       q    Type
REMARK                         _______ _______ _______ _____ _____    ______ ____
ROOT
ATOM      1  N   UNL     1       3.107  -1.096   4.565  0.00  0.00    -0.232 N 
ATOM      2  C   UNL     1       4.398  -0.833   4.667  0.00  0.00    +0.238 C 
ATOM      3  O   UNL     1       5.024  -0.319   3.765  0.00  0.00    -0.274 OA
ATOM      4  C   UNL     1       5.048  -1.217   5.987  0.00  0.00    +0.143 C 
ATOM      5  S   UNL     1       3.596  -1.919   6.874  0.00  0.00    -0.095 S 
ATOM      6  C   UNL     1       2.386  -1.673   5.583  0.00  0.00    +0.098 C 
ATOM      7  C   UNL     1       1.028  -1.994   5.602  0.00  0.00    +0.142 C 
ENDROOT
BRANCH   1  11
ATOM      8  C   UNL     1       1.137  -0.120   1.024  0.00  0.00    -0.048 A 
ATOM      9  C   UNL     1       1.353  -1.446   1.350  0.00  0.00    +0.005 A 
ATOM     10  C   UNL     1       2.006  -1.773   2.523  0.00  0.00    +0.024 A 
ATOM     11  C   UNL     1       2.445  -0.768   3.374  0.00  0.00    +0.042 A 
ATOM     12  C   UNL     1       2.227   0.563   3.044  0.00  0.00    +0.024 A 
ATOM     13  C   UNL     1       1.578   0.883   1.867  0.00  0.00    +0.005 A 
BRANCH   8  15
ATOM     14  C   UNL     1       1.455   0.493  -1.358  0.00  0.00    +0.009 C 
ATOM     15  C   UNL     1       0.425   0.233  -0.257  0.00  0.00    +0.032 C 
ENDBRANCH   8  15
ENDBRANCH   1  11
BRANCH   7  16
ATOM     16  C   UNL     1       0.162  -1.577   4.500  0.00  0.00    +0.261 C 
ATOM     17  O   UNL     1      -0.153  -2.377   3.637  0.00  0.00    -0.269 OA
ATOM     18  N   UNL     1      -0.287  -0.308   4.439  0.00  0.00    -0.281 N 
ATOM     19  H   UNL     1       0.019   0.347   5.086  0.00  0.00    +0.155 HD
BRANCH  18  20
ATOM     20  C   UNL     1      -1.194   0.066   3.442  0.00  0.00    +0.034 A 
ATOM     21  C   UNL     1      -2.093  -0.863   2.936  0.00  0.00    +0.023 A 
ATOM     22  C   UNL     1      -2.988  -0.491   1.952  0.00  0.00    +0.005 A 
ATOM     23  C   UNL     1      -2.989   0.805   1.470  0.00  0.00    -0.050 A 
ATOM     24  C   UNL     1      -2.095   1.733   1.972  0.00  0.00    +0.005 A 
ATOM     25  C   UNL     1      -1.201   1.369   2.960  0.00  0.00    +0.023 A 
ATOM     26  C   UNL     1      -3.966   1.208   0.396  0.00  0.00    +0.044 C 
ENDBRANCH  18  20
ENDBRANCH   7  16
BRANCH   7  27
ATOM     27  C   UNL     1       0.482  -2.732   6.702  0.00  0.00    +0.107 C 
ATOM     28  N   UNL     1       0.050  -3.317   7.574  0.00  0.00    -0.191 NA
ENDBRANCH   7  27
BRANCH   4  29
ATOM     29  C   UNL     1       5.601   0.013   6.711  0.00  0.00    +0.059 C 
BRANCH  29  30
ATOM     30  C   UNL     1       6.341  -0.424   7.949  0.00  0.00    -0.043 A 
ATOM     31  C   UNL     1       5.692  -0.449   9.170  0.00  0.00    +0.004 A 
ATOM     32  C   UNL     1       6.371  -0.850  10.305  0.00  0.00    +0.000 A 
ATOM     33  C   UNL     1       7.699  -1.226  10.220  0.00  0.00    +0.000 A 
ATOM     34  C   UNL     1       8.347  -1.201   8.999  0.00  0.00    +0.003 A 
ATOM     35  C   UNL     1       7.667  -0.805   7.863  0.00  0.00    -0.047 A 
ATOM     36  C   UNL     1       8.372  -0.783   6.531  0.00  0.00    +0.044 C 
ENDBRANCH  29  30
ENDBRANCH   4  29
TORSDOF 7
