REMARK  Name = ZINC01984162
REMARK  11 active torsions:
REMARK  status: ('A' for Active; 'I' for Inactive)
REMARK    1  A    between atoms: C_1  and  C_2
REMARK    2  A    between atoms: C_2  and  O_3
REMARK    3  A    between atoms: O_3  and  C_4
REMARK    4  A    between atoms: C_4  and  C_6
REMARK    5  A    between atoms: C_10  and  N_11
REMARK    6  A    between atoms: C_12  and  C_14
REMARK    7  A    between atoms: C_14  and  O_15
REMARK    8  A    between atoms: O_15  and  C_16
REMARK    9  A    between atoms: C_18  and  C_25
REMARK   10  A    between atoms: C_20  and  C_23
REMARK   11  A    between atoms: C_27  and  C_31
REMARK                            x       y       z     vdW  Elec       q    Type
REMARK                         _______ _______ _______ _____ _____    ______ ____
ROOT
ATOM      1  N   UNL     1      -1.119   2.575   0.022  0.00  0.00    -0.277 N 
ATOM      2  C   UNL     1      -2.365   2.062   0.026  0.00  0.00    +0.255 C 
ATOM      3  O   UNL     1      -2.527   0.860   0.020  0.00  0.00    -0.272 OA
ATOM      4  H   UNL     1      -0.973   3.665   0.026  0.00  0.00    +0.155 HD
ENDROOT
BRANCH   1   9
ATOM      5  C   UNL     1       1.326   2.063   0.001  0.00  0.00    +0.091 A 
ATOM      6  C   UNL     1       2.288   0.973  -0.015  0.00  0.00    -0.021 A 
ATOM      7  C   UNL     1       1.753  -0.266  -0.017  0.00  0.00    -0.004 A 
ATOM      8  S   UNL     1       0.002  -0.004   0.002  0.00  0.00    -0.077 S 
ATOM      9  C   UNL     1      -0.021   1.728   0.011  0.00  0.00    +0.086 A 
ATOM     10  C   UNL     1       2.491  -1.569  -0.032  0.00  0.00    +0.046 C 
ATOM     11  C   UNL     1       3.950  -1.293  -0.424  0.00  0.00    -0.009 C 
ATOM     12  C   UNL     1       4.473  -0.123   0.415  0.00  0.00    +0.008 C 
ATOM     13  C   UNL     1       3.798   1.176  -0.027  0.00  0.00    +0.037 C 
ATOM     14  C   UNL     1       4.798  -2.538  -0.153  0.00  0.00    +0.008 C 
BRANCH   5  15
ATOM     15  C   UNL     1       1.762   3.461   0.003  0.00  0.00    +0.342 C 
ATOM     16  O   UNL     1       1.954   4.036   1.058  0.00  0.00    -0.245 OA
BRANCH  15  17
ATOM     17  O   UNL     1       1.951   4.111  -1.163  0.00  0.00    -0.461 OA
BRANCH  17  19
ATOM     18  C   UNL     1       2.544   6.060  -2.497  0.00  0.00    +0.048 C 
ATOM     19  C   UNL     1       2.384   5.495  -1.085  0.00  0.00    +0.229 C 
ENDBRANCH  17  19
ENDBRANCH  15  17
ENDBRANCH   5  15
ENDBRANCH   1   9
BRANCH   2  20
ATOM     20  C   UNL     1      -3.559   2.982   0.037  0.00  0.00    +0.325 C 
BRANCH  20  21
ATOM     21  O   UNL     1      -4.759   2.207   0.039  0.00  0.00    -0.482 OA
BRANCH  21  22
ATOM     22  C   UNL     1      -5.935   2.889   0.049  0.00  0.00    +0.136 A 
ATOM     23  C   UNL     1      -5.933   4.276   0.056  0.00  0.00    +0.051 A 
ATOM     24  C   UNL     1      -7.129   4.967   0.065  0.00  0.00    -0.028 A 
ATOM     25  C   UNL     1      -8.328   4.277   0.068  0.00  0.00    +0.048 A 
ATOM     26  C   UNL     1      -8.333   2.893   0.060  0.00  0.00    -0.014 A 
ATOM     27  C   UNL     1      -7.138   2.198   0.046  0.00  0.00    +0.064 A 
ATOM     28 BR   UNL     1      -7.145   0.307   0.029  0.00  0.00    -0.046 Br
ATOM     29  C   UNL     1      -9.641   2.145   0.063  0.00  0.00    +0.046 C 
ATOM     30 CL   UNL     1      -9.830   5.149   0.080  0.00  0.00    -0.083 Cl
ATOM     31  C   UNL     1      -7.127   6.474   0.073  0.00  0.00    +0.045 C 
ENDBRANCH  21  22
ENDBRANCH  20  21
ENDBRANCH   2  20
TORSDOF 7
