REMARK  Name = ZINC13064556
REMARK  13 active torsions:
REMARK  status: ('A' for Active; 'I' for Inactive)
REMARK    1  A    between atoms: C_1  and  C_2
REMARK    2  A    between atoms: C_2  and  C_3
REMARK    3  A    between atoms: C_3  and  C_5
REMARK    4  A    between atoms: C_3  and  N_68
REMARK    5  A    between atoms: N_9  and  C_10
REMARK    6  A    between atoms: C_10  and  C_11
REMARK    7  A    between atoms: C_10  and  C_12
REMARK    8  A    between atoms: C_10  and  C_13
REMARK    9  A    between atoms: C_14  and  C_15
REMARK   10  A    between atoms: C_14  and  N_68
REMARK   11  A    between atoms: C_19  and  C_28
REMARK   12  A    between atoms: C_20  and  C_27
REMARK   13  A    between atoms: C_29  and  N_68
REMARK                            x       y       z     vdW  Elec       q    Type
REMARK                         _______ _______ _______ _____ _____    ______ ____
ROOT
ATOM      1  N   UNL     1      -5.714   4.055  -0.517  0.00  0.00    +0.391 N 
ATOM      2  H   UNL     1      -5.467   3.092  -0.775  0.00  0.00    -0.080 HD
ENDROOT
BRANCH   1   3
ATOM      3  C   UNL     1      -4.636   4.963  -0.962  0.00  0.00    -0.067 C 
ATOM      4  C   UNL     1      -4.684   5.115  -2.496  0.00  0.00    -0.015 C 
ATOM      5  C   UNL     1      -3.194   5.156  -2.919  0.00  0.00    -0.002 C 
ATOM      6  C   UNL     1      -2.538   4.129  -1.964  0.00  0.00    -0.002 C 
ATOM      7  C   UNL     1      -3.272   4.336  -0.623  0.00  0.00    -0.015 C 
ENDBRANCH   1   3
BRANCH   1   8
ATOM      8  C   UNL     1      -6.986   4.417  -1.179  0.00  0.00    +0.003 C 
BRANCH   8   9
ATOM      9  C   UNL     1      -7.479   5.750  -0.679  0.00  0.00    +0.139 A 
ATOM     10  N   UNL     1      -7.313   6.247   0.523  0.00  0.00    -0.115 NA
ATOM     11  N   UNL     1      -7.877   7.404   0.557  0.00  0.00    -0.023 NA
ATOM     12  N   UNL     1      -8.406   7.656  -0.590  0.00  0.00    -0.043 NA
ATOM     13  N   UNL     1      -8.182   6.660  -1.379  0.00  0.00    -0.226 N 
BRANCH  13  14
ATOM     14  C   UNL     1      -8.612   6.543  -2.774  0.00  0.00    +0.059 C 
ATOM     15  C   UNL     1      -9.356   5.220  -2.969  0.00  0.00    +0.036 C 
ATOM     16  C   UNL     1      -9.543   7.707  -3.121  0.00  0.00    +0.036 C 
ATOM     17  C   UNL     1      -7.387   6.578  -3.690  0.00  0.00    +0.036 C 
ENDBRANCH  13  14
ENDBRANCH   8   9
BRANCH   8  19
ATOM     18  C   UNL     1      -7.594   2.016  -1.504  0.00  0.00    +0.002 C 
ATOM     19  C   UNL     1      -8.027   3.340  -0.871  0.00  0.00    -0.011 C 
ENDBRANCH   8  19
ENDBRANCH   1   8
BRANCH   1  20
ATOM     20  C   UNL     1      -5.868   4.134   0.951  0.00  0.00    -0.036 C 
BRANCH  20  21
ATOM     21  C   UNL     1      -4.749   3.359   1.597  0.00  0.00    +0.001 A 
ATOM     22  C   UNL     1      -3.662   4.014   2.075  0.00  0.00    +0.017 A 
ATOM     23  C   UNL     1      -2.591   3.233   2.697  0.00  0.00    -0.001 A 
ATOM     24  C   UNL     1      -1.446   3.852   3.207  0.00  0.00    +0.013 A 
ATOM     25  C   UNL     1      -0.465   3.094   3.781  0.00  0.00    -0.047 A 
ATOM     26  C   UNL     1      -0.595   1.714   3.863  0.00  0.00    -0.046 A 
ATOM     27  C   UNL     1      -1.715   1.083   3.366  0.00  0.00    +0.030 A 
ATOM     28  C   UNL     1      -2.724   1.833   2.772  0.00  0.00    +0.049 A 
ATOM     29  N   UNL     1      -3.858   1.228   2.272  0.00  0.00    -0.322 N 
ATOM     30  H   UNL     1      -3.949   0.264   2.329  0.00  0.00    +0.169 HD
ATOM     31  C   UNL     1      -4.835   1.955   1.702  0.00  0.00    +0.251 A 
ATOM     32  O   UNL     1      -5.821   1.386   1.266  0.00  0.00    -0.268 OA
ATOM     33  C   UNL     1       0.499   0.898   4.501  0.00  0.00    +0.044 C 
ATOM     34  C   UNL     1       0.769   3.762   4.331  0.00  0.00    +0.044 C 
ENDBRANCH  20  21
ENDBRANCH   1  20
TORSDOF 7
