REMARK  Name = ZINC14967897
REMARK  9 active torsions:
REMARK  status: ('A' for Active; 'I' for Inactive)
REMARK    1  A    between atoms: C_1  and  C_2
REMARK    2  A    between atoms: C_2  and  C_33
REMARK    3  A    between atoms: N_8  and  C_9
REMARK    4  A    between atoms: C_12  and  O_15
REMARK    5  A    between atoms: O_15  and  C_16
REMARK    6  A    between atoms: C_17  and  N_63
REMARK    7  A    between atoms: C_20  and  C_21
REMARK    8  A    between atoms: C_20  and  N_63
REMARK    9  A    between atoms: C_24  and  N_27
REMARK                            x       y       z     vdW  Elec       q    Type
REMARK                         _______ _______ _______ _____ _____    ______ ____
ROOT
ATOM      1  C   UNL     1       5.366   1.946  -0.446  0.00  0.00    +0.011 C 
ATOM      2  C   UNL     1       3.841   1.845  -0.528  0.00  0.00    -0.031 C 
ATOM      3  C   UNL     1       3.384   0.509   0.070  0.00  0.00    +0.062 C 
ATOM      4  C   UNL     1       1.882   0.538   0.206  0.00  0.00    +0.047 A 
ATOM      5  C   UNL     1       1.134   1.671   0.156  0.00  0.00    -0.020 A 
ATOM      6  C   UNL     1      -0.203   1.311   0.313  0.00  0.00    +0.137 A 
ATOM      7  N   UNL     1      -0.261   0.008   0.454  0.00  0.00    -0.174 NA
ATOM      8  N   UNL     1       1.046  -0.500   0.390  0.00  0.00    -0.237 N 
ATOM      9  C   UNL     1       1.706   3.054  -0.034  0.00  0.00    -0.037 C 
ATOM     10  C   UNL     1       3.211   2.999   0.256  0.00  0.00    -0.005 C 
ATOM     11  C   UNL     1       3.404   1.925  -1.992  0.00  0.00    +0.011 C 
ENDROOT
BRANCH   8  12
ATOM     12  C   UNL     1       1.414  -1.849   0.497  0.00  0.00    +0.066 A 
ATOM     13  C   UNL     1       0.660  -2.828  -0.137  0.00  0.00    +0.031 A 
ATOM     14  C   UNL     1       1.026  -4.155  -0.034  0.00  0.00    +0.048 A 
ATOM     15  C   UNL     1       2.140  -4.512   0.711  0.00  0.00    +0.120 A 
ATOM     16  C   UNL     1       2.891  -3.535   1.349  0.00  0.00    +0.048 A 
ATOM     17  C   UNL     1       2.529  -2.207   1.243  0.00  0.00    +0.031 A 
BRANCH  15  18
ATOM     18  O   UNL     1       2.497  -5.820   0.816  0.00  0.00    -0.495 OA
ATOM     19  C   UNL     1       1.679  -6.772   0.133  0.00  0.00    +0.277 C 
ENDBRANCH  15  18
ENDBRANCH   8  12
BRANCH   9  20
ATOM     20  N   UNL     1       1.060   3.992   0.903  0.00  0.00    +0.386 N 
ATOM     21  H   UNL     1       1.700   4.771   1.097  0.00  0.00    -0.085 HD
ATOM     22  H   UNL     1       0.843   3.501   1.778  0.00  0.00    -0.085 HD
BRANCH  20  23
ATOM     23  C   UNL     1      -0.188   4.521   0.320  0.00  0.00    -0.046 C 
BRANCH  23  24
ATOM     24  C   UNL     1      -0.824   5.475   1.298  0.00  0.00    -0.064 A 
ATOM     25  C   UNL     1      -1.732   5.005   2.229  0.00  0.00    +0.003 A 
ATOM     26  C   UNL     1      -2.313   5.876   3.129  0.00  0.00    +0.024 A 
ATOM     27  C   UNL     1      -1.993   7.227   3.092  0.00  0.00    +0.038 A 
ATOM     28  C   UNL     1      -1.084   7.697   2.153  0.00  0.00    +0.024 A 
ATOM     29  C   UNL     1      -0.503   6.819   1.258  0.00  0.00    +0.003 A 
BRANCH  27  30
ATOM     30  N   UNL     1      -2.584   8.113   4.000  0.00  0.00    -0.254 N 
ATOM     31  C   UNL     1      -3.469   7.731   5.110  0.00  0.00    +0.134 C 
ATOM     32  C   UNL     1      -3.825   9.073   5.778  0.00  0.00    +0.125 C 
ATOM     33  N   UNL     1      -3.110  10.070   4.968  0.00  0.00    -0.297 N 
ATOM     34  C   UNL     1      -2.439   9.444   3.991  0.00  0.00    +0.307 C 
ATOM     35  O   UNL     1      -1.760  10.032   3.172  0.00  0.00    -0.252 OA
ATOM     36  H   UNL     1      -3.122  11.028   5.116  0.00  0.00    +0.150 HD
ENDBRANCH  27  30
ENDBRANCH  23  24
ENDBRANCH  20  23
ENDBRANCH   9  20
TORSDOF 6
