REMARK  Name = ZINC09361417
REMARK  2 active torsions:
REMARK  status: ('A' for Active; 'I' for Inactive)
REMARK    1  A    between atoms: C_3  and  N_10
REMARK    2  A    between atoms: C_5  and  N_7
REMARK                            x       y       z     vdW  Elec       q    Type
REMARK                         _______ _______ _______ _____ _____    ______ ____
ROOT
ATOM      1  N   UNL     1      -2.430   1.039   0.019  0.00  0.00    -0.210 N 
ATOM      2  C   UNL     1      -2.481  -0.293  -0.092  0.00  0.00    +0.228 C 
ATOM      3  O   UNL     1      -1.520  -1.024  -0.204  0.00  0.00    -0.275 OA
ATOM      4  C   UNL     1      -3.923  -0.746  -0.050  0.00  0.00    +0.074 C 
ATOM      5  C   UNL     1      -4.330  -1.289  -1.449  0.00  0.00    -0.054 C 
ATOM      6  C   UNL     1      -4.641  -2.793  -1.332  0.00  0.00    -0.016 C 
ATOM      7  C   UNL     1      -6.151  -2.880  -1.037  0.00  0.00    -0.020 C 
ATOM      8  C   UNL     1      -6.633  -1.417  -0.969  0.00  0.00    -0.076 C 
ATOM      9  C   UNL     1      -5.520   0.717  -1.202  0.00  0.00    +0.053 C 
ATOM     10  C   UNL     1      -4.712   0.584   0.094  0.00  0.00    +0.089 C 
ATOM     11  C   UNL     1      -3.624   1.633   0.126  0.00  0.00    +0.229 C 
ATOM     12  O   UNL     1      -3.805   2.827   0.233  0.00  0.00    -0.275 OA
ATOM     13  C   UNL     1      -4.851   1.649  -2.173  0.00  0.00    -0.026 A 
ATOM     14  C   UNL     1      -3.621   1.649  -2.792  0.00  0.00    +0.019 A 
ATOM     15  C   UNL     1      -3.281   2.674  -3.658  0.00  0.00    +0.018 A 
ATOM     16  C   UNL     1      -4.181   3.697  -3.900  0.00  0.00    +0.017 A 
ATOM     17  C   UNL     1      -5.414   3.700  -3.283  0.00  0.00    +0.024 A 
ATOM     18  C   UNL     1      -5.763   2.672  -2.410  0.00  0.00    +0.036 A 
ATOM     19  N   UNL     1      -6.933   2.455  -1.678  0.00  0.00    -0.286 N 
ATOM     20  C   UNL     1      -6.871   1.328  -0.943  0.00  0.00    +0.212 C 
ATOM     21  O   UNL     1      -7.736   0.890  -0.214  0.00  0.00    -0.277 OA
ATOM     22 BR   UNL     1      -1.591   2.676  -4.508  0.00  0.00    -0.050 Br
ATOM     23  H   UNL     1      -7.701   3.047  -1.696  0.00  0.00    +0.155 HD
ATOM     24  N   UNL     1      -5.606  -0.662  -1.707  0.00  0.00    +0.395 N 
ATOM     25  H   UNL     1      -5.819  -0.662  -2.711  0.00  0.00    -0.079 HD
ENDROOT
BRANCH   1  28
ATOM     26  C   UNL     1       0.754   2.488  -1.122  0.00  0.00    +0.004 A 
ATOM     27  C   UNL     1      -0.436   1.787  -1.125  0.00  0.00    +0.024 A 
ATOM     28  C   UNL     1      -1.224   1.754   0.017  0.00  0.00    +0.046 A 
ATOM     29  C   UNL     1      -0.818   2.436   1.157  0.00  0.00    +0.056 A 
ATOM     30  C   UNL     1       0.373   3.135   1.154  0.00  0.00    +0.128 A 
ATOM     31  C   UNL     1       1.159   3.161   0.016  0.00  0.00    +0.033 A 
BRANCH  30  32
ATOM     32  N   UNL     1       0.810   3.857   2.370  0.00  0.00    +0.056 N 
ATOM     33  O   UNL     1       0.119   3.834   3.373  0.00  0.00    -0.126 OA
ATOM     34  O   UNL     1       1.860   4.473   2.368  0.00  0.00    -0.126 OA
ENDBRANCH  30  32
ENDBRANCH   1  28
TORSDOF 2
