REMARK  Name = ZINC03457441
REMARK  8 active torsions:
REMARK  status: ('A' for Active; 'I' for Inactive)
REMARK    1  A    between atoms: C_1  and  C_2
REMARK    2  A    between atoms: N_10  and  C_14
REMARK    3  A    between atoms: C_14  and  C_15
REMARK    4  A    between atoms: N_17  and  C_18
REMARK    5  A    between atoms: C_23  and  C_24
REMARK    6  A    between atoms: N_26  and  C_27
REMARK    7  A    between atoms: C_27  and  C_29
REMARK    8  A    between atoms: C_27  and  C_30
REMARK                            x       y       z     vdW  Elec       q    Type
REMARK                         _______ _______ _______ _____ _____    ______ ____
ROOT
ATOM      1  C   UNL     1      -3.779  -0.793  -0.364  0.00  0.00    +0.235 C 
ATOM      2  O   UNL     1      -4.789  -0.146  -0.541  0.00  0.00    -0.274 OA
ATOM      3  N   UNL     1      -2.602  -0.166  -0.172  0.00  0.00    -0.284 N 
ATOM      4  H   UNL     1      -1.783  -0.682  -0.107  0.00  0.00    +0.155 HD
ENDROOT
BRANCH   3   5
ATOM      5  C   UNL     1      -2.562   1.222  -0.066  0.00  0.00    +0.046 A 
ATOM      6  C   UNL     1      -3.602   1.906   0.548  0.00  0.00    +0.024 A 
ATOM      7  C   UNL     1      -3.560   3.281   0.652  0.00  0.00    +0.002 A 
ATOM      8  C   UNL     1      -2.482   3.990   0.147  0.00  0.00    +0.001 A 
ATOM      9  C   UNL     1      -1.438   3.328  -0.462  0.00  0.00    +0.015 A 
ATOM     10  C   UNL     1      -1.469   1.936  -0.579  0.00  0.00    +0.058 A 
BRANCH  10  11
ATOM     11  C   UNL     1      -0.356   1.222  -1.233  0.00  0.00    +0.246 C 
ATOM     12  O   UNL     1      -0.341   0.006  -1.250  0.00  0.00    -0.270 OA
ATOM     13  N   UNL     1       0.640   1.917  -1.817  0.00  0.00    -0.305 N 
ATOM     14  H   UNL     1       0.627   2.886  -1.804  0.00  0.00    +0.150 HD
BRANCH  13  15
ATOM     15  C   UNL     1       1.742   1.207  -2.472  0.00  0.00    +0.100 C 
ATOM     16  C   UNL     1       1.342   0.858  -3.907  0.00  0.00    +0.033 C 
BRANCH  15  17
ATOM     17  C   UNL     1       2.965   2.087  -2.492  0.00  0.00    -0.027 A 
ATOM     18  C   UNL     1       2.840   3.439  -2.756  0.00  0.00    +0.005 A 
ATOM     19  C   UNL     1       3.961   4.247  -2.769  0.00  0.00    +0.000 A 
ATOM     20  C   UNL     1       5.209   3.702  -2.529  0.00  0.00    +0.000 A 
ATOM     21  C   UNL     1       5.334   2.350  -2.271  0.00  0.00    +0.000 A 
ATOM     22  C   UNL     1       4.212   1.543  -2.253  0.00  0.00    +0.005 A 
ENDBRANCH  15  17
ENDBRANCH  13  15
ENDBRANCH  10  11
ENDBRANCH   3   5
BRANCH   1  23
ATOM     23  C   UNL     1      -3.840  -2.299  -0.360  0.00  0.00    +0.214 C 
BRANCH  23  33
ATOM     24  C   UNL     1     -11.263  -4.667  -2.178  0.00  0.00    +0.007 C 
ATOM     25  C   UNL     1      -9.819  -4.245  -2.459  0.00  0.00    -0.014 C 
ATOM     26  C   UNL     1      -9.586  -2.833  -1.918  0.00  0.00    +0.006 C 
ATOM     27  C   UNL     1      -8.145  -2.407  -2.211  0.00  0.00    +0.035 C 
ATOM     28  C   UNL     1      -7.179  -3.387  -1.553  0.00  0.00    +0.113 C 
ATOM     29  C   UNL     1      -7.416  -4.804  -2.064  0.00  0.00    +0.035 C 
ATOM     30  C   UNL     1      -8.860  -5.220  -1.772  0.00  0.00    +0.006 C 
ATOM     31  C   UNL     1      -5.750  -2.968  -1.808  0.00  0.00    +0.247 C 
ATOM     32  O   UNL     1      -5.195  -2.864  -2.881  0.00  0.00    -0.273 OA
ATOM     33  N   UNL     1      -5.221  -2.732  -0.589  0.00  0.00    -0.215 N 
ATOM     34  C   UNL     1      -6.113  -2.950   0.386  0.00  0.00    +0.310 C 
ATOM     35  O   UNL     1      -5.869  -2.810   1.568  0.00  0.00    -0.252 OA
ATOM     36  N   UNL     1      -7.311  -3.338  -0.092  0.00  0.00    -0.285 N 
ATOM     37  H   UNL     1      -8.103  -3.547   0.428  0.00  0.00    +0.151 HD
ENDBRANCH  23  33
ENDBRANCH   1  23
TORSDOF 6
