REMARK  Name = ZINC12657874
REMARK  10 active torsions:
REMARK  status: ('A' for Active; 'I' for Inactive)
REMARK    1  A    between atoms: C_1  and  O_2
REMARK    2  A    between atoms: O_2  and  C_3
REMARK    3  A    between atoms: C_6  and  C_9
REMARK    4  A    between atoms: C_10  and  C_11
REMARK    5  A    between atoms: C_10  and  N_22
REMARK    6  A    between atoms: N_13  and  C_14
REMARK    7  A    between atoms: C_17  and  O_20
REMARK    8  A    between atoms: O_20  and  C_21
REMARK    9  A    between atoms: C_23  and  C_25
REMARK   10  A    between atoms: C_26  and  C_27
REMARK                            x       y       z     vdW  Elec       q    Type
REMARK                         _______ _______ _______ _____ _____    ______ ____
ROOT
ATOM      1  C   UNL     1       3.492  -4.862  -0.228  0.00  0.00    +0.036 C 
ATOM      2  C   UNL     1       2.288  -4.244  -0.168  0.00  0.00    +0.097 C 
ENDROOT
BRANCH   1   6
ATOM      3  C   UNL     1       3.715  -9.094  -0.058  0.00  0.00    +0.120 A 
ATOM      4  C   UNL     1       4.751  -8.368  -0.634  0.00  0.00    +0.046 A 
ATOM      5  C   UNL     1       4.684  -6.994  -0.692  0.00  0.00    +0.011 A 
ATOM      6  C   UNL     1       3.569  -6.328  -0.170  0.00  0.00    -0.023 A 
ATOM      7  C   UNL     1       2.531  -7.063   0.414  0.00  0.00    +0.011 A 
ATOM      8  C   UNL     1       2.606  -8.437   0.462  0.00  0.00    +0.046 A 
BRANCH   3  10
ATOM      9  C   UNL     1       2.688 -11.133   0.601  0.00  0.00    +0.277 C 
ATOM     10  O   UNL     1       3.787 -10.449  -0.004  0.00  0.00    -0.495 OA
ENDBRANCH   3  10
ENDBRANCH   1   6
BRANCH   2  11
ATOM     11  C   UNL     1       2.218  -2.780  -0.074  0.00  0.00    +0.262 C 
ATOM     12  O   UNL     1       3.241  -2.122  -0.052  0.00  0.00    -0.268 OA
ATOM     13  N   UNL     1       1.020  -2.165  -0.014  0.00  0.00    -0.280 N 
ATOM     14  H   UNL     1       0.207  -2.692   0.040  0.00  0.00    +0.155 HD
BRANCH  13  15
ATOM     15  C   UNL     1       0.949  -0.767  -0.028  0.00  0.00    +0.034 A 
ATOM     16  C   UNL     1       1.929  -0.029  -0.678  0.00  0.00    +0.027 A 
ATOM     17  C   UNL     1       1.859   1.350  -0.692  0.00  0.00    +0.047 A 
ATOM     18  C   UNL     1       0.809   1.998  -0.057  0.00  0.00    +0.120 A 
ATOM     19  C   UNL     1      -0.171   1.261   0.592  0.00  0.00    +0.047 A 
ATOM     20  C   UNL     1      -0.101  -0.118   0.607  0.00  0.00    +0.027 A 
BRANCH  18  21
ATOM     21  O   UNL     1       0.740   3.356  -0.072  0.00  0.00    -0.495 OA
ATOM     22  C   UNL     1      -0.368   3.956   0.602  0.00  0.00    +0.277 C 
ENDBRANCH  18  21
ENDBRANCH  13  15
ENDBRANCH   2  11
BRANCH   2  23
ATOM     23  N   UNL     1       1.112  -5.000  -0.193  0.00  0.00    -0.278 N 
ATOM     24  C   UNL     1       0.243  -4.929   0.834  0.00  0.00    +0.241 C 
ATOM     25  O   UNL     1       0.433  -4.137   1.740  0.00  0.00    -0.270 OA
ATOM     26  H   UNL     1       0.922  -5.576  -0.950  0.00  0.00    +0.155 HD
BRANCH  24  27
ATOM     27  C   UNL     1      -0.891  -5.775   0.862  0.00  0.00    +0.071 C 
ATOM     28  C   UNL     1      -1.820  -5.634   1.840  0.00  0.00    +0.051 C 
BRANCH  28  29
ATOM     29  C   UNL     1      -2.898  -6.548   1.931  0.00  0.00    +0.128 A 
ATOM     30  C   UNL     1      -3.905  -6.526   2.873  0.00  0.00    +0.049 A 
ATOM     31  C   UNL     1      -4.750  -7.607   2.580  0.00  0.00    +0.042 A 
ATOM     32  C   UNL     1      -4.233  -8.237   1.502  0.00  0.00    +0.195 A 
ATOM     33  O   UNL     1      -3.120  -7.598   1.114  0.00  0.00    -0.464 OA
ENDBRANCH  28  29
ENDBRANCH  24  27
ENDBRANCH   2  23
TORSDOF 8
