REMARK  Name = ZINC00720029
REMARK  11 active torsions:
REMARK  status: ('A' for Active; 'I' for Inactive)
REMARK    1  A    between atoms: C_1  and  C_2
REMARK    2  A    between atoms: C_2  and  O_3
REMARK    3  A    between atoms: O_3  and  C_4
REMARK    4  A    between atoms: C_7  and  C_10
REMARK    5  A    between atoms: C_15  and  C_20
REMARK    6  A    between atoms: C_22  and  O_30
REMARK    7  A    between atoms: C_23  and  O_28
REMARK    8  A    between atoms: C_24  and  O_26
REMARK    9  A    between atoms: O_26  and  C_27
REMARK   10  A    between atoms: O_28  and  C_29
REMARK   11  A    between atoms: O_30  and  C_31
REMARK                            x       y       z     vdW  Elec       q    Type
REMARK                         _______ _______ _______ _____ _____    ______ ____
ROOT
ATOM      1  C   UNL     1      -2.871   2.227   2.447  0.00  0.00    +0.136 C 
ATOM      2  C   UNL     1      -2.019   1.770   1.287  0.00  0.00    +0.036 C 
ATOM      3  C   UNL     1      -0.689   1.593   1.307  0.00  0.00    +0.017 C 
ATOM      4  C   UNL     1       0.049   1.119   0.067  0.00  0.00    +0.059 C 
ATOM      5  C   UNL     1      -0.658   1.630  -1.187  0.00  0.00    +0.032 C 
ATOM      6  C   UNL     1      -2.091   1.083  -1.170  0.00  0.00    +0.088 C 
ATOM      7  C   UNL     1      -2.752   1.520   0.103  0.00  0.00    +0.163 C 
ATOM      8  O   UNL     1      -3.958   1.665   0.118  0.00  0.00    -0.292 OA
ATOM      9  N   UNL     1       0.102   1.798   2.394  0.00  0.00    -0.316 N 
ATOM     10  C   UNL     1       0.042   2.910   3.225  0.00  0.00    +0.052 A 
ATOM     11  C   UNL     1       1.110   3.778   3.377  0.00  0.00    +0.025 A 
ATOM     12  C   UNL     1       1.026   4.800   4.307  0.00  0.00    +0.002 A 
ATOM     13  C   UNL     1      -0.115   4.953   5.075  0.00  0.00    +0.002 A 
ATOM     14  C   UNL     1      -1.192   4.100   4.907  0.00  0.00    +0.025 A 
ATOM     15  C   UNL     1      -1.118   3.087   3.964  0.00  0.00    +0.049 A 
ATOM     16  N   UNL     1      -2.193   2.233   3.726  0.00  0.00    -0.331 N 
ATOM     17  H   UNL     1       0.758   1.115   2.606  0.00  0.00    +0.152 HD
ATOM     18  H   UNL     1      -2.492   1.633   4.428  0.00  0.00    +0.147 HD
ENDROOT
BRANCH   1  22
ATOM     19  C   UNL     1      -4.254   6.187   1.631  0.00  0.00    +0.121 A 
ATOM     20  C   UNL     1      -2.897   5.942   1.778  0.00  0.00    +0.046 A 
ATOM     21  C   UNL     1      -2.452   4.661   2.042  0.00  0.00    +0.009 A 
ATOM     22  C   UNL     1      -3.358   3.624   2.159  0.00  0.00    -0.023 A 
ATOM     23  C   UNL     1      -4.712   3.864   2.008  0.00  0.00    +0.009 A 
ATOM     24  C   UNL     1      -5.162   5.145   1.750  0.00  0.00    +0.046 A 
BRANCH  19  25
ATOM     25  O   UNL     1      -4.694   7.447   1.372  0.00  0.00    -0.492 OA
BRANCH  25  27
ATOM     26  C   UNL     1      -6.407   9.097   0.947  0.00  0.00    +0.048 C 
ATOM     27  C   UNL     1      -6.105   7.625   1.233  0.00  0.00    +0.225 C 
ENDBRANCH  25  27
ENDBRANCH  19  25
ENDBRANCH   1  22
BRANCH   5  28
ATOM     28  C   UNL     1       0.062   1.138  -2.416  0.00  0.00    -0.036 A 
ATOM     29  C   UNL     1       0.198  -0.220  -2.638  0.00  0.00    +0.053 A 
ATOM     30  C   UNL     1       0.855  -0.677  -3.770  0.00  0.00    +0.165 A 
ATOM     31  C   UNL     1       1.387   0.232  -4.677  0.00  0.00    +0.204 A 
ATOM     32  C   UNL     1       1.253   1.596  -4.448  0.00  0.00    +0.165 A 
ATOM     33  C   UNL     1       0.589   2.045  -3.316  0.00  0.00    +0.053 A 
BRANCH  32  34
ATOM     34  O   UNL     1       1.772   2.489  -5.332  0.00  0.00    -0.491 OA
ATOM     35  C   UNL     1       1.596   3.876  -5.032  0.00  0.00    +0.277 C 
ENDBRANCH  32  34
BRANCH  31  36
ATOM     36  O   UNL     1       2.037  -0.213  -5.787  0.00  0.00    -0.488 OA
ATOM     37  C   UNL     1       3.446  -0.425  -5.672  0.00  0.00    +0.277 C 
ENDBRANCH  31  36
BRANCH  30  38
ATOM     38  O   UNL     1       0.983  -2.013  -3.990  0.00  0.00    -0.491 OA
ATOM     39  C   UNL     1       0.412  -2.889  -3.017  0.00  0.00    +0.277 C 
ENDBRANCH  30  38
ENDBRANCH   5  28
TORSDOF 7
