REMARK  Name = ZINC15051486
REMARK  6 active torsions:
REMARK  status: ('A' for Active; 'I' for Inactive)
REMARK    1  A    between atoms: C_1  and  C_2
REMARK    2  A    between atoms: C_7  and  N_8
REMARK    3  A    between atoms: C_9  and  C_11
REMARK    4  A    between atoms: C_11  and  N_12
REMARK    5  A    between atoms: C_16  and  C_17
REMARK    6  A    between atoms: C_22  and  O_23
REMARK                            x       y       z     vdW  Elec       q    Type
REMARK                         _______ _______ _______ _____ _____    ______ ____
ROOT
ATOM      1  N   UNL     1      -3.410  -2.494  -0.302  0.00  0.00    -0.212 N 
ATOM      2  C   UNL     1      -3.268  -3.171  -1.459  0.00  0.00    +0.269 C 
ATOM      3  O   UNL     1      -3.364  -2.721  -2.586  0.00  0.00    -0.268 OA
ATOM      4  C   UNL     1      -2.969  -4.562  -1.087  0.00  0.00    +0.098 C 
ATOM      5  C   UNL     1      -2.744  -5.609  -1.921  0.00  0.00    +0.040 C 
ATOM      6  N   UNL     1      -2.973  -4.576   0.315  0.00  0.00    -0.265 N 
ATOM      7  C   UNL     1      -3.239  -3.327   0.737  0.00  0.00    +0.314 C 
ATOM      8  O   UNL     1      -3.314  -2.996   1.904  0.00  0.00    -0.252 OA
ATOM      9  H   UNL     1      -2.812  -5.348   0.880  0.00  0.00    +0.157 HD
ENDROOT
BRANCH   5  10
ATOM     10  C   UNL     1      -2.625  -6.968  -1.378  0.00  0.00    +0.020 A 
ATOM     11  C   UNL     1      -3.248  -7.301  -0.169  0.00  0.00    +0.027 A 
ATOM     12  C   UNL     1      -3.137  -8.580   0.331  0.00  0.00    +0.020 A 
ATOM     13  C   UNL     1      -2.400  -9.536  -0.351  0.00  0.00    +0.034 A 
ATOM     14  C   UNL     1      -1.774  -9.220  -1.542  0.00  0.00    +0.061 A 
ATOM     15  C   UNL     1      -1.880  -7.940  -2.064  0.00  0.00    +0.138 A 
ATOM     16 BR   UNL     1      -0.772 -10.534  -2.460  0.00  0.00    -0.046 Br
ATOM     17 BR   UNL     1      -3.985  -9.030   1.960  0.00  0.00    -0.050 Br
BRANCH  15  18
ATOM     18  O   UNL     1      -1.266  -7.628  -3.234  0.00  0.00    -0.505 OA
ATOM     19  H   UNL     1      -0.364  -7.296  -3.129  0.00  0.00    +0.292 HD
ENDBRANCH  15  18
ENDBRANCH   5  10
BRANCH   1  20
ATOM     20  C   UNL     1      -3.713  -1.065  -0.194  0.00  0.00    +0.214 C 
BRANCH  20  22
ATOM     21  N   UNL     1      -2.459   1.063  -0.052  0.00  0.00    -0.284 N 
ATOM     22  C   UNL     1      -2.426  -0.281  -0.151  0.00  0.00    +0.235 C 
ATOM     23  O   UNL     1      -1.361  -0.859  -0.205  0.00  0.00    -0.274 OA
ATOM     24  H   UNL     1      -3.306   1.519   0.071  0.00  0.00    +0.155 HD
BRANCH  21  31
ATOM     25  C   UNL     1      -2.385   3.624   1.185  0.00  0.00    +0.045 C 
ATOM     26  C   UNL     1      -1.192   3.054   0.462  0.00  0.00    -0.029 A 
ATOM     27  C   UNL     1      -0.021   3.781   0.381  0.00  0.00    +0.005 A 
ATOM     28  C   UNL     1       1.074   3.258  -0.282  0.00  0.00    +0.000 A 
ATOM     29  C   UNL     1       1.001   2.006  -0.864  0.00  0.00    +0.002 A 
ATOM     30  C   UNL     1      -0.168   1.274  -0.787  0.00  0.00    +0.023 A 
ATOM     31  C   UNL     1      -1.272   1.799  -0.127  0.00  0.00    +0.036 A 
ENDBRANCH  21  31
ENDBRANCH  20  22
ENDBRANCH   1  20
TORSDOF 5
