REMARK  Name = ZINC20853049
REMARK  6 active torsions:
REMARK  status: ('A' for Active; 'I' for Inactive)
REMARK    1  A    between atoms: C_4  and  C_7
REMARK    2  A    between atoms: C_10  and  C_12
REMARK    3  A    between atoms: C_12  and  C_14
REMARK    4  A    between atoms: C_12  and  N_22
REMARK    5  A    between atoms: N_22  and  C_23
REMARK    6  A    between atoms: C_23  and  C_24
REMARK                            x       y       z     vdW  Elec       q    Type
REMARK                         _______ _______ _______ _____ _____    ______ ____
ROOT
ATOM      1  C   UNL     1       1.227  -2.187  -0.020  0.00  0.00    +0.050 C 
ENDROOT
BRANCH   1   2
ATOM      2  C   UNL     1       1.208  -0.680  -0.013  0.00  0.00    -0.034 A 
ATOM      3  C   UNL     1       0.002  -0.004   0.002  0.00  0.00    +0.007 A 
ATOM      4  C   UNL     1      -0.017   1.378   0.010  0.00  0.00    +0.038 A 
ATOM      5  C   UNL     1       1.173   2.086   0.002  0.00  0.00    +0.125 A 
ATOM      6  C   UNL     1       2.381   1.410  -0.013  0.00  0.00    +0.058 A 
ATOM      7  C   UNL     1       2.398   0.027  -0.020  0.00  0.00    +0.046 A 
ATOM      8 CL   UNL     1       3.911  -0.823  -0.039  0.00  0.00    -0.083 Cl
ATOM      9  F   UNL     1       1.155   3.437   0.009  0.00  0.00    -0.205 F 
ENDBRANCH   1   2
BRANCH   1  13
ATOM     10  C   UNL     1       2.385  -3.499  -3.192  0.00  0.00    +0.248 A 
ATOM     11  N   UNL     1       1.142  -3.174  -3.455  0.00  0.00    -0.107 NA
ATOM     12  N   UNL     1       0.598  -2.685  -2.397  0.00  0.00    -0.113 NA
ATOM     13  C   UNL     1       1.467  -2.679  -1.424  0.00  0.00    +0.208 A 
ATOM     14  O   UNL     1       2.616  -3.187  -1.901  0.00  0.00    -0.422 OA
BRANCH  10  18
ATOM     15  C   UNL     1       5.172  -5.203  -5.908  0.00  0.00    +0.000 A 
ATOM     16  C   UNL     1       3.887  -4.912  -6.332  0.00  0.00    +0.001 A 
ATOM     17  C   UNL     1       2.977  -4.359  -5.454  0.00  0.00    +0.013 A 
ATOM     18  C   UNL     1       3.355  -4.092  -4.138  0.00  0.00    +0.038 A 
ATOM     19  C   UNL     1       4.654  -4.383  -3.719  0.00  0.00    +0.013 A 
ATOM     20  C   UNL     1       5.553  -4.942  -4.604  0.00  0.00    +0.001 A 
ENDBRANCH  10  18
ENDBRANCH   1  13
BRANCH   1  21
ATOM     21  N   UNL     1      -0.064  -2.695   0.464  0.00  0.00    +0.392 N 
ATOM     22  H   UNL     1      -0.870  -2.025   0.131  0.00  0.00    -0.084 HD
ATOM     23  H   UNL     1      -0.235  -3.704   0.060  0.00  0.00    -0.084 HD
BRANCH  21  24
ATOM     24  C   UNL     1      -0.085  -2.765   1.931  0.00  0.00    -0.045 C 
BRANCH  24  25
ATOM     25  C   UNL     1      -1.422  -3.289   2.389  0.00  0.00    -0.061 A 
ATOM     26  C   UNL     1      -2.455  -2.409   2.651  0.00  0.00    +0.005 A 
ATOM     27  C   UNL     1      -3.684  -2.886   3.066  0.00  0.00    +0.050 A 
ATOM     28  C   UNL     1      -3.880  -4.247   3.232  0.00  0.00    +0.166 A 
ATOM     29  C   UNL     1      -2.838  -5.134   2.973  0.00  0.00    +0.166 A 
ATOM     30  C   UNL     1      -1.610  -4.649   2.551  0.00  0.00    +0.051 A 
ATOM     31  O   UNL     1      -3.277  -6.405   3.208  0.00  0.00    -0.453 OA
ATOM     32  C   UNL     1      -4.468  -6.259   4.003  0.00  0.00    +0.466 C 
ATOM     33  O   UNL     1      -4.973  -4.963   3.629  0.00  0.00    -0.453 OA
ENDBRANCH  24  25
ENDBRANCH  21  24
ENDBRANCH   1  21
TORSDOF 6
