REMARK  Name = ZINC40081454
REMARK  13 active torsions:
REMARK  status: ('A' for Active; 'I' for Inactive)
REMARK    1  A    between atoms: C_1  and  C_2
REMARK    2  A    between atoms: C_2  and  O_3
REMARK    3  A    between atoms: O_3  and  C_4
REMARK    4  A    between atoms: C_7  and  C_11
REMARK    5  A    between atoms: C_8  and  C_10
REMARK    6  A    between atoms: C_11  and  C_13
REMARK    7  A    between atoms: N_17  and  C_27
REMARK    8  A    between atoms: C_18  and  C_20
REMARK    9  A    between atoms: C_27  and  C_28
REMARK   10  A    between atoms: C_28  and  O_29
REMARK   11  A    between atoms: O_29  and  C_30
REMARK   12  A    between atoms: C_30  and  C_31
REMARK   13  A    between atoms: C_31  and  O_32
REMARK                            x       y       z     vdW  Elec       q    Type
REMARK                         _______ _______ _______ _____ _____    ______ ____
ROOT
ATOM      1  C   UNL     1       2.503  -8.438   2.972  0.00  0.00    +0.076 C 
ATOM      2  C   UNL     1       2.603  -9.787   3.029  0.00  0.00    +0.249 C 
ATOM      3  C   UNL     1       2.166 -10.361   1.739  0.00  0.00    +0.288 C 
ATOM      4  O   UNL     1       2.140 -11.547   1.477  0.00  0.00    -0.266 OA
ATOM      5  N   UNL     1       1.802  -9.376   0.898  0.00  0.00    -0.281 N 
ATOM      6  C   UNL     1       1.975  -8.098   1.598  0.00  0.00    +0.146 C 
ATOM      7  O   UNL     1       3.034 -10.497   4.098  0.00  0.00    -0.282 OA
ENDROOT
BRANCH   6   8
ATOM      8  C   UNL     1       0.654  -7.383   1.713  0.00  0.00    -0.008 A 
ATOM      9  C   UNL     1      -0.527  -8.102   1.676  0.00  0.00    +0.007 A 
ATOM     10  C   UNL     1      -1.739  -7.446   1.782  0.00  0.00    +0.000 A 
ATOM     11  C   UNL     1      -1.772  -6.072   1.925  0.00  0.00    +0.001 A 
ATOM     12  C   UNL     1      -0.592  -5.352   1.963  0.00  0.00    +0.015 A 
ATOM     13  C   UNL     1       0.622  -6.008   1.862  0.00  0.00    +0.023 A 
ATOM     14 BR   UNL     1       2.236  -5.026   1.920  0.00  0.00    -0.050 Br
ENDBRANCH   6   8
BRANCH   1  15
ATOM     15  C   UNL     1       2.837  -7.491   4.040  0.00  0.00    +0.195 C 
ATOM     16  O   UNL     1       1.951  -6.984   4.703  0.00  0.00    -0.287 OA
BRANCH  15  20
ATOM     17  C   UNL     1       6.896  -6.515   4.821  0.00  0.00    +0.121 A 
ATOM     18  C   UNL     1       6.586  -7.481   3.869  0.00  0.00    +0.046 A 
ATOM     19  C   UNL     1       5.271  -7.800   3.614  0.00  0.00    +0.015 A 
ATOM     20  C   UNL     1       4.248  -7.152   4.312  0.00  0.00    +0.025 A 
ATOM     21  C   UNL     1       4.564  -6.182   5.267  0.00  0.00    -0.036 A 
ATOM     22  C   UNL     1       5.882  -5.872   5.521  0.00  0.00    +0.049 A 
ATOM     23  C   UNL     1       3.465  -5.479   6.022  0.00  0.00    +0.044 C 
BRANCH  17  24
ATOM     24  O   UNL     1       8.193  -6.203   5.070  0.00  0.00    -0.492 OA
BRANCH  24  26
ATOM     25  C   UNL     1      10.576  -6.420   4.732  0.00  0.00    +0.048 C 
ATOM     26  C   UNL     1       9.185  -6.902   4.315  0.00  0.00    +0.225 C 
ENDBRANCH  24  26
ENDBRANCH  17  24
ENDBRANCH  15  20
ENDBRANCH   1  15
BRANCH   5  27
ATOM     27  C   UNL     1       1.313  -9.550  -0.472  0.00  0.00    +0.137 C 
BRANCH  27  28
ATOM     28  C   UNL     1       2.478  -9.402  -1.452  0.00  0.00    +0.179 C 
BRANCH  28  29
ATOM     29  O   UNL     1       3.429 -10.444  -1.222  0.00  0.00    -0.376 OA
BRANCH  29  30
ATOM     30  C   UNL     1       4.614 -10.334  -2.012  0.00  0.00    +0.187 C 
BRANCH  30  31
ATOM     31  C   UNL     1       5.500 -11.559  -1.776  0.00  0.00    +0.184 C 
BRANCH  31  32
ATOM     32  O   UNL     1       4.825 -12.730  -2.239  0.00  0.00    -0.393 OA
ATOM     33  H   UNL     1       5.330 -13.547  -2.121  0.00  0.00    +0.209 HD
ENDBRANCH  31  32
ENDBRANCH  30  31
ENDBRANCH  29  30
ENDBRANCH  28  29
ENDBRANCH  27  28
ENDBRANCH   5  27
TORSDOF 11
