REMARK  Name = ZINC20571307
REMARK  7 active torsions:
REMARK  status: ('A' for Active; 'I' for Inactive)
REMARK    1  A    between atoms: C_1  and  C_2
REMARK    2  A    between atoms: C_5  and  S_8
REMARK    3  A    between atoms: S_8  and  N_11
REMARK    4  A    between atoms: N_11  and  C_12
REMARK    5  A    between atoms: C_15  and  C_18
REMARK    6  A    between atoms: N_20  and  C_21
REMARK    7  A    between atoms: C_22  and  C_30
REMARK                            x       y       z     vdW  Elec       q    Type
REMARK                         _______ _______ _______ _____ _____    ______ ____
ROOT
ATOM      1  C   UNL     1       1.125   2.395  -0.184  0.00  0.00    +0.048 A 
ATOM      2  C   UNL     1       2.311   2.002   0.431  0.00  0.00    +0.025 A 
ATOM      3  C   UNL     1       3.461   2.732   0.241  0.00  0.00    +0.015 A 
ATOM      4  C   UNL     1       3.436   3.878  -0.560  0.00  0.00    +0.037 A 
ATOM      5  C   UNL     1       2.242   4.274  -1.171  0.00  0.00    +0.015 A 
ATOM      6  C   UNL     1       1.096   3.535  -0.982  0.00  0.00    +0.025 A 
ENDROOT
BRANCH   4   7
ATOM      7  C   UNL     1       4.665   4.666  -0.761  0.00  0.00    +0.249 C 
ATOM      8  O   UNL     1       4.642   5.662  -1.459  0.00  0.00    -0.270 OA
ATOM      9  N   UNL     1       5.815   4.283  -0.172  0.00  0.00    -0.275 N 
ATOM     10  H   UNL     1       5.837   3.383   0.459  0.00  0.00    +0.156 HD
BRANCH   9  11
ATOM     11  C   UNL     1       6.971   5.024  -0.361  0.00  0.00    +0.085 A 
ATOM     12  C   UNL     1       8.237   4.796   0.161  0.00  0.00    +0.068 A 
ATOM     13  C   UNL     1       9.289   5.731  -0.198  0.00  0.00    -0.023 A 
ATOM     14  C   UNL     1       8.908   6.743  -1.007  0.00  0.00    -0.004 A 
ATOM     15  S   UNL     1       7.185   6.465  -1.300  0.00  0.00    -0.077 S 
ATOM     16  C   UNL     1       9.767   7.852  -1.533  0.00  0.00    +0.043 C 
ATOM     17  C   UNL     1      11.068   7.885  -0.716  0.00  0.00    +0.005 C 
ATOM     18  C   UNL     1      11.624   6.462  -0.617  0.00  0.00    +0.005 C 
ATOM     19  C   UNL     1      10.729   5.614   0.288  0.00  0.00    +0.037 C 
BRANCH  12  20
ATOM     20  C   UNL     1       8.502   3.652   1.038  0.00  0.00    +0.244 C 
ATOM     21  O   UNL     1       8.854   2.588   0.561  0.00  0.00    -0.270 OA
ATOM     22  N   UNL     1       8.358   3.778   2.372  0.00  0.00    -0.325 N 
ATOM     23  H   UNL     1       8.557   2.919   3.030  0.00  0.00    +0.145 HD
ATOM     24  H   UNL     1       8.041   4.739   2.803  0.00  0.00    +0.145 HD
ENDBRANCH  12  20
ENDBRANCH   9  11
ENDBRANCH   4   7
BRANCH   1  25
ATOM     25  N   UNL     1      -0.035   1.651   0.005  0.00  0.00    -0.216 N 
ATOM     26  H   UNL     1      -0.984   2.160   0.228  0.00  0.00    +0.174 HD
BRANCH  25  27
ATOM     27  S   UNL     1       0.014  -0.000  -0.105  0.00  0.00    +0.072 S 
ATOM     28  O   UNL     1       1.067  -0.433   0.745  0.00  0.00    -0.150 OA
ATOM     29  O   UNL     1      -1.323  -0.457   0.046  0.00  0.00    -0.150 OA
BRANCH  27  34
ATOM     30  C   UNL     1       1.677  -1.364  -5.742  0.00  0.00    +0.044 C 
ATOM     31  C   UNL     1       1.261  -1.024  -4.334  0.00  0.00    -0.050 A 
ATOM     32  C   UNL     1       2.208  -0.968  -3.329  0.00  0.00    +0.005 A 
ATOM     33  C   UNL     1       1.827  -0.656  -2.037  0.00  0.00    +0.029 A 
ATOM     34  C   UNL     1       0.500  -0.398  -1.751  0.00  0.00    +0.109 A 
ATOM     35  C   UNL     1      -0.448  -0.459  -2.756  0.00  0.00    +0.029 A 
ATOM     36  C   UNL     1      -0.066  -0.767  -4.048  0.00  0.00    +0.005 A 
ENDBRANCH  27  34
ENDBRANCH  25  27
ENDBRANCH   1  25
TORSDOF 6
