REMARK  Name = ZINC23721825
REMARK  10 active torsions:
REMARK  status: ('A' for Active; 'I' for Inactive)
REMARK    1  A    between atoms: C_1  and  C_2
REMARK    2  A    between atoms: N_5  and  C_8
REMARK    3  A    between atoms: C_8  and  C_10
REMARK    4  A    between atoms: C_8  and  C_26
REMARK    5  A    between atoms: C_10  and  N_11
REMARK    6  A    between atoms: C_12  and  C_14
REMARK    7  A    between atoms: C_16  and  S_22
REMARK    8  A    between atoms: C_19  and  O_20
REMARK    9  A    between atoms: O_20  and  C_21
REMARK   10  A    between atoms: S_22  and  N_25
REMARK                            x       y       z     vdW  Elec       q    Type
REMARK                         _______ _______ _______ _____ _____    ______ ____
ROOT
ATOM      1  N   UNL     1      -2.490   1.124  -3.094  0.00  0.00    -0.312 N 
ATOM      2  C   UNL     1      -3.536   1.528  -3.841  0.00  0.00    +0.248 C 
ATOM      3  O   UNL     1      -3.362   2.296  -4.767  0.00  0.00    -0.270 OA
ATOM      4  H   UNL     1      -2.648   0.429  -2.256  0.00  0.00    +0.149 HD
ENDROOT
BRANCH   2   5
ATOM      5  C   UNL     1      -4.894   1.038  -3.535  0.00  0.00    +0.080 A 
ATOM      6  C   UNL     1      -5.098   0.151  -2.475  0.00  0.00    +0.045 A 
ATOM      7  C   UNL     1      -6.369  -0.299  -2.192  0.00  0.00    +0.106 A 
ATOM      8  C   UNL     1      -7.445   0.116  -2.959  0.00  0.00    +0.032 A 
ATOM      9  C   UNL     1      -7.257   0.988  -4.012  0.00  0.00    +0.048 A 
ATOM     10  C   UNL     1      -5.985   1.456  -4.309  0.00  0.00    +0.132 A 
BRANCH   7  11
ATOM     11  S   UNL     1      -6.626  -1.414  -0.851  0.00  0.00    +0.056 S 
ATOM     12  O   UNL     1      -5.543  -1.222   0.049  0.00  0.00    -0.153 OA
ATOM     13  O   UNL     1      -7.982  -1.265  -0.454  0.00  0.00    -0.153 OA
BRANCH  11  14
ATOM     14  N   UNL     1      -6.474  -2.949  -1.454  0.00  0.00    -0.204 NA
ATOM     15  H   UNL     1      -6.628  -3.677  -0.645  0.00  0.00    +0.144 HD
ATOM     16  H   UNL     1      -5.468  -3.078  -1.878  0.00  0.00    +0.144 HD
ENDBRANCH  11  14
ENDBRANCH   7  11
BRANCH  10  17
ATOM     17  O   UNL     1      -5.798   2.313  -5.343  0.00  0.00    -0.494 OA
ATOM     18  C   UNL     1      -6.957   2.694  -6.087  0.00  0.00    +0.277 C 
ENDBRANCH  10  17
ENDBRANCH   2   5
BRANCH   1  19
ATOM     19  C   UNL     1      -1.142   1.611  -3.398  0.00  0.00    +0.094 C 
BRANCH  19  20
ATOM     20  C   UNL     1      -0.145   1.005  -2.408  0.00  0.00    -0.013 C 
BRANCH  20  25
ATOM     21  C   UNL     1      -1.033   2.670   2.988  0.00  0.00    +0.007 C 
ATOM     22  C   UNL     1      -0.425   2.477   1.597  0.00  0.00    -0.018 C 
ATOM     23  C   UNL     1      -0.156   0.989   1.357  0.00  0.00    -0.015 C 
ATOM     24  C   UNL     1       0.395   0.796  -0.057  0.00  0.00    -0.078 C 
ATOM     25  N   UNL     1      -0.578   1.299  -1.035  0.00  0.00    +0.386 N 
ATOM     26  C   UNL     1      -0.818   2.736  -0.856  0.00  0.00    -0.078 C 
ATOM     27  C   UNL     1      -1.404   2.987   0.535  0.00  0.00    -0.015 C 
ATOM     28  H   UNL     1      -1.530   0.776  -0.860  0.00  0.00    -0.081 HD
ENDBRANCH  20  25
BRANCH  20  29
ATOM     29  C   UNL     1       1.220   1.598  -2.642  0.00  0.00    -0.022 A 
ATOM     30  C   UNL     1       2.325   1.016  -3.167  0.00  0.00    +0.009 A 
ATOM     31  C   UNL     1       3.482   1.762  -3.289  0.00  0.00    +0.008 A 
ATOM     32  C   UNL     1       3.477   3.055  -2.881  0.00  0.00    +0.045 A 
ATOM     33  S   UNL     1       1.798   3.254  -2.306  0.00  0.00    -0.103 S 
ENDBRANCH  20  29
ENDBRANCH  19  20
ENDBRANCH   1  19
TORSDOF 8
