REMARK  Name = ZINC23682877
REMARK  6 active torsions:
REMARK  status: ('A' for Active; 'I' for Inactive)
REMARK    1  A    between atoms: C_1  and  C_2
REMARK    2  A    between atoms: C_5  and  C_9
REMARK    3  A    between atoms: C_7  and  C_8
REMARK    4  A    between atoms: C_15  and  C_17
REMARK    5  A    between atoms: C_17  and  N_18
REMARK    6  A    between atoms: C_26  and  C_28
REMARK                            x       y       z     vdW  Elec       q    Type
REMARK                         _______ _______ _______ _____ _____    ______ ____
ROOT
ATOM      1  C   UNL     1      -1.946  -4.241  -0.003  0.00  0.00    +0.080 A 
ATOM      2  C   UNL     1      -0.667  -4.723  -0.018  0.00  0.00    +0.076 A 
ATOM      3  S   UNL     1       0.262  -3.195  -0.025  0.00  0.00    -0.060 S 
ATOM      4  C   UNL     1      -1.137  -2.083   0.002  0.00  0.00    +0.165 A 
ATOM      5  N   UNL     1      -2.148  -2.932   0.007  0.00  0.00    -0.225 NA
ATOM      6  N   UNL     1      -1.156  -0.694   0.009  0.00  0.00    -0.263 N 
ATOM      7  C   UNL     1       0.002  -0.004   0.002  0.00  0.00    +0.237 C 
ATOM      8  O   UNL     1       1.060  -0.596  -0.011  0.00  0.00    -0.274 OA
ATOM      9  H   UNL     1      -2.116  -0.157   0.021  0.00  0.00    +0.157 HD
ENDROOT
BRANCH   1  14
ATOM     10  C   UNL     1      -6.418  -7.870   0.025  0.00  0.00    +0.044 C 
ATOM     11  C   UNL     1      -5.248  -6.920   0.017  0.00  0.00    -0.047 A 
ATOM     12  C   UNL     1      -3.958  -7.415   0.105  0.00  0.00    +0.004 A 
ATOM     13  C   UNL     1      -2.883  -6.550   0.099  0.00  0.00    +0.010 A 
ATOM     14  C   UNL     1      -3.098  -5.176   0.004  0.00  0.00    +0.001 A 
ATOM     15  C   UNL     1      -4.399  -4.683  -0.080  0.00  0.00    +0.013 A 
ATOM     16  C   UNL     1      -5.466  -5.558  -0.078  0.00  0.00    -0.047 A 
ATOM     17  C   UNL     1      -6.874  -5.027  -0.174  0.00  0.00    +0.044 C 
ENDBRANCH   1  14
BRANCH   7  18
ATOM     18  C   UNL     1      -0.018   1.503   0.010  0.00  0.00    +0.214 C 
BRANCH  18  19
ATOM     19  N   UNL     1       1.356   2.010  -0.000  0.00  0.00    -0.215 N 
ATOM     20  C   UNL     1       2.076   2.271   1.110  0.00  0.00    +0.247 C 
ATOM     21  O   UNL     1       1.724   2.136   2.263  0.00  0.00    -0.273 OA
ATOM     22  C   UNL     1       3.416   2.765   0.616  0.00  0.00    +0.115 C 
ATOM     23  C   UNL     1       4.534   1.837   1.077  0.00  0.00    +0.035 C 
ATOM     24  C   UNL     1       4.625   1.862   2.604  0.00  0.00    +0.003 C 
ATOM     25  C   UNL     1       4.901   3.292   3.074  0.00  0.00    +0.000 C 
ATOM     26  C   UNL     1       3.759   4.206   2.625  0.00  0.00    +0.006 C 
ATOM     27  C   UNL     1       3.664   4.191   1.098  0.00  0.00    +0.018 C 
ATOM     28  C   UNL     1       2.510   5.089   0.649  0.00  0.00    +0.010 C 
ATOM     29  N   UNL     1       3.290   2.732  -0.847  0.00  0.00    -0.285 N 
ATOM     30  C   UNL     1       2.051   2.277  -1.113  0.00  0.00    +0.310 C 
ATOM     31  O   UNL     1       1.613   2.124  -2.236  0.00  0.00    -0.252 OA
ATOM     32  H   UNL     1       4.133   3.049  -1.479  0.00  0.00    +0.151 HD
ENDBRANCH  18  19
ENDBRANCH   7  18
TORSDOF 3
