REMARK  Name = ZINC30738318
REMARK  8 active torsions:
REMARK  status: ('A' for Active; 'I' for Inactive)
REMARK    1  A    between atoms: C_1  and  C_2
REMARK    2  A    between atoms: C_2  and  N_3
REMARK    3  A    between atoms: N_3  and  C_4
REMARK    4  A    between atoms: C_7  and  C_34
REMARK    5  A    between atoms: C_9  and  N_10
REMARK    6  A    between atoms: N_12  and  C_28
REMARK    7  A    between atoms: N_17  and  C_25
REMARK    8  A    between atoms: C_25  and  C_26
REMARK                            x       y       z     vdW  Elec       q    Type
REMARK                         _______ _______ _______ _____ _____    ______ ____
ROOT
ATOM      1  N   UNL     1       3.330   6.509   0.114  0.00  0.00    -0.224 NA
ATOM      2  C   UNL     1       2.635   5.433   0.415  0.00  0.00    +0.169 C 
ATOM      3  N   UNL     1       1.271   5.299   0.585  0.00  0.00    -0.243 N 
ATOM      4  C   UNL     1       0.757   4.118   0.882  0.00  0.00    +0.262 C 
ATOM      5  O   UNL     1      -0.448   3.985   1.028  0.00  0.00    -0.269 OA
ATOM      6  C   UNL     1       1.621   3.019   1.033  0.00  0.00    +0.106 C 
ATOM      7  C   UNL     1       1.318   1.701   1.345  0.00  0.00    +0.092 C 
ATOM      8  N   UNL     1       0.219   1.203   1.993  0.00  0.00    -0.293 N 
ATOM      9  C   UNL     1       0.099  -0.159   2.210  0.00  0.00    +0.048 A 
ATOM     10  C   UNL     1      -0.954  -0.832   2.853  0.00  0.00    +0.024 A 
ATOM     11  C   UNL     1      -0.934  -2.199   2.995  0.00  0.00    +0.002 A 
ATOM     12  C   UNL     1       0.120  -2.957   2.513  0.00  0.00    +0.001 A 
ATOM     13  C   UNL     1       1.171  -2.320   1.876  0.00  0.00    +0.017 A 
ATOM     14  C   UNL     1       1.151  -0.953   1.733  0.00  0.00    +0.035 A 
ATOM     15  S   UNL     1       2.262   0.225   1.003  0.00  0.00    -0.071 S 
ATOM     16  S   UNL     1       3.211   3.767   0.710  0.00  0.00    -0.046 S 
ENDROOT
BRANCH   1  22
ATOM     17  C   UNL     1       5.569   7.272   0.544  0.00  0.00    +0.053 A 
ATOM     18  C   UNL     1       6.933   7.172   0.309  0.00  0.00    +0.026 A 
ATOM     19  C   UNL     1       7.419   6.229  -0.572  0.00  0.00    +0.021 A 
ATOM     20  C   UNL     1       6.540   5.367  -1.235  0.00  0.00    +0.054 A 
ATOM     21  C   UNL     1       5.166   5.456  -1.001  0.00  0.00    +0.048 A 
ATOM     22  C   UNL     1       4.677   6.412  -0.117  0.00  0.00    +0.088 A 
BRANCH  17  23
ATOM     23  N   UNL     1       5.084   8.228   1.435  0.00  0.00    -0.342 N 
ATOM     24  H   UNL     1       4.003   8.308   1.621  0.00  0.00    +0.146 HD
BRANCH  23  26
ATOM     25  C   UNL     1       5.229  10.070   3.037  0.00  0.00    +0.024 C 
ATOM     26  C   UNL     1       6.014   9.126   2.124  0.00  0.00    +0.098 C 
ENDBRANCH  23  26
ENDBRANCH  17  23
BRANCH  20  27
ATOM     27  C   UNL     1       7.049   4.388  -2.148  0.00  0.00    +0.099 C 
ATOM     28  N   UNL     1       7.453   3.612  -2.873  0.00  0.00    -0.191 NA
ENDBRANCH  20  27
ENDBRANCH   1  22
BRANCH   3  29
ATOM     29  C   UNL     1       0.394   6.462   0.427  0.00  0.00    +0.084 C 
ATOM     30  C   UNL     1      -0.358   6.714   1.735  0.00  0.00    +0.023 C 
ATOM     31  C   UNL     1      -1.274   7.929   1.571  0.00  0.00    +0.002 C 
ATOM     32  C   UNL     1      -2.278   7.663   0.448  0.00  0.00    +0.000 C 
ATOM     33  C   UNL     1      -1.525   7.411  -0.860  0.00  0.00    +0.002 C 
ATOM     34  C   UNL     1      -0.610   6.196  -0.696  0.00  0.00    +0.023 C 
ENDBRANCH   3  29
BRANCH   8  35
ATOM     35  C   UNL     1      -0.835   2.112   2.451  0.00  0.00    +0.108 C 
ATOM     36  C   UNL     1      -0.246   3.117   3.442  0.00  0.00    +0.025 C 
ENDBRANCH   8  35
TORSDOF 6
