REMARK  Name = ZINC36638222
REMARK  17 active torsions:
REMARK  status: ('A' for Active; 'I' for Inactive)
REMARK    1  A    between atoms: C_1  and  C_2
REMARK    2  A    between atoms: C_2  and  C_3
REMARK    3  A    between atoms: C_3  and  C_4
REMARK    4  A    between atoms: C_4  and  N_5
REMARK    5  A    between atoms: N_5  and  C_6
REMARK    6  A    between atoms: N_5  and  S_7
REMARK    7  A    between atoms: S_7  and  C_10
REMARK    8  A    between atoms: C_13  and  C_16
REMARK    9  A    between atoms: N_18  and  C_19
REMARK   10  A    between atoms: C_19  and  C_20
REMARK   11  A    between atoms: C_20  and  N_21
REMARK   12  A    between atoms: N_21  and  C_22
REMARK   13  A    between atoms: N_21  and  C_24
REMARK   14  A    between atoms: C_22  and  C_23
REMARK   15  A    between atoms: C_24  and  C_25
REMARK   16  A    between atoms: C_29  and  C_36
REMARK   17  A    between atoms: C_30  and  C_35
REMARK                            x       y       z     vdW  Elec       q    Type
REMARK                         _______ _______ _______ _____ _____    ______ ____
ROOT
ATOM      1  C   UNL     1      -6.365   2.142   3.489  0.00  0.00    +0.252 C 
ATOM      2  O   UNL     1      -5.837   2.878   4.300  0.00  0.00    -0.270 OA
ATOM      3  N   UNL     1      -7.684   2.254   3.236  0.00  0.00    -0.248 N 
ATOM      4  C   UNL     1      -8.411   3.291   3.797  0.00  0.00    +0.168 A 
ATOM      5  N   UNL     1      -7.996   4.254   4.587  0.00  0.00    -0.224 NA
ATOM      6  C   UNL     1      -8.824   5.209   5.063  0.00  0.00    +0.083 A 
ATOM      7  C   UNL     1      -8.508   6.293   5.915  0.00  0.00    -0.021 A 
ATOM      8  C   UNL     1      -9.476   7.179   6.308  0.00  0.00    -0.045 A 
ATOM      9  C   UNL     1     -10.793   7.048   5.889  0.00  0.00    +0.005 A 
ATOM     10  C   UNL     1     -11.137   6.000   5.056  0.00  0.00    +0.017 A 
ATOM     11  C   UNL     1     -10.174   5.107   4.657  0.00  0.00    +0.041 A 
ATOM     12  S   UNL     1     -10.150   3.662   3.623  0.00  0.00    -0.052 S 
ATOM     13  C   UNL     1      -9.103   8.322   7.216  0.00  0.00    +0.044 C 
ATOM     14  C   UNL     1      -7.091   6.475   6.395  0.00  0.00    +0.046 C 
ENDROOT
BRANCH   1  18
ATOM     15  C   UNL     1      -4.053  -0.783   1.456  0.00  0.00    +0.106 A 
ATOM     16  C   UNL     1      -3.494   0.446   1.762  0.00  0.00    +0.029 A 
ATOM     17  C   UNL     1      -4.240   1.400   2.422  0.00  0.00    +0.015 A 
ATOM     18  C   UNL     1      -5.560   1.125   2.781  0.00  0.00    +0.037 A 
ATOM     19  C   UNL     1      -6.117  -0.117   2.470  0.00  0.00    +0.015 A 
ATOM     20  C   UNL     1      -5.363  -1.061   1.804  0.00  0.00    +0.029 A 
BRANCH  15  21
ATOM     21  S   UNL     1      -3.094  -1.997   0.612  0.00  0.00    +0.061 S 
ATOM     22  O   UNL     1      -3.672  -3.257   0.920  0.00  0.00    -0.153 OA
ATOM     23  O   UNL     1      -1.731  -1.697   0.882  0.00  0.00    -0.153 OA
BRANCH  21  24
ATOM     24  N   UNL     1      -3.319  -1.757  -1.011  0.00  0.00    -0.180 NA
ATOM     25  C   UNL     1      -4.407  -2.446  -1.709  0.00  0.00    +0.131 C 
BRANCH  24  26
ATOM     26  C   UNL     1      -2.430  -0.856  -1.749  0.00  0.00    +0.109 C 
BRANCH  26  27
ATOM     27  C   UNL     1      -3.063   0.534  -1.827  0.00  0.00    +0.017 C 
BRANCH  27  29
ATOM     28  C   UNL     1      -2.769   2.866  -2.676  0.00  0.00    +0.004 C 
ATOM     29  C   UNL     1      -2.135   1.475  -2.598  0.00  0.00    -0.002 C 
ENDBRANCH  27  29
ENDBRANCH  26  27
ENDBRANCH  24  26
ENDBRANCH  21  24
ENDBRANCH  15  21
ENDBRANCH   1  18
BRANCH   3  30
ATOM     30  C   UNL     1      -8.349   1.279   2.368  0.00  0.00    +0.097 C 
BRANCH  30  31
ATOM     31  C   UNL     1      -9.310   0.428   3.200  0.00  0.00    -0.059 C 
BRANCH  31  32
ATOM     32  N   UNL     1     -10.023  -0.507   2.320  0.00  0.00    +0.380 N 
ATOM     33  H   UNL     1     -10.468   0.006   1.574  0.00  0.00    -0.082 HD
BRANCH  32  34
ATOM     34  C   UNL     1      -9.069  -1.468   1.751  0.00  0.00    -0.082 C 
ATOM     35  C   UNL     1      -8.467  -2.315   2.874  0.00  0.00    -0.017 C 
ENDBRANCH  32  34
BRANCH  32  36
ATOM     36  C   UNL     1     -11.042  -1.228   3.094  0.00  0.00    -0.082 C 
ATOM     37  C   UNL     1     -11.866  -2.111   2.155  0.00  0.00    -0.017 C 
ENDBRANCH  32  36
ENDBRANCH  31  32
ENDBRANCH  30  31
ENDBRANCH   3  30
TORSDOF 11
