REMARK  Name = ZINC28313819
REMARK  13 active torsions:
REMARK  status: ('A' for Active; 'I' for Inactive)
REMARK    1  A    between atoms: C_1  and  C_2
REMARK    2  A    between atoms: C_5  and  N_9
REMARK    3  A    between atoms: C_6  and  C_8
REMARK    4  A    between atoms: N_11  and  C_32
REMARK    5  A    between atoms: C_14  and  C_17
REMARK    6  A    between atoms: C_17  and  C_18
REMARK    7  A    between atoms: N_20  and  C_21
REMARK    8  A    between atoms: C_24  and  O_30
REMARK    9  A    between atoms: C_26  and  N_27
REMARK   10  A    between atoms: O_30  and  C_31
REMARK   11  A    between atoms: C_32  and  C_33
REMARK   12  A    between atoms: C_33  and  O_34
REMARK   13  A    between atoms: O_34  and  C_35
REMARK                            x       y       z     vdW  Elec       q    Type
REMARK                         _______ _______ _______ _____ _____    ______ ____
ROOT
ATOM      1  N   UNL     1      -2.599  -2.947   2.425  0.00  0.00    -0.226 NA
ATOM      2  C   UNL     1      -1.293  -3.066   2.372  0.00  0.00    +0.164 C 
ATOM      3  N   UNL     1      -0.462  -2.850   1.293  0.00  0.00    -0.248 N 
ATOM      4  C   UNL     1       0.848  -3.010   1.367  0.00  0.00    +0.235 C 
ATOM      5  O   UNL     1       1.575  -2.824   0.414  0.00  0.00    -0.274 OA
ATOM      6  C   UNL     1       1.388  -3.438   2.723  0.00  0.00    +0.149 C 
ATOM      7  S   UNL     1      -0.175  -3.545   3.680  0.00  0.00    -0.077 S 
ENDROOT
BRANCH   1  12
ATOM      8  C   UNL     1      -5.375  -4.364   7.133  0.00  0.00    +0.044 C 
ATOM      9  C   UNL     1      -4.634  -3.986   5.876  0.00  0.00    -0.050 A 
ATOM     10  C   UNL     1      -3.497  -3.201   5.957  0.00  0.00    +0.005 A 
ATOM     11  C   UNL     1      -2.814  -2.851   4.811  0.00  0.00    +0.028 A 
ATOM     12  C   UNL     1      -3.272  -3.291   3.567  0.00  0.00    +0.069 A 
ATOM     13  C   UNL     1      -4.423  -4.077   3.493  0.00  0.00    -0.025 A 
ATOM     14  C   UNL     1      -5.094  -4.424   4.647  0.00  0.00    +0.008 A 
ATOM     15  C   UNL     1      -4.929  -4.551   2.154  0.00  0.00    +0.046 C 
ENDBRANCH   1  12
BRANCH   6  16
ATOM     16  C   UNL     1       2.078  -4.800   2.635  0.00  0.00    +0.120 C 
BRANCH  16  17
ATOM     17  C   UNL     1       2.540  -5.219   4.007  0.00  0.00    +0.219 C 
ATOM     18  O   UNL     1       2.337  -4.498   4.961  0.00  0.00    -0.275 OA
ATOM     19  N   UNL     1       3.179  -6.394   4.173  0.00  0.00    -0.284 N 
ATOM     20  H   UNL     1       3.449  -7.002   3.298  0.00  0.00    +0.155 HD
BRANCH  19  21
ATOM     21  C   UNL     1       3.500  -6.840   5.462  0.00  0.00    +0.064 A 
ATOM     22  C   UNL     1       2.644  -6.574   6.523  0.00  0.00    +0.029 A 
ATOM     23  C   UNL     1       2.959  -7.017   7.792  0.00  0.00    +0.047 A 
ATOM     24  C   UNL     1       4.135  -7.721   8.009  0.00  0.00    +0.122 A 
ATOM     25  C   UNL     1       4.992  -7.983   6.951  0.00  0.00    +0.080 A 
ATOM     26  C   UNL     1       4.676  -7.543   5.681  0.00  0.00    +0.151 A 
BRANCH  26  27
ATOM     27  N   UNL     1       5.592  -7.823   4.552  0.00  0.00    +0.058 N 
ATOM     28  O   UNL     1       6.665  -8.362   4.757  0.00  0.00    -0.126 OA
ATOM     29  O   UNL     1       5.273  -7.514   3.418  0.00  0.00    -0.126 OA
ENDBRANCH  26  27
BRANCH  24  30
ATOM     30  O   UNL     1       4.446  -8.153   9.260  0.00  0.00    -0.495 OA
ATOM     31  C   UNL     1       3.517  -7.848  10.302  0.00  0.00    +0.277 C 
ENDBRANCH  24  30
ENDBRANCH  19  21
ENDBRANCH  16  17
ENDBRANCH   6  16
BRANCH   3  32
ATOM     32  C   UNL     1      -1.052  -2.434   0.018  0.00  0.00    +0.143 C 
BRANCH  32  33
ATOM     33  C   UNL     1      -1.115  -0.907  -0.040  0.00  0.00    +0.179 C 
BRANCH  33  34
ATOM     34  O   UNL     1       0.211  -0.375  -0.046  0.00  0.00    -0.381 OA
ATOM     35  C   UNL     1       0.265   1.052  -0.100  0.00  0.00    +0.194 C 
ENDBRANCH  33  34
ENDBRANCH  32  33
ENDBRANCH   3  32
TORSDOF 9
