REMARK  Name = ZINC19892675
REMARK  15 active torsions:
REMARK  status: ('A' for Active; 'I' for Inactive)
REMARK    1  A    between atoms: C_1  and  C_2
REMARK    2  A    between atoms: C_2  and  C_3
REMARK    3  A    between atoms: C_3  and  C_4
REMARK    4  A    between atoms: C_4  and  O_5
REMARK    5  A    between atoms: O_5  and  C_6
REMARK    6  A    between atoms: C_6  and  C_8
REMARK    7  A    between atoms: C_9  and  C_39
REMARK    8  A    between atoms: C_13  and  C_15
REMARK    9  A    between atoms: C_18  and  S_21
REMARK   10  A    between atoms: S_21  and  C_22
REMARK   11  A    between atoms: C_26  and  C_29
REMARK   12  A    between atoms: C_32  and  O_37
REMARK   13  A    between atoms: C_33  and  O_35
REMARK   14  A    between atoms: O_35  and  C_36
REMARK   15  A    between atoms: O_37  and  C_38
REMARK                            x       y       z     vdW  Elec       q    Type
REMARK                         _______ _______ _______ _____ _____    ______ ____
ROOT
ATOM      1  C   UNL     1      -3.442   1.175  -1.151  0.00  0.00    +0.065 C 
ATOM      2  C   UNL     1      -4.313   2.199  -1.149  0.00  0.00    +0.016 C 
ATOM      3  N   UNL     1      -4.547   2.907  -0.004  0.00  0.00    -0.321 N 
ATOM      4  C   UNL     1      -4.234   2.378   1.220  0.00  0.00    +0.016 C 
ATOM      5  C   UNL     1      -3.360   1.355   1.321  0.00  0.00    +0.024 C 
ATOM      6  C   UNL     1      -2.699   0.782   0.092  0.00  0.00    +0.092 C 
ATOM      7  C   UNL     1      -3.042   0.793   2.570  0.00  0.00    +0.162 C 
ATOM      8  O   UNL     1      -2.247  -0.124   2.626  0.00  0.00    -0.292 OA
ATOM      9  C   UNL     1      -3.669   1.305   3.837  0.00  0.00    +0.088 C 
ATOM     10  C   UNL     1      -5.050   1.884   3.512  0.00  0.00    +0.032 C 
ATOM     11  C   UNL     1      -4.884   2.968   2.447  0.00  0.00    +0.059 C 
ATOM     12  C   UNL     1      -5.035   2.569  -2.419  0.00  0.00    +0.061 C 
ATOM     13  H   UNL     1      -4.992   3.911  -0.059  0.00  0.00    +0.152 HD
ENDROOT
BRANCH   6  14
ATOM     14  C   UNL     1      -1.285   1.294   0.006  0.00  0.00    -0.035 A 
ATOM     15  C   UNL     1      -0.226   0.406   0.049  0.00  0.00    +0.005 A 
ATOM     16  C   UNL     1       1.072   0.872  -0.035  0.00  0.00    +0.015 A 
ATOM     17  C   UNL     1       1.312   2.235  -0.158  0.00  0.00    +0.008 A 
ATOM     18  C   UNL     1       0.246   3.125  -0.195  0.00  0.00    +0.015 A 
ATOM     19  C   UNL     1      -1.049   2.652  -0.111  0.00  0.00    +0.005 A 
BRANCH  17  20
ATOM     20  S   UNL     1       2.966   2.834  -0.266  0.00  0.00    -0.129 S 
ATOM     21  C   UNL     1       2.773   4.632  -0.410  0.00  0.00    +0.090 C 
ENDBRANCH  17  20
ENDBRANCH   6  14
BRANCH  10  22
ATOM     22  C   UNL     1      -5.655   2.480   4.757  0.00  0.00    -0.040 A 
ATOM     23  C   UNL     1      -5.008   3.511   5.413  0.00  0.00    +0.008 A 
ATOM     24  C   UNL     1      -5.559   4.061   6.555  0.00  0.00    +0.049 A 
ATOM     25  C   UNL     1      -6.762   3.580   7.045  0.00  0.00    +0.161 A 
ATOM     26  C   UNL     1      -7.413   2.542   6.385  0.00  0.00    +0.162 A 
ATOM     27  C   UNL     1      -6.858   1.999   5.238  0.00  0.00    +0.053 A 
BRANCH  26  28
ATOM     28  O   UNL     1      -8.594   2.066   6.863  0.00  0.00    -0.491 OA
ATOM     29  C   UNL     1      -9.206   1.000   6.134  0.00  0.00    +0.277 C 
ENDBRANCH  26  28
BRANCH  25  30
ATOM     30  O   UNL     1      -7.305   4.120   8.169  0.00  0.00    -0.491 OA
ATOM     31  C   UNL     1      -6.582   5.182   8.793  0.00  0.00    +0.277 C 
ENDBRANCH  25  30
ENDBRANCH  10  22
BRANCH   1  32
ATOM     32  C   UNL     1      -3.222   0.453  -2.348  0.00  0.00    +0.338 C 
ATOM     33  O   UNL     1      -3.905   0.680  -3.329  0.00  0.00    -0.245 OA
BRANCH  32  34
ATOM     34  O   UNL     1      -2.255  -0.487  -2.401  0.00  0.00    -0.461 OA
BRANCH  34  35
ATOM     35  C   UNL     1      -2.089  -1.176  -3.642  0.00  0.00    +0.232 C 
BRANCH  35  36
ATOM     36  C   UNL     1      -0.955  -2.195  -3.510  0.00  0.00    +0.041 C 
BRANCH  36  38
ATOM     37  C   UNL     1       0.357  -3.953  -4.707  0.00  0.00    +0.004 C 
ATOM     38  C   UNL     1      -0.777  -2.934  -4.838  0.00  0.00    -0.000 C 
ENDBRANCH  36  38
ENDBRANCH  35  36
ENDBRANCH  34  35
ENDBRANCH  32  34
ENDBRANCH   1  32
TORSDOF 10
