REMARK  Name = ZINC15999258
REMARK  7 active torsions:
REMARK  status: ('A' for Active; 'I' for Inactive)
REMARK    1  A    between atoms: C_1  and  C_2
REMARK    2  A    between atoms: C_7  and  C_8
REMARK    3  A    between atoms: N_25  and  C_28
REMARK    4  A    between atoms: C_30  and  O_38
REMARK    5  A    between atoms: C_31  and  N_35
REMARK    6  A    between atoms: C_33  and  C_34
REMARK    7  A    between atoms: O_38  and  C_39
REMARK                            x       y       z     vdW  Elec       q    Type
REMARK                         _______ _______ _______ _____ _____    ______ ____
ROOT
ATOM      1  C   UNL     1       5.670  -2.728  -3.956  0.00  0.00    +0.044 C 
ATOM      2  C   UNL     1       4.771  -2.070  -2.940  0.00  0.00    -0.046 A 
ATOM      3  C   UNL     1       5.242  -1.006  -2.192  0.00  0.00    +0.004 A 
ATOM      4  C   UNL     1       4.417  -0.402  -1.260  0.00  0.00    +0.005 A 
ATOM      5  C   UNL     1       3.131  -0.861  -1.077  0.00  0.00    -0.027 A 
ATOM      6  C   UNL     1       2.648  -1.931  -1.823  0.00  0.00    +0.039 A 
ATOM      7  C   UNL     1       3.485  -2.533  -2.760  0.00  0.00    -0.026 A 
ATOM      8  C   UNL     1       2.982  -3.693  -3.580  0.00  0.00    +0.046 C 
ATOM      9  N   UNL     1       1.328  -2.213  -1.464  0.00  0.00    -0.286 N 
ATOM     10  C   UNL     1       0.875  -1.386  -0.503  0.00  0.00    +0.212 C 
ATOM     11  O   UNL     1      -0.228  -1.398   0.001  0.00  0.00    -0.277 OA
ATOM     12  C   UNL     1       2.003  -0.446  -0.175  0.00  0.00    +0.053 C 
ATOM     13  C   UNL     1       2.400  -0.547   1.303  0.00  0.00    +0.089 C 
ATOM     14  C   UNL     1       2.771   0.905   1.711  0.00  0.00    +0.074 C 
ATOM     15  C   UNL     1       2.562   1.747   0.439  0.00  0.00    -0.054 C 
ATOM     16  N   UNL     1       1.615   0.957  -0.404  0.00  0.00    +0.395 N 
ATOM     17  C   UNL     1       0.281   1.212   0.189  0.00  0.00    -0.076 C 
ATOM     18  C   UNL     1       0.306   2.692   0.620  0.00  0.00    -0.020 C 
ATOM     19  C   UNL     1       1.798   3.034   0.801  0.00  0.00    -0.016 C 
ATOM     20  C   UNL     1       1.691   1.250   2.735  0.00  0.00    +0.228 C 
ATOM     21  O   UNL     1       1.595   2.309   3.318  0.00  0.00    -0.275 OA
ATOM     22  N   UNL     1       0.873   0.203   2.892  0.00  0.00    -0.210 N 
ATOM     23  C   UNL     1       1.178  -0.859   2.138  0.00  0.00    +0.229 C 
ATOM     24  O   UNL     1       0.570  -1.907   2.126  0.00  0.00    -0.275 OA
ATOM     25  H   UNL     1       0.788  -3.034  -1.958  0.00  0.00    +0.155 HD
ATOM     26  H   UNL     1       1.615   1.186  -1.480  0.00  0.00    -0.079 HD
ENDROOT
BRANCH  22  27
ATOM     27  C   UNL     1      -0.216   0.218   3.776  0.00  0.00    +0.050 A 
ATOM     28  C   UNL     1      -1.477   0.573   3.318  0.00  0.00    +0.072 A 
ATOM     29  C   UNL     1      -2.552   0.580   4.193  0.00  0.00    +0.152 A 
ATOM     30  C   UNL     1      -2.363   0.245   5.526  0.00  0.00    +0.168 A 
ATOM     31  C   UNL     1      -1.105  -0.102   5.981  0.00  0.00    +0.041 A 
ATOM     32  C   UNL     1      -0.032  -0.116   5.111  0.00  0.00    -0.026 A 
ATOM     33  C   UNL     1       1.338  -0.495   5.610  0.00  0.00    +0.046 C 
BRANCH  30  34
ATOM     34  N   UNL     1      -3.510   0.258   6.462  0.00  0.00    +0.060 N 
ATOM     35  O   UNL     1      -3.345  -0.037   7.632  0.00  0.00    -0.126 OA
ATOM     36  O   UNL     1      -4.619   0.563   6.061  0.00  0.00    -0.126 OA
ENDBRANCH  30  34
BRANCH  29  37
ATOM     37  O   UNL     1      -3.789   0.921   3.746  0.00  0.00    -0.493 OA
ATOM     38  C   UNL     1      -3.911   1.255   2.362  0.00  0.00    +0.277 C 
ENDBRANCH  29  37
ENDBRANCH  22  27
TORSDOF 3
