REMARK  Name = ZINC40360629
REMARK  14 active torsions:
REMARK  status: ('A' for Active; 'I' for Inactive)
REMARK    1  A    between atoms: C_1  and  C_2
REMARK    2  A    between atoms: C_2  and  C_3
REMARK    3  A    between atoms: C_3  and  C_4
REMARK    4  A    between atoms: C_4  and  C_5
REMARK    5  A    between atoms: C_5  and  N_6
REMARK    6  A    between atoms: N_6  and  C_7
REMARK    7  A    between atoms: N_6  and  S_29
REMARK    8  A    between atoms: C_7  and  C_9
REMARK    9  A    between atoms: C_7  and  C_10
REMARK   10  A    between atoms: N_20  and  C_21
REMARK   11  A    between atoms: C_24  and  C_28
REMARK   12  A    between atoms: C_25  and  C_27
REMARK   13  A    between atoms: S_29  and  C_32
REMARK   14  A    between atoms: C_35  and  C_38
REMARK                            x       y       z     vdW  Elec       q    Type
REMARK                         _______ _______ _______ _____ _____    ______ ____
ROOT
ATOM      1  C   UNL     1      -0.744  -4.412  -2.321  0.00  0.00    +0.136 A 
ATOM      2  N   UNL     1      -1.269  -3.263  -2.619  0.00  0.00    -0.231 NA
ATOM      3  C   UNL     1      -2.507  -2.913  -2.188  0.00  0.00    +0.078 A 
ATOM      4  C   UNL     1      -3.073  -1.677  -2.508  0.00  0.00    +0.028 A 
ATOM      5  C   UNL     1      -4.332  -1.364  -2.050  0.00  0.00    +0.002 A 
ATOM      6  C   UNL     1      -5.050  -2.263  -1.270  0.00  0.00    +0.001 A 
ATOM      7  C   UNL     1      -4.513  -3.488  -0.941  0.00  0.00    +0.015 A 
ATOM      8  C   UNL     1      -3.240  -3.825  -1.395  0.00  0.00    +0.065 A 
ATOM      9  C   UNL     1      -2.617  -5.118  -1.076  0.00  0.00    +0.266 A 
ATOM     10  O   UNL     1      -3.195  -5.948  -0.398  0.00  0.00    -0.267 OA
ATOM     11  N   UNL     1      -1.379  -5.352  -1.570  0.00  0.00    -0.263 N 
ENDROOT
BRANCH  11  12
ATOM     12  C   UNL     1      -0.743  -6.570  -1.299  0.00  0.00    +0.051 A 
ATOM     13  C   UNL     1      -0.479  -6.941   0.013  0.00  0.00    +0.026 A 
ATOM     14  C   UNL     1       0.148  -8.143   0.276  0.00  0.00    +0.005 A 
ATOM     15  C   UNL     1       0.513  -8.977  -0.765  0.00  0.00    -0.047 A 
ATOM     16  C   UNL     1       0.252  -8.610  -2.072  0.00  0.00    -0.046 A 
ATOM     17  C   UNL     1      -0.380  -7.412  -2.342  0.00  0.00    +0.030 A 
ATOM     18  C   UNL     1       0.653  -9.521  -3.204  0.00  0.00    +0.044 C 
ATOM     19  C   UNL     1       1.197 -10.288  -0.474  0.00  0.00    +0.044 C 
ENDBRANCH  11  12
BRANCH   1  20
ATOM     20  C   UNL     1       0.636  -4.724  -2.840  0.00  0.00    +0.143 C 
ATOM     21  C   UNL     1       0.643  -4.619  -4.366  0.00  0.00    +0.034 C 
BRANCH  20  22
ATOM     22  N   UNL     1       1.595  -3.768  -2.280  0.00  0.00    -0.167 NA
BRANCH  22  23
ATOM     23  S   UNL     1       2.955  -4.314  -1.510  0.00  0.00    +0.061 S 
ATOM     24  O   UNL     1       3.212  -5.618  -2.014  0.00  0.00    -0.153 OA
ATOM     25  O   UNL     1       3.913  -3.267  -1.585  0.00  0.00    -0.153 OA
BRANCH  23  26
ATOM     26  C   UNL     1       2.549  -4.504   0.194  0.00  0.00    +0.106 A 
ATOM     27  C   UNL     1       2.721  -3.446   1.067  0.00  0.00    +0.029 A 
ATOM     28  C   UNL     1       2.402  -3.595   2.404  0.00  0.00    +0.005 A 
ATOM     29  C   UNL     1       1.910  -4.801   2.867  0.00  0.00    -0.050 A 
ATOM     30  C   UNL     1       1.737  -5.859   1.993  0.00  0.00    +0.005 A 
ATOM     31  C   UNL     1       2.052  -5.708   0.656  0.00  0.00    +0.029 A 
ATOM     32  C   UNL     1       1.563  -4.964   4.324  0.00  0.00    +0.044 C 
ENDBRANCH  23  26
ENDBRANCH  22  23
BRANCH  22  33
ATOM     33  C   UNL     1       1.351  -2.329  -2.403  0.00  0.00    +0.110 C 
BRANCH  33  34
ATOM     34  C   UNL     1       0.555  -1.842  -1.190  0.00  0.00    +0.017 C 
BRANCH  34  35
ATOM     35  C   UNL     1       0.371  -0.325  -1.276  0.00  0.00    +0.001 C 
BRANCH  35  37
ATOM     36  C   UNL     1      -0.609   1.678  -0.149  0.00  0.00    +0.004 C 
ATOM     37  C   UNL     1      -0.424   0.162  -0.063  0.00  0.00    -0.003 C 
ENDBRANCH  35  37
ENDBRANCH  34  35
ENDBRANCH  33  34
ENDBRANCH  22  33
ENDBRANCH  20  22
ENDBRANCH   1  20
TORSDOF 9
