REMARK  Name = ZINC23039048
REMARK  12 active torsions:
REMARK  status: ('A' for Active; 'I' for Inactive)
REMARK    1  A    between atoms: C_1  and  C_2
REMARK    2  A    between atoms: C_2  and  C_3
REMARK    3  A    between atoms: C_3  and  C_28
REMARK    4  A    between atoms: N_6  and  N_10
REMARK    5  A    between atoms: C_11  and  C_13
REMARK    6  A    between atoms: C_13  and  N_14
REMARK    7  A    between atoms: N_14  and  C_15
REMARK    8  A    between atoms: N_14  and  C_16
REMARK    9  A    between atoms: C_16  and  C_17
REMARK   10  A    between atoms: N_19  and  C_20
REMARK   11  A    between atoms: C_24  and  C_27
REMARK   12  A    between atoms: C_25  and  C_26
REMARK                            x       y       z     vdW  Elec       q    Type
REMARK                         _______ _______ _______ _____ _____    ______ ____
ROOT
ATOM      1  N   UNL     1       2.386   1.425  -0.000  0.00  0.00    -0.225 N 
ATOM      2  C   UNL     1       2.896   0.914  -1.138  0.00  0.00    +0.213 C 
ATOM      3  O   UNL     1       2.224   0.894  -2.148  0.00  0.00    -0.276 OA
ATOM      4  H   UNL     1       2.995   1.444   0.916  0.00  0.00    +0.173 HD
ENDROOT
BRANCH   1   8
ATOM      5  C   UNL     1      -0.735   3.319   0.050  0.00  0.00    +0.139 C 
ATOM      6  C   UNL     1       0.779   3.246   0.036  0.00  0.00    +0.268 C 
ATOM      7  O   UNL     1       1.557   4.176   0.043  0.00  0.00    -0.271 OA
ATOM      8  N   UNL     1       1.080   1.933   0.017  0.00  0.00    -0.137 N 
ATOM      9  C   UNL     1      -0.021   1.174   0.015  0.00  0.00    +0.327 C 
ATOM     10  O   UNL     1      -0.004  -0.041  -0.001  0.00  0.00    -0.251 OA
ATOM     11  N   UNL     1      -1.150   1.906   0.029  0.00  0.00    -0.280 N 
ATOM     12  H   UNL     1      -2.219   1.647   0.026  0.00  0.00    +0.152 HD
BRANCH   5  13
ATOM     13  C   UNL     1      -1.242   4.037  -1.174  0.00  0.00    -0.015 A 
ATOM     14  C   UNL     1      -1.438   5.405  -1.141  0.00  0.00    +0.006 A 
ATOM     15  C   UNL     1      -1.899   6.065  -2.266  0.00  0.00    +0.000 A 
ATOM     16  C   UNL     1      -2.172   5.355  -3.420  0.00  0.00    +0.000 A 
ATOM     17  C   UNL     1      -1.981   3.986  -3.451  0.00  0.00    +0.000 A 
ATOM     18  C   UNL     1      -1.516   3.328  -2.328  0.00  0.00    +0.006 A 
ENDBRANCH   5  13
BRANCH   5  20
ATOM     19  C   UNL     1      -0.746   3.233   2.547  0.00  0.00    +0.007 C 
ATOM     20  C   UNL     1      -1.229   4.012   1.321  0.00  0.00    +0.037 C 
ENDBRANCH   5  20
ENDBRANCH   1   8
BRANCH   2  21
ATOM     21  C   UNL     1       4.300   0.368  -1.156  0.00  0.00    +0.020 C 
BRANCH  21  22
ATOM     22  N   UNL     1       4.617  -0.126  -2.503  0.00  0.00    +0.389 N 
ATOM     23  C   UNL     1       3.785  -1.287  -2.846  0.00  0.00    -0.095 C 
ATOM     24  H   UNL     1       4.388   0.677  -3.220  0.00  0.00    -0.081 HD
BRANCH  22  25
ATOM     25  C   UNL     1       6.045  -0.446  -2.624  0.00  0.00    +0.019 C 
BRANCH  25  26
ATOM     26  C   UNL     1       6.379  -0.712  -4.070  0.00  0.00    +0.201 C 
ATOM     27  O   UNL     1       5.513  -0.641  -4.915  0.00  0.00    -0.278 OA
ATOM     28  N   UNL     1       7.641  -1.028  -4.423  0.00  0.00    -0.287 N 
ATOM     29  H   UNL     1       8.445  -1.003  -3.672  0.00  0.00    +0.155 HD
BRANCH  28  30
ATOM     30  C   UNL     1       7.929  -1.387  -5.744  0.00  0.00    +0.036 A 
ATOM     31  C   UNL     1       6.933  -1.916  -6.554  0.00  0.00    +0.023 A 
ATOM     32  C   UNL     1       7.220  -2.269  -7.858  0.00  0.00    +0.002 A 
ATOM     33  C   UNL     1       8.498  -2.097  -8.357  0.00  0.00    +0.004 A 
ATOM     34  C   UNL     1       9.492  -1.571  -7.553  0.00  0.00    -0.046 A 
ATOM     35  C   UNL     1       9.210  -1.210  -6.250  0.00  0.00    -0.026 A 
ATOM     36  C   UNL     1      10.293  -0.630  -5.376  0.00  0.00    +0.046 C 
ATOM     37  C   UNL     1      10.884  -1.385  -8.100  0.00  0.00    +0.044 C 
ENDBRANCH  28  30
ENDBRANCH  25  26
ENDBRANCH  22  25
ENDBRANCH  21  22
ENDBRANCH   2  21
TORSDOF 8
