REMARK  Name = ZINC38612523
REMARK  7 active torsions:
REMARK  status: ('A' for Active; 'I' for Inactive)
REMARK    1  A    between atoms: C_3  and  C_8
REMARK    2  A    between atoms: N_9  and  N_10
REMARK    3  A    between atoms: C_11  and  C_13
REMARK    4  A    between atoms: C_16  and  C_19
REMARK    5  A    between atoms: C_22  and  O_25
REMARK    6  A    between atoms: O_25  and  C_26
REMARK    7  A    between atoms: C_26  and  C_27
REMARK                            x       y       z     vdW  Elec       q    Type
REMARK                         _______ _______ _______ _____ _____    ______ ____
ROOT
ATOM      1  C   UNL     1       8.462   2.346  -0.068  0.00  0.00    +0.240 C 
ATOM      2  C   UNL     1       8.812   2.789  -1.477  0.00  0.00    +0.041 C 
ATOM      3  C   UNL     1       9.985   2.175  -1.726  0.00  0.00    +0.092 C 
ATOM      4  N   UNL     1      10.368   1.431  -0.655  0.00  0.00    -0.153 NA
ATOM      5  N   UNL     1       9.587   1.472   0.303  0.00  0.00    -0.170 NA
ENDROOT
BRANCH   3   6
ATOM      6  C   UNL     1      10.750   2.292  -2.992  0.00  0.00    +0.002 A 
ATOM      7  C   UNL     1      10.266   3.089  -4.029  0.00  0.00    +0.013 A 
ATOM      8  C   UNL     1      10.980   3.196  -5.204  0.00  0.00    +0.046 A 
ATOM      9  C   UNL     1      12.178   2.512  -5.355  0.00  0.00    +0.121 A 
ATOM     10  C   UNL     1      12.662   1.718  -4.324  0.00  0.00    +0.046 A 
ATOM     11  C   UNL     1      11.956   1.611  -3.145  0.00  0.00    +0.013 A 
BRANCH   9  12
ATOM     12  O   UNL     1      12.879   2.619  -6.514  0.00  0.00    -0.487 OA
BRANCH  12  13
ATOM     13  C   UNL     1      14.103   1.888  -6.603  0.00  0.00    +0.264 C 
BRANCH  13  14
ATOM     14  C   UNL     1      14.735   2.127  -7.949  0.00  0.00    -0.010 A 
ATOM     15  C   UNL     1      14.428   1.300  -9.014  0.00  0.00    +0.008 A 
ATOM     16  C   UNL     1      15.007   1.519 -10.249  0.00  0.00    +0.020 A 
ATOM     17  C   UNL     1      15.895   2.566 -10.421  0.00  0.00    +0.041 A 
ATOM     18  C   UNL     1      16.203   3.393  -9.355  0.00  0.00    +0.020 A 
ATOM     19  C   UNL     1      15.618   3.177  -8.122  0.00  0.00    +0.008 A 
ATOM     20 CL   UNL     1      16.623   2.841 -11.973  0.00  0.00    -0.084 Cl
ENDBRANCH  13  14
ENDBRANCH  12  13
ENDBRANCH   9  12
ENDBRANCH   3   6
BRANCH   1  22
ATOM     21  N   UNL     1       5.991   2.238  -0.044  0.00  0.00    -0.205 N 
ATOM     22  C   UNL     1       7.165   1.577  -0.059  0.00  0.00    +0.263 C 
ATOM     23  O   UNL     1       7.179   0.364  -0.065  0.00  0.00    -0.271 OA
ATOM     24  H   UNL     1       5.979   3.208  -0.039  0.00  0.00    +0.177 HD
BRANCH  21  26
ATOM     25  C   UNL     1       3.654   2.159  -0.022  0.00  0.00    +0.138 C 
ATOM     26  N   UNL     1       4.785   1.524  -0.036  0.00  0.00    -0.188 NA
BRANCH  25  29
ATOM     27  C   UNL     1      -0.017   1.379   0.010  0.00  0.00    +0.002 A 
ATOM     28  C   UNL     1       1.167   2.088   0.002  0.00  0.00    +0.009 A 
ATOM     29  C   UNL     1       2.386   1.407  -0.013  0.00  0.00    -0.004 A 
ATOM     30  C   UNL     1       2.398   0.011  -0.021  0.00  0.00    +0.024 A 
ATOM     31  C   UNL     1       1.207  -0.686  -0.013  0.00  0.00    +0.018 A 
ATOM     32  C   UNL     1       0.002  -0.004   0.002  0.00  0.00    +0.015 A 
ATOM     33 BR   UNL     1       1.220  -2.577  -0.024  0.00  0.00    -0.050 Br
ENDBRANCH  25  29
ENDBRANCH  21  26
ENDBRANCH   1  22
TORSDOF 7
