REMARK  Name = ZINC20833795
REMARK  10 active torsions:
REMARK  status: ('A' for Active; 'I' for Inactive)
REMARK    1  A    between atoms: C_1  and  C_2
REMARK    2  A    between atoms: C_2  and  C_31
REMARK    3  A    between atoms: C_4  and  N_10
REMARK    4  A    between atoms: C_6  and  C_8
REMARK    5  A    between atoms: C_6  and  C_9
REMARK    6  A    between atoms: C_11  and  C_13
REMARK    7  A    between atoms: C_13  and  S_14
REMARK    8  A    between atoms: S_14  and  C_15
REMARK    9  A    between atoms: N_20  and  N_21
REMARK   10  A    between atoms: C_22  and  C_23
REMARK                            x       y       z     vdW  Elec       q    Type
REMARK                         _______ _______ _______ _____ _____    ______ ____
ROOT
ATOM      1  S   UNL     1      -5.525  10.752   0.108  0.00  0.00    -0.075 S 
ENDROOT
BRANCH   1   2
ATOM      2  C   UNL     1      -4.474   9.337   0.091  0.00  0.00    +0.211 A 
ATOM      3  N   UNL     1      -4.883   8.034   0.088  0.00  0.00    -0.186 NA
ATOM      4  C   UNL     1      -3.768   7.242   0.073  0.00  0.00    +0.232 A 
ATOM      5  N   UNL     1      -2.716   8.023   0.073  0.00  0.00    -0.245 N 
ATOM      6  N   UNL     1      -3.162   9.351   0.079  0.00  0.00    -0.144 NA
ATOM      7  N   UNL     1      -3.754   5.854   0.066  0.00  0.00    -0.205 N 
ATOM      8  H   UNL     1      -4.700   5.294   0.072  0.00  0.00    +0.177 HD
ATOM      9  H   UNL     1      -1.706   7.586   0.069  0.00  0.00    +0.192 HD
BRANCH   7  10
ATOM     10  N   UNL     1      -2.533   5.166   0.052  0.00  0.00    -0.188 NA
ATOM     11  C   UNL     1      -2.520   3.868   0.045  0.00  0.00    +0.139 C 
BRANCH  11  12
ATOM     12  C   UNL     1      -1.236   3.144   0.029  0.00  0.00    +0.014 A 
ATOM     13  C   UNL     1      -1.217   1.747   0.017  0.00  0.00    +0.011 A 
ATOM     14  C   UNL     1      -0.013   1.076   0.008  0.00  0.00    +0.002 A 
ATOM     15  C   UNL     1       1.178   1.782   0.000  0.00  0.00    +0.021 A 
ATOM     16  C   UNL     1       1.169   3.166   0.007  0.00  0.00    +0.060 A 
ATOM     17  C   UNL     1      -0.030   3.852   0.022  0.00  0.00    +0.068 A 
ATOM     18 CL   UNL     1      -0.041   5.588   0.030  0.00  0.00    -0.081 Cl
ATOM     19 CL   UNL     1       2.668   4.042  -0.002  0.00  0.00    -0.082 Cl
ENDBRANCH  11  12
ENDBRANCH   7  10
ENDBRANCH   1   2
BRANCH   1  20
ATOM     20  C   UNL     1      -4.373  12.153   0.105  0.00  0.00    +0.173 C 
BRANCH  20  22
ATOM     21  N   UNL     1      -4.502  14.624   0.119  0.00  0.00    -0.312 N 
ATOM     22  C   UNL     1      -5.152  13.443   0.119  0.00  0.00    +0.224 C 
ATOM     23  O   UNL     1      -6.365  13.419   0.130  0.00  0.00    -0.275 OA
ATOM     24  H   UNL     1      -3.402  14.645   0.110  0.00  0.00    +0.149 HD
BRANCH  21  28
ATOM     25  C   UNL     1      -6.210  18.290   1.860  0.00  0.00    -0.010 C 
ATOM     26  C   UNL     1      -5.154  18.309   0.749  0.00  0.00    -0.072 C 
ATOM     27  C   UNL     1      -4.396  16.984   0.741  0.00  0.00    +0.009 C 
ATOM     28  C   UNL     1      -5.261  15.880   0.133  0.00  0.00    +0.070 C 
ATOM     29  C   UNL     1      -5.611  16.273  -1.302  0.00  0.00    +0.009 C 
ATOM     30  C   UNL     1      -6.382  17.590  -1.321  0.00  0.00    -0.072 C 
ATOM     31  N   UNL     1      -5.749  18.627  -0.533  0.00  0.00    +0.386 N 
ATOM     32  C   UNL     1      -7.824  17.346  -0.859  0.00  0.00    -0.010 C 
ATOM     33  C   UNL     1      -6.447  18.071  -2.788  0.00  0.00    -0.010 C 
ATOM     34  C   UNL     1      -4.141  19.422   1.099  0.00  0.00    -0.010 C 
ATOM     35  H   UNL     1      -6.545  19.373  -0.393  0.00  0.00    -0.084 HD
ATOM     36  H   UNL     1      -4.978  19.034  -1.204  0.00  0.00    -0.084 HD
ENDBRANCH  21  28
ENDBRANCH  20  22
ENDBRANCH   1  20
TORSDOF 6
