REMARK  Name = ZINC43093330
REMARK  13 active torsions:
REMARK  status: ('A' for Active; 'I' for Inactive)
REMARK    1  A    between atoms: C_1  and  C_2
REMARK    2  A    between atoms: C_2  and  C_3
REMARK    3  A    between atoms: C_3  and  C_5
REMARK    4  A    between atoms: C_3  and  N_22
REMARK    5  A    between atoms: C_5  and  C_7
REMARK    6  A    between atoms: C_5  and  N_14
REMARK    7  A    between atoms: N_14  and  C_15
REMARK    8  A    between atoms: N_14  and  C_19
REMARK    9  A    between atoms: C_15  and  C_16
REMARK   10  A    between atoms: C_16  and  C_17
REMARK   11  A    between atoms: C_17  and  O_18
REMARK   12  A    between atoms: C_19  and  C_20
REMARK   13  A    between atoms: C_19  and  C_21
REMARK                            x       y       z     vdW  Elec       q    Type
REMARK                         _______ _______ _______ _____ _____    ______ ____
ROOT
ATOM      1  C   UNL     1      -1.030  -2.802   0.004  0.00  0.00    -0.051 C 
ENDROOT
BRANCH   1   2
ATOM      2  C   UNL     1      -1.861  -4.055  -0.099  0.00  0.00    -0.048 A 
ATOM      3  C   UNL     1      -2.625  -4.468   0.976  0.00  0.00    +0.003 A 
ATOM      4  C   UNL     1      -3.388  -5.617   0.882  0.00  0.00    +0.000 A 
ATOM      5  C   UNL     1      -3.388  -6.353  -0.289  0.00  0.00    +0.001 A 
ATOM      6  C   UNL     1      -2.625  -5.940  -1.365  0.00  0.00    +0.015 A 
ATOM      7  C   UNL     1      -1.865  -4.788  -1.272  0.00  0.00    +0.019 A 
ATOM      8 BR   UNL     1      -0.826  -4.219  -2.746  0.00  0.00    -0.050 Br
ENDBRANCH   1   2
BRANCH   1   9
ATOM      9  N   UNL     1      -0.629  -2.594   1.402  0.00  0.00    +0.385 N 
ATOM     10  H   UNL     1      -0.504  -3.488   1.853  0.00  0.00    -0.081 HD
BRANCH   9  11
ATOM     11  C   UNL     1       0.633  -1.844   1.443  0.00  0.00    -0.074 C 
ATOM     12  C   UNL     1       1.411  -2.224   2.705  0.00  0.00    -0.013 C 
ATOM     13  C   UNL     1       1.468  -2.183   0.207  0.00  0.00    -0.013 C 
ENDBRANCH   9  11
BRANCH   9  14
ATOM     14  C   UNL     1      -1.674  -1.834   2.102  0.00  0.00    -0.075 C 
BRANCH  14  15
ATOM     15  C   UNL     1      -1.313  -1.719   3.585  0.00  0.00    +0.009 C 
BRANCH  15  16
ATOM     16  C   UNL     1      -2.473  -1.071   4.343  0.00  0.00    +0.154 C 
BRANCH  16  17
ATOM     17  O   UNL     1      -2.136  -0.964   5.728  0.00  0.00    -0.395 OA
ATOM     18  H   UNL     1      -2.828  -0.561   6.271  0.00  0.00    +0.209 HD
ENDBRANCH  16  17
ENDBRANCH  15  16
ENDBRANCH  14  15
ENDBRANCH   9  14
ENDBRANCH   1   9
BRANCH   1  19
ATOM     19  C   UNL     1      -1.851  -1.604  -0.475  0.00  0.00    -0.085 C 
BRANCH  19  20
ATOM     20  N   UNL     1      -2.341  -1.859  -1.836  0.00  0.00    +0.379 N 
ATOM     21  H   UNL     1      -2.921  -2.685  -1.836  0.00  0.00    -0.090 HD
ATOM     22  H   UNL     1      -2.883  -1.068  -2.152  0.00  0.00    -0.090 HD
ATOM     23  H   UNL     1      -1.557  -1.998  -2.456  0.00  0.00    -0.090 HD
ENDBRANCH  19  20
BRANCH  19  25
ATOM     24  C   UNL     1      -1.789   0.844  -0.975  0.00  0.00    +0.002 C 
ATOM     25  C   UNL     1      -0.973  -0.351  -0.476  0.00  0.00    -0.021 C 
ENDBRANCH  19  25
ENDBRANCH   1  19
TORSDOF 10
