REMARK  Name = ZINC39982313
REMARK  6 active torsions:
REMARK  status: ('A' for Active; 'I' for Inactive)
REMARK    1  A    between atoms: C_1  and  O_2
REMARK    2  A    between atoms: O_2  and  C_3
REMARK    3  A    between atoms: C_15  and  S_17
REMARK    4  A    between atoms: S_17  and  C_18
REMARK    5  A    between atoms: C_18  and  C_19
REMARK    6  A    between atoms: N_21  and  C_22
REMARK                            x       y       z     vdW  Elec       q    Type
REMARK                         _______ _______ _______ _____ _____    ______ ____
ROOT
ATOM      1  C   UNL     1       0.625  -0.617   1.040  0.00  0.00    +0.121 A 
ATOM      2  C   UNL     1       1.201   0.175   2.051  0.00  0.00    +0.047 A 
ATOM      3  C   UNL     1       1.840  -0.374   3.106  0.00  0.00    +0.029 A 
ATOM      4  C   UNL     1       1.937  -1.838   3.205  0.00  0.00    +0.046 A 
ATOM      5  N   UNL     1       2.461  -2.616   4.119  0.00  0.00    -0.358 N 
ATOM      6  C   UNL     1       2.392  -3.994   3.661  0.00  0.00    +0.252 C 
ATOM      7  C   UNL     1       1.502  -3.977   2.431  0.00  0.00    +0.117 C 
ATOM      8  C   UNL     1       1.308  -2.648   2.129  0.00  0.00    +0.028 A 
ATOM      9  C   UNL     1       0.666  -1.976   1.070  0.00  0.00    +0.057 A 
ATOM     10  N   UNL     1       0.967  -5.093   1.937  0.00  0.00    -0.147 NA
ATOM     11  N   UNL     1       0.779  -6.051   2.794  0.00  0.00    -0.122 NA
ATOM     12  C   UNL     1       1.047  -5.899   4.112  0.00  0.00    +0.208 C 
ATOM     13  N   UNL     1       1.779  -4.926   4.606  0.00  0.00    -0.227 NA
ATOM     14  H   UNL     1       2.834  -2.321   4.965  0.00  0.00    +0.162 HD
ENDROOT
BRANCH   1  16
ATOM     15  C   UNL     1      -0.017   1.425   0.010  0.00  0.00    +0.277 C 
ATOM     16  O   UNL     1       0.002  -0.004   0.002  0.00  0.00    -0.495 OA
ENDBRANCH   1  16
BRANCH  12  17
ATOM     17  S   UNL     1       0.377  -7.082   5.235  0.00  0.00    -0.075 S 
BRANCH  17  18
ATOM     18  C   UNL     1       0.961  -6.524   6.859  0.00  0.00    +0.173 C 
BRANCH  18  19
ATOM     19  C   UNL     1       0.452  -7.461   7.925  0.00  0.00    +0.224 C 
ATOM     20  O   UNL     1      -0.236  -8.411   7.618  0.00  0.00    -0.275 OA
ATOM     21  N   UNL     1       0.763  -7.242   9.218  0.00  0.00    -0.309 N 
ATOM     22  H   UNL     1       1.313  -6.482   9.463  0.00  0.00    +0.149 HD
BRANCH  21  23
ATOM     23  C   UNL     1       0.268  -8.153  10.253  0.00  0.00    +0.035 C 
ATOM     24  C   UNL     1      -1.262  -8.162  10.237  0.00  0.00    +0.029 C 
ATOM     25  C   UNL     1      -1.778  -9.113  11.318  0.00  0.00    -0.008 C 
ATOM     26  C   UNL     1      -1.286  -8.643  12.688  0.00  0.00    +0.007 C 
ATOM     27  C   UNL     1       0.244  -8.634  12.705  0.00  0.00    -0.008 C 
ATOM     28  C   UNL     1       0.760  -7.683  11.623  0.00  0.00    +0.029 C 
ATOM     29  C   UNL     1       0.765 -10.046  12.433  0.00  0.00    +0.007 C 
ATOM     30  C   UNL     1       0.273 -10.517  11.063  0.00  0.00    -0.008 C 
ATOM     31  C   UNL     1      -1.257 -10.525  11.046  0.00  0.00    +0.007 C 
ATOM     32  C   UNL     1       0.789  -9.566   9.982  0.00  0.00    +0.029 C 
ENDBRANCH  21  23
ENDBRANCH  18  19
ENDBRANCH  17  18
ENDBRANCH  12  17
TORSDOF 5
