REMARK  Name = ZINC01058254
REMARK  9 active torsions:
REMARK  status: ('A' for Active; 'I' for Inactive)
REMARK    1  A    between atoms: C_1  and  C_2
REMARK    2  A    between atoms: C_2  and  C_4
REMARK    3  A    between atoms: C_8  and  N_10
REMARK    4  A    between atoms: N_10  and  C_11
REMARK    5  A    between atoms: N_10  and  S_31
REMARK    6  A    between atoms: C_11  and  C_12
REMARK    7  A    between atoms: N_14  and  C_15
REMARK    8  A    between atoms: C_18  and  C_21
REMARK    9  A    between atoms: S_31  and  C_34
REMARK                            x       y       z     vdW  Elec       q    Type
REMARK                         _______ _______ _______ _____ _____    ______ ____
ROOT
ATOM      1  C   UNL     1      -3.385  -0.578   4.000  0.00  0.00    +0.236 C 
ATOM      2  O   UNL     1      -4.081  -0.711   4.984  0.00  0.00    -0.274 OA
ATOM      3  N   UNL     1      -2.229  -1.264   3.895  0.00  0.00    -0.284 N 
ATOM      4  H   UNL     1      -1.641  -1.109   3.140  0.00  0.00    +0.155 HD
ENDROOT
BRANCH   3   5
ATOM      5  C   UNL     1      -1.879  -2.199   4.875  0.00  0.00    +0.033 A 
ATOM      6  C   UNL     1      -0.545  -2.381   5.218  0.00  0.00    +0.023 A 
ATOM      7  C   UNL     1      -0.203  -3.301   6.189  0.00  0.00    +0.006 A 
ATOM      8  C   UNL     1      -1.185  -4.048   6.812  0.00  0.00    -0.044 A 
ATOM      9  C   UNL     1      -2.514  -3.874   6.469  0.00  0.00    +0.006 A 
ATOM     10  C   UNL     1      -2.863  -2.951   5.502  0.00  0.00    +0.023 A 
BRANCH   8  11
ATOM     11  C   UNL     1      -0.808  -5.056   7.868  0.00  0.00    +0.025 C 
ATOM     12  C   UNL     1      -1.970  -5.228   8.848  0.00  0.00    -0.003 C 
ATOM     13  C   UNL     1      -2.279  -3.885   9.513  0.00  0.00    +0.007 C 
ATOM     14  C   UNL     1      -1.043  -3.393  10.268  0.00  0.00    -0.010 C 
ATOM     15  C   UNL     1      -0.659  -4.416  11.339  0.00  0.00    +0.007 C 
ATOM     16  C   UNL     1      -0.350  -5.759  10.675  0.00  0.00    -0.010 C 
ATOM     17  C   UNL     1      -1.587  -6.251   9.919  0.00  0.00    +0.007 C 
ATOM     18  C   UNL     1       0.812  -5.587   9.694  0.00  0.00    +0.007 C 
ATOM     19  C   UNL     1       0.428  -4.564   8.623  0.00  0.00    -0.003 C 
ATOM     20  C   UNL     1       0.119  -3.221   9.288  0.00  0.00    +0.007 C 
ENDBRANCH   8  11
ENDBRANCH   3   5
BRANCH   1  21
ATOM     21  C   UNL     1      -3.812   0.353   2.895  0.00  0.00    +0.227 C 
BRANCH  21  22
ATOM     22  N   UNL     1      -5.092   0.973   3.246  0.00  0.00    -0.199 N 
BRANCH  22  27
ATOM     23  C   UNL     1      -7.810  -0.686   1.388  0.00  0.00    +0.019 A 
ATOM     24  C   UNL     1      -8.676  -1.012   2.437  0.00  0.00    +0.011 A 
ATOM     25  C   UNL     1      -8.345  -0.677   3.734  0.00  0.00    +0.003 A 
ATOM     26  C   UNL     1      -7.156  -0.025   4.003  0.00  0.00    +0.025 A 
ATOM     27  C   UNL     1      -6.290   0.309   2.968  0.00  0.00    +0.052 A 
ATOM     28  C   UNL     1      -6.611  -0.021   1.661  0.00  0.00    +0.036 A 
BRANCH  23  30
ATOM     29  C   UNL     1      -9.453  -1.758  -0.287  0.00  0.00    +0.091 C 
ATOM     30  C   UNL     1      -8.159  -1.041   0.004  0.00  0.00    +0.160 C 
ATOM     31  O   UNL     1      -7.406  -0.758  -0.904  0.00  0.00    -0.292 OA
ENDBRANCH  23  30
ENDBRANCH  22  27
BRANCH  22  32
ATOM     32  S   UNL     1      -5.120   2.461   3.973  0.00  0.00    +0.043 S 
ATOM     33  O   UNL     1      -3.924   2.512   4.739  0.00  0.00    -0.155 OA
ATOM     34  O   UNL     1      -6.389   2.531   4.608  0.00  0.00    -0.155 OA
ATOM     35  C   UNL     1      -5.038   3.649   2.606  0.00  0.00    +0.218 C 
ENDBRANCH  22  32
ENDBRANCH  21  22
ENDBRANCH   1  21
TORSDOF 7
