REMARK  Name = ZINC23448456
REMARK  7 active torsions:
REMARK  status: ('A' for Active; 'I' for Inactive)
REMARK    1  A    between atoms: C_1  and  C_2
REMARK    2  A    between atoms: C_2  and  C_25
REMARK    3  A    between atoms: N_5  and  C_9
REMARK    4  A    between atoms: C_9  and  C_10
REMARK    5  A    between atoms: N_12  and  C_13
REMARK    6  A    between atoms: N_12  and  C_19
REMARK    7  A    between atoms: C_28  and  C_31
REMARK                            x       y       z     vdW  Elec       q    Type
REMARK                         _______ _______ _______ _____ _____    ______ ____
ROOT
ATOM      1  C   UNL     1      -0.344   1.480  -1.210  0.00  0.00    +0.047 C 
ATOM      2  C   UNL     1      -0.246  -0.003  -0.849  0.00  0.00    +0.135 C 
ATOM      3  C   UNL     1       0.765  -0.703  -1.735  0.00  0.00    +0.251 C 
ATOM      4  O   UNL     1       0.725  -0.819  -2.941  0.00  0.00    -0.272 OA
ATOM      5  N   UNL     1       1.719  -1.167  -0.904  0.00  0.00    -0.215 N 
ATOM      6  C   UNL     1       1.454  -0.861   0.371  0.00  0.00    +0.310 C 
ATOM      7  O   UNL     1       2.168  -1.173   1.304  0.00  0.00    -0.252 OA
ATOM      8  N   UNL     1       0.307  -0.171   0.506  0.00  0.00    -0.281 N 
ATOM      9  H   UNL     1      -0.080   0.154   1.335  0.00  0.00    +0.152 HD
ENDROOT
BRANCH   2  10
ATOM     10  C   UNL     1      -1.596  -0.664  -0.955  0.00  0.00    -0.015 A 
ATOM     11  C   UNL     1      -1.984  -1.250  -2.148  0.00  0.00    +0.007 A 
ATOM     12  C   UNL     1      -3.218  -1.857  -2.252  0.00  0.00    +0.019 A 
ATOM     13  C   UNL     1      -4.077  -1.879  -1.152  0.00  0.00    +0.052 A 
ATOM     14  C   UNL     1      -3.679  -1.287   0.049  0.00  0.00    +0.019 A 
ATOM     15  C   UNL     1      -2.440  -0.688   0.141  0.00  0.00    +0.007 A 
BRANCH  13  16
ATOM     16  C   UNL     1      -5.360  -2.507  -1.253  0.00  0.00    +0.099 C 
ATOM     17  N   UNL     1      -6.378  -3.005  -1.334  0.00  0.00    -0.191 NA
ENDBRANCH  13  16
ENDBRANCH   2  10
BRANCH   5  18
ATOM     18  C   UNL     1       2.900  -1.915  -1.342  0.00  0.00    +0.213 C 
BRANCH  18  19
ATOM     19  C   UNL     1       4.023  -0.953  -1.636  0.00  0.00    +0.234 C 
ATOM     20  O   UNL     1       3.923   0.212  -1.315  0.00  0.00    -0.274 OA
ATOM     21  N   UNL     1       5.139  -1.388  -2.254  0.00  0.00    -0.294 N 
BRANCH  21  22
ATOM     22  C   UNL     1       6.293  -0.497  -2.396  0.00  0.00    +0.076 C 
ATOM     23  C   UNL     1       6.781  -0.070  -1.010  0.00  0.00    +0.022 C 
ATOM     24  C   UNL     1       7.986   0.861  -1.159  0.00  0.00    +0.002 C 
ATOM     25  C   UNL     1       7.579   2.099  -1.960  0.00  0.00    +0.000 C 
ATOM     26  C   UNL     1       7.090   1.672  -3.345  0.00  0.00    +0.002 C 
ATOM     27  C   UNL     1       5.885   0.742  -3.197  0.00  0.00    +0.022 C 
ENDBRANCH  21  22
BRANCH  21  28
ATOM     28  C   UNL     1       5.197  -2.752  -2.785  0.00  0.00    +0.076 C 
ATOM     29  C   UNL     1       4.188  -2.900  -3.925  0.00  0.00    +0.022 C 
ATOM     30  C   UNL     1       4.249  -4.325  -4.479  0.00  0.00    +0.002 C 
ATOM     31  C   UNL     1       3.911  -5.319  -3.367  0.00  0.00    +0.000 C 
ATOM     32  C   UNL     1       4.920  -5.172  -2.227  0.00  0.00    +0.002 C 
ATOM     33  C   UNL     1       4.859  -3.747  -1.673  0.00  0.00    +0.022 C 
ENDBRANCH  21  28
ENDBRANCH  18  19
ENDBRANCH   5  18
TORSDOF 6
