REMARK  Name = ZINC09329884
REMARK  13 active torsions:
REMARK  status: ('A' for Active; 'I' for Inactive)
REMARK    1  A    between atoms: C_1  and  C_2
REMARK    2  A    between atoms: C_2  and  N_60
REMARK    3  A    between atoms: C_3  and  C_4
REMARK    4  A    between atoms: C_3  and  N_60
REMARK    5  A    between atoms: C_5  and  C_6
REMARK    6  A    between atoms: C_5  and  N_60
REMARK    7  A    between atoms: C_6  and  N_7
REMARK    8  A    between atoms: C_8  and  C_26
REMARK    9  A    between atoms: C_11  and  C_12
REMARK   10  A    between atoms: C_11  and  O_21
REMARK   11  A    between atoms: C_15  and  N_18
REMARK   12  A    between atoms: C_29  and  O_32
REMARK   13  A    between atoms: O_32  and  C_33
REMARK                            x       y       z     vdW  Elec       q    Type
REMARK                         _______ _______ _______ _____ _____    ______ ____
ROOT
ATOM      1  N   UNL     1      -1.913   5.711   0.243  0.00  0.00    -0.285 N 
ATOM      2  C   UNL     1      -2.394   4.329   0.152  0.00  0.00    +0.144 C 
ATOM      3  C   UNL     1      -1.175   3.458  -0.041  0.00  0.00    +0.071 C 
ATOM      4  C   UNL     1      -1.150   2.085  -0.175  0.00  0.00    +0.133 C 
ATOM      5  C   UNL     1      -0.073   4.329  -0.064  0.00  0.00    +0.249 C 
ATOM      6  O   UNL     1       1.092   4.003  -0.205  0.00  0.00    -0.282 OA
ATOM      7  C   UNL     1      -0.576   5.718   0.116  0.00  0.00    +0.288 C 
ATOM      8  O   UNL     1       0.121   6.712   0.144  0.00  0.00    -0.266 OA
ENDROOT
BRANCH   4   9
ATOM      9  C   UNL     1       0.131   1.389  -0.394  0.00  0.00    +0.017 A 
ATOM     10  C   UNL     1       0.959   1.761  -1.457  0.00  0.00    +0.014 A 
ATOM     11  C   UNL     1       2.154   1.102  -1.658  0.00  0.00    +0.033 A 
ATOM     12  C   UNL     1       2.533   0.075  -0.812  0.00  0.00    +0.126 A 
ATOM     13  C   UNL     1       1.717  -0.299   0.243  0.00  0.00    +0.033 A 
ATOM     14  C   UNL     1       0.520   0.351   0.458  0.00  0.00    +0.014 A 
BRANCH  12  15
ATOM     15  N   UNL     1       3.816  -0.628  -1.035  0.00  0.00    +0.056 N 
ATOM     16  O   UNL     1       4.153  -1.532  -0.292  0.00  0.00    -0.126 OA
ATOM     17  O   UNL     1       4.536  -0.301  -1.962  0.00  0.00    -0.126 OA
ENDBRANCH  12  15
ENDBRANCH   4   9
BRANCH   2  18
ATOM     18  C   UNL     1      -3.104   3.948   1.426  0.00  0.00    -0.022 A 
ATOM     19  C   UNL     1      -2.613   4.378   2.645  0.00  0.00    +0.009 A 
ATOM     20  C   UNL     1      -3.265   4.035   3.813  0.00  0.00    +0.046 A 
ATOM     21  C   UNL     1      -4.407   3.248   3.764  0.00  0.00    +0.120 A 
ATOM     22  C   UNL     1      -4.894   2.813   2.540  0.00  0.00    +0.046 A 
ATOM     23  C   UNL     1      -4.242   3.164   1.374  0.00  0.00    +0.009 A 
BRANCH  21  24
ATOM     24  O   UNL     1      -5.046   2.903   4.912  0.00  0.00    -0.495 OA
ATOM     25  C   UNL     1      -4.488   3.387   6.136  0.00  0.00    +0.277 C 
ENDBRANCH  21  24
ENDBRANCH   2  18
BRANCH   4  26
ATOM     26  O   UNL     1      -2.298   1.379  -0.105  0.00  0.00    -0.506 OA
ATOM     27  H   UNL     1      -2.099   0.406  -0.221  0.00  0.00    +0.292 HD
ENDBRANCH   4  26
BRANCH   1  28
ATOM     28  C   UNL     1      -2.756   6.894   0.436  0.00  0.00    +0.090 C 
BRANCH  28  29
ATOM     29  C   UNL     1      -3.185   7.441  -0.927  0.00  0.00    -0.060 C 
BRANCH  29  30
ATOM     30  N   UNL     1      -4.050   8.621  -0.716  0.00  0.00    +0.380 N 
ATOM     31  H   UNL     1      -4.801   8.371  -0.061  0.00  0.00    -0.082 HD
BRANCH  30  33
ATOM     32  C   UNL     1      -2.160  10.164  -1.111  0.00  0.00    -0.017 C 
ATOM     33  C   UNL     1      -3.261   9.730  -0.141  0.00  0.00    -0.082 C 
ENDBRANCH  30  33
BRANCH  30  34
ATOM     34  C   UNL     1      -4.653   9.041  -1.998  0.00  0.00    -0.082 C 
ATOM     35  C   UNL     1      -5.796  10.016  -1.708  0.00  0.00    -0.017 C 
ENDBRANCH  30  34
ENDBRANCH  29  30
ENDBRANCH  28  29
ENDBRANCH   1  28
TORSDOF 10
