REMARK  Name = ZINC43387404
REMARK  4 active torsions:
REMARK  status: ('A' for Active; 'I' for Inactive)
REMARK    1  A    between atoms: C_2  and  C_9
REMARK    2  A    between atoms: C_11  and  C_14
REMARK    3  A    between atoms: C_14  and  N_15
REMARK    4  A    between atoms: C_17  and  N_20
REMARK                            x       y       z     vdW  Elec       q    Type
REMARK                         _______ _______ _______ _____ _____    ______ ____
ROOT
ATOM      1  C   UNL     1       1.166   3.573   0.010  0.00  0.00    +0.202 A 
ATOM      2  N   UNL     1       2.251   4.369  -0.002  0.00  0.00    -0.190 NA
ATOM      3  C   UNL     1       1.886   5.620   0.009  0.00  0.00    +0.249 A 
ATOM      4  O   UNL     1       0.548   5.672   0.028  0.00  0.00    -0.336 OA
ATOM      5  N   UNL     1       0.094   4.327   0.023  0.00  0.00    -0.056 NA
ENDROOT
BRANCH   1   7
ATOM      6  C   UNL     1      -0.017   1.378   0.010  0.00  0.00    +0.050 A 
ATOM      7  C   UNL     1       1.181   2.089   0.002  0.00  0.00    +0.028 A 
ATOM      8  C   UNL     1       2.393   1.403  -0.013  0.00  0.00    +0.050 A 
ATOM      9  C   UNL     1       2.403   0.021  -0.021  0.00  0.00    +0.127 A 
ATOM     10  C   UNL     1       1.210  -0.682  -0.014  0.00  0.00    +0.076 A 
ATOM     11  C   UNL     1       0.002  -0.004   0.002  0.00  0.00    +0.127 A 
ATOM     12  F   UNL     1      -1.159  -0.695   0.009  0.00  0.00    -0.205 F 
ATOM     13  F   UNL     1       3.578  -0.646  -0.036  0.00  0.00    -0.205 F 
ENDBRANCH   1   7
BRANCH   3  14
ATOM     14  C   UNL     1       2.814   6.807   0.002  0.00  0.00    +0.242 C 
BRANCH  14  15
ATOM     15  N   UNL     1       3.095   7.199  -1.382  0.00  0.00    -0.261 N 
ATOM     16  C   UNL     1       2.913   8.435  -1.917  0.00  0.00    +0.131 A 
ATOM     17  C   UNL     1       3.292   8.378  -3.219  0.00  0.00    +0.063 A 
ATOM     18  C   UNL     1       3.717   7.069  -3.486  0.00  0.00    +0.157 A 
ATOM     19  N   UNL     1       3.605   6.367  -2.387  0.00  0.00    -0.177 NA
BRANCH  17  20
ATOM     20  N   UNL     1       3.263   9.444  -4.138  0.00  0.00    -0.356 N 
ATOM     21  H   UNL     1       2.950  10.318  -3.857  0.00  0.00    +0.142 HD
ATOM     22  H   UNL     1       3.555   9.304  -5.052  0.00  0.00    +0.142 HD
ENDBRANCH  17  20
ENDBRANCH  14  15
ENDBRANCH   3  14
TORSDOF 4
