REMARK  Name = ZINC14472449
REMARK  10 active torsions:
REMARK  status: ('A' for Active; 'I' for Inactive)
REMARK    1  A    between atoms: C_1  and  C_2
REMARK    2  A    between atoms: C_2  and  N_62
REMARK    3  A    between atoms: C_3  and  C_4
REMARK    4  A    between atoms: C_3  and  N_62
REMARK    5  A    between atoms: C_5  and  C_6
REMARK    6  A    between atoms: C_5  and  N_62
REMARK    7  A    between atoms: C_6  and  N_7
REMARK    8  A    between atoms: C_8  and  C_10
REMARK    9  A    between atoms: C_23  and  C_26
REMARK   10  A    between atoms: C_30  and  N_32
REMARK                            x       y       z     vdW  Elec       q    Type
REMARK                         _______ _______ _______ _____ _____    ______ ____
ROOT
ATOM      1  C   UNL     1      -1.236   1.758   0.018  0.00  0.00    +0.037 A 
ATOM      2  C   UNL     1      -1.262   3.155   0.056  0.00  0.00    +0.015 A 
ATOM      3  C   UNL     1      -0.078   3.856   0.060  0.00  0.00    +0.024 A 
ATOM      4  C   UNL     1       1.138   3.178   0.030  0.00  0.00    +0.031 A 
ATOM      5  C   UNL     1       1.175   1.789  -0.004  0.00  0.00    -0.019 A 
ATOM      6  C   UNL     1      -0.015   1.084  -0.006  0.00  0.00    +0.019 A 
ATOM      7  C   UNL     1       2.460   1.024  -0.038  0.00  0.00    +0.049 C 
ATOM      8  C   UNL     1       2.729   0.462  -1.414  0.00  0.00    -0.023 C 
ATOM      9  C   UNL     1       4.012   0.503  -1.678  0.00  0.00    -0.030 C 
ATOM     10  C   UNL     1       4.777   1.094  -0.509  0.00  0.00    +0.033 C 
ATOM     11  C   UNL     1       3.691   1.902   0.260  0.00  0.00    +0.029 C 
ATOM     12  C   UNL     1       3.548   3.256  -0.442  0.00  0.00    +0.105 C 
ATOM     13  N   UNL     1       2.324   3.910   0.031  0.00  0.00    -0.336 N 
ATOM     14  H   UNL     1       2.339   4.830   0.338  0.00  0.00    +0.147 HD
ENDROOT
BRANCH  12  15
ATOM     15  C   UNL     1       4.739   4.120  -0.119  0.00  0.00    -0.025 A 
ATOM     16  C   UNL     1       4.796   4.797   1.085  0.00  0.00    +0.005 A 
ATOM     17  C   UNL     1       5.890   5.587   1.384  0.00  0.00    +0.003 A 
ATOM     18  C   UNL     1       6.924   5.707   0.474  0.00  0.00    +0.033 A 
ATOM     19  C   UNL     1       6.865   5.034  -0.732  0.00  0.00    +0.127 A 
ATOM     20  C   UNL     1       5.772   4.241  -1.029  0.00  0.00    +0.038 A 
BRANCH  19  21
ATOM     21  N   UNL     1       7.972   5.163  -1.706  0.00  0.00    +0.056 N 
ATOM     22  O   UNL     1       7.920   4.571  -2.769  0.00  0.00    -0.126 OA
ATOM     23  O   UNL     1       8.935   5.862  -1.445  0.00  0.00    -0.126 OA
ENDBRANCH  19  21
ENDBRANCH  12  15
BRANCH   1  25
ATOM     24  N   UNL     1      -3.679   1.647   0.031  0.00  0.00    -0.313 N 
ATOM     25  C   UNL     1      -2.499   0.996   0.008  0.00  0.00    +0.244 C 
ATOM     26  O   UNL     1      -2.476  -0.219  -0.021  0.00  0.00    -0.270 OA
ATOM     27  H   UNL     1      -3.697   2.617   0.055  0.00  0.00    +0.149 HD
BRANCH  24  28
ATOM     28  C   UNL     1      -4.934   0.891   0.021  0.00  0.00    +0.086 C 
BRANCH  28  29
ATOM     29  C   UNL     1      -6.115   1.863   0.053  0.00  0.00    -0.060 C 
BRANCH  29  30
ATOM     30  N   UNL     1      -7.367   1.092  -0.102  0.00  0.00    +0.380 N 
ATOM     31  H   UNL     1      -7.229   0.374  -0.823  0.00  0.00    -0.082 HD
BRANCH  30  33
ATOM     32  C   UNL     1      -8.876  -0.533   0.931  0.00  0.00    -0.017 C 
ATOM     33  C   UNL     1      -7.713   0.430   1.174  0.00  0.00    -0.082 C 
ENDBRANCH  30  33
BRANCH  30  34
ATOM     34  C   UNL     1      -8.464   1.989  -0.520  0.00  0.00    -0.082 C 
ATOM     35  C   UNL     1      -8.309   2.291  -2.011  0.00  0.00    -0.017 C 
ENDBRANCH  30  34
ENDBRANCH  29  30
ENDBRANCH  28  29
ENDBRANCH  24  28
ENDBRANCH   1  25
TORSDOF 8
