REMARK  Name = ZINC08918270
REMARK  13 active torsions:
REMARK  status: ('A' for Active; 'I' for Inactive)
REMARK    1  A    between atoms: C_1  and  C_2
REMARK    2  A    between atoms: C_5  and  S_8
REMARK    3  A    between atoms: S_8  and  N_11
REMARK    4  A    between atoms: N_11  and  C_12
REMARK    5  A    between atoms: C_12  and  C_14
REMARK    6  A    between atoms: C_12  and  C_18
REMARK    7  A    between atoms: C_14  and  C_15
REMARK    8  A    between atoms: C_15  and  S_16
REMARK    9  A    between atoms: S_16  and  C_17
REMARK   10  A    between atoms: C_23  and  C_26
REMARK   11  A    between atoms: N_28  and  C_29
REMARK   12  A    between atoms: N_28  and  C_30
REMARK   13  A    between atoms: C_30  and  C_31
REMARK                            x       y       z     vdW  Elec       q    Type
REMARK                         _______ _______ _______ _____ _____    ______ ____
ROOT
ATOM      1  C   UNL     1      -3.278   2.197  -5.715  0.00  0.00    +0.163 C 
ENDROOT
BRANCH   1   2
ATOM      2  C   UNL     1      -2.171   1.175  -5.697  0.00  0.00    +0.234 C 
ATOM      3  O   UNL     1      -2.244   0.190  -6.400  0.00  0.00    -0.274 OA
ATOM      4  N   UNL     1      -1.100   1.355  -4.899  0.00  0.00    -0.300 N 
ATOM      5  C   UNL     1      -0.047   0.334  -4.817  0.00  0.00    +0.108 C 
ATOM      6  C   UNL     1       0.168  -0.036  -3.346  0.00  0.00    +0.032 C 
ATOM      7  C   UNL     1       0.459   1.233  -2.542  0.00  0.00    +0.078 C 
ATOM      8  C   UNL     1      -0.738   2.182  -2.632  0.00  0.00    +0.032 C 
ATOM      9  C   UNL     1      -0.963   2.577  -4.094  0.00  0.00    +0.108 C 
BRANCH   7  10
ATOM     10  C   UNL     1       0.705   0.868  -1.101  0.00  0.00    +0.219 C 
ATOM     11  O   UNL     1       0.411  -0.236  -0.696  0.00  0.00    -0.275 OA
ATOM     12  N   UNL     1       1.251   1.770  -0.261  0.00  0.00    -0.293 N 
ATOM     13  C   UNL     1       1.513   3.136  -0.723  0.00  0.00    +0.132 C 
BRANCH  12  14
ATOM     14  C   UNL     1       1.582   1.386   1.113  0.00  0.00    +0.232 C 
BRANCH  14  15
ATOM     15  C   UNL     1       0.397   1.646   2.007  0.00  0.00    +0.373 C 
ATOM     16  O   UNL     1      -0.620   2.106   1.544  0.00  0.00    -0.245 OA
ATOM     17  O   UNL     1       0.471   1.367   3.318  0.00  0.00    -0.245 OA
ENDBRANCH  14  15
ENDBRANCH  12  14
ENDBRANCH   7  10
ENDBRANCH   1   2
BRANCH   1  18
ATOM     18  N   UNL     1      -4.231   1.867  -6.777  0.00  0.00    -0.178 NA
ATOM     19  H   UNL     1      -4.456   0.940  -6.956  0.00  0.00    +0.149 HD
BRANCH  18  20
ATOM     20  S   UNL     1      -4.924   3.075  -7.674  0.00  0.00    +0.059 S 
ATOM     21  O   UNL     1      -5.778   2.442  -8.617  0.00  0.00    -0.153 OA
ATOM     22  O   UNL     1      -5.396   4.046  -6.750  0.00  0.00    -0.153 OA
BRANCH  20  27
ATOM     23  C   UNL     1      -0.510   5.704 -10.838  0.00  0.00    +0.044 C 
ATOM     24  C   UNL     1      -1.612   5.048 -10.047  0.00  0.00    -0.050 A 
ATOM     25  C   UNL     1      -2.301   3.975 -10.582  0.00  0.00    +0.005 A 
ATOM     26  C   UNL     1      -3.313   3.372  -9.857  0.00  0.00    +0.029 A 
ATOM     27  C   UNL     1      -3.635   3.842  -8.598  0.00  0.00    +0.105 A 
ATOM     28  C   UNL     1      -2.949   4.918  -8.065  0.00  0.00    +0.029 A 
ATOM     29  C   UNL     1      -1.935   5.518  -8.788  0.00  0.00    +0.005 A 
ENDBRANCH  20  27
ENDBRANCH  18  20
ENDBRANCH   1  18
BRANCH   1  30
ATOM     30  C   UNL     1      -3.998   2.193  -4.365  0.00  0.00    +0.040 C 
BRANCH  30  31
ATOM     31  C   UNL     1      -4.547   0.793  -4.084  0.00  0.00    +0.071 C 
BRANCH  31  32
ATOM     32  S   UNL     1      -5.528   0.824  -2.558  0.00  0.00    -0.164 S 
ATOM     33  C   UNL     1      -6.099  -0.888  -2.369  0.00  0.00    +0.084 C 
ENDBRANCH  31  32
ENDBRANCH  30  31
ENDBRANCH   1  30
TORSDOF 10
