REMARK  Name = ZINC40527369
REMARK  12 active torsions:
REMARK  status: ('A' for Active; 'I' for Inactive)
REMARK    1  A    between atoms: C_1  and  C_2
REMARK    2  A    between atoms: C_2  and  C_3
REMARK    3  A    between atoms: C_3  and  C_4
REMARK    4  A    between atoms: C_4  and  O_5
REMARK    5  A    between atoms: O_5  and  C_6
REMARK    6  A    between atoms: C_9  and  C_12
REMARK    7  A    between atoms: C_12  and  O_14
REMARK    8  A    between atoms: O_14  and  C_15
REMARK    9  A    between atoms: C_22  and  N_37
REMARK   10  A    between atoms: C_23  and  C_35
REMARK   11  A    between atoms: C_24  and  C_26
REMARK   12  A    between atoms: C_30  and  N_32
REMARK                            x       y       z     vdW  Elec       q    Type
REMARK                         _______ _______ _______ _____ _____    ______ ____
ROOT
ATOM      1  C   UNL     1       2.473  -9.892  -4.247  0.00  0.00    +0.135 A 
ATOM      2  C   UNL     1       1.829 -10.628  -3.262  0.00  0.00    +0.047 A 
ATOM      3  C   UNL     1       1.834 -12.007  -3.317  0.00  0.00    +0.012 A 
ATOM      4  C   UNL     1       2.480 -12.662  -4.351  0.00  0.00    +0.008 A 
ATOM      5  C   UNL     1       3.124 -11.932  -5.337  0.00  0.00    +0.138 A 
ATOM      6  C   UNL     1       3.116 -10.544  -5.286  0.00  0.00    +0.093 A 
ATOM      7  O   UNL     1       3.763 -12.556  -6.359  0.00  0.00    -0.441 OA
ATOM      8  C   UNL     1       3.469 -13.833  -6.652  0.00  0.00    +0.199 C 
ATOM      9  C   UNL     1       2.857 -14.651  -5.763  0.00  0.00    +0.098 C 
ATOM     10  C   UNL     1       2.474 -14.167  -4.392  0.00  0.00    +0.098 C 
ENDROOT
BRANCH  10  11
ATOM     11  C   UNL     1       3.458 -14.698  -3.383  0.00  0.00    -0.033 A 
ATOM     12  C   UNL     1       4.796 -14.360  -3.477  0.00  0.00    +0.005 A 
ATOM     13  C   UNL     1       5.699 -14.847  -2.551  0.00  0.00    +0.003 A 
ATOM     14  C   UNL     1       5.264 -15.672  -1.530  0.00  0.00    +0.033 A 
ATOM     15  C   UNL     1       3.928 -16.009  -1.435  0.00  0.00    +0.126 A 
ATOM     16  C   UNL     1       3.024 -15.519  -2.359  0.00  0.00    +0.037 A 
BRANCH  15  17
ATOM     17  N   UNL     1       3.463 -16.893  -0.342  0.00  0.00    +0.056 N 
ATOM     18  O   UNL     1       4.253 -17.320   0.468  0.00  0.00    -0.126 OA
ATOM     19  O   UNL     1       2.293 -17.188  -0.259  0.00  0.00    -0.126 OA
ENDBRANCH  15  17
ENDBRANCH  10  11
BRANCH   8  20
ATOM     20  N   UNL     1       3.799 -14.324  -7.891  0.00  0.00    -0.328 N 
ATOM     21  H   UNL     1       4.237 -13.751  -8.539  0.00  0.00    +0.145 HD
ATOM     22  H   UNL     1       3.593 -15.245  -8.118  0.00  0.00    +0.145 HD
ENDBRANCH   8  20
BRANCH   9  23
ATOM     23  C   UNL     1       2.570 -16.003  -6.135  0.00  0.00    +0.101 C 
ATOM     24  N   UNL     1       2.342 -17.076  -6.431  0.00  0.00    -0.191 NA
ENDBRANCH   9  23
BRANCH   1  25
ATOM     25  O   UNL     1       2.469  -8.534  -4.195  0.00  0.00    -0.422 OA
BRANCH  25  26
ATOM     26  C   UNL     1       1.630  -7.872  -5.016  0.00  0.00    +0.344 C 
ATOM     27  O   UNL     1       0.974  -8.484  -5.836  0.00  0.00    -0.245 OA
BRANCH  26  31
ATOM     28  C   UNL     1       1.282  -3.650  -4.742  0.00  0.00    +0.121 A 
ATOM     29  C   UNL     1       0.530  -4.348  -5.680  0.00  0.00    +0.046 A 
ATOM     30  C   UNL     1       0.640  -5.717  -5.773  0.00  0.00    +0.018 A 
ATOM     31  C   UNL     1       1.510  -6.406  -4.921  0.00  0.00    +0.060 A 
ATOM     32  C   UNL     1       2.264  -5.700  -3.979  0.00  0.00    +0.018 A 
ATOM     33  C   UNL     1       2.152  -4.330  -3.897  0.00  0.00    +0.046 A 
BRANCH  28  34
ATOM     34  O   UNL     1       1.171  -2.300  -4.654  0.00  0.00    -0.492 OA
BRANCH  34  35
ATOM     35  C   UNL     1       0.259  -1.665  -5.552  0.00  0.00    +0.229 C 
BRANCH  35  36
ATOM     36  C   UNL     1       0.270  -0.155  -5.306  0.00  0.00    +0.041 C 
BRANCH  36  38
ATOM     37  C   UNL     1      -0.696   2.036  -6.021  0.00  0.00    +0.004 C 
ATOM     38  C   UNL     1      -0.707   0.526  -6.267  0.00  0.00    -0.000 C 
ENDBRANCH  36  38
ENDBRANCH  35  36
ENDBRANCH  34  35
ENDBRANCH  28  34
ENDBRANCH  26  31
ENDBRANCH  25  26
ENDBRANCH   1  25
TORSDOF 11
