REMARK  Name = ZINC03670276
REMARK  7 active torsions:
REMARK  status: ('A' for Active; 'I' for Inactive)
REMARK    1  A    between atoms: C_1  and  C_2
REMARK    2  A    between atoms: C_2  and  C_3
REMARK    3  A    between atoms: C_3  and  C_4
REMARK    4  A    between atoms: C_4  and  N_5
REMARK    5  A    between atoms: C_6  and  C_8
REMARK    6  A    between atoms: C_8  and  O_26
REMARK    7  A    between atoms: N_18  and  C_19
REMARK                            x       y       z     vdW  Elec       q    Type
REMARK                         _______ _______ _______ _____ _____    ______ ____
ROOT
ATOM      1  C   UNL     1      -4.251  -4.038   0.009  0.00  0.00    +0.247 C 
ATOM      2  C   UNL     1      -4.866  -3.809  -1.352  0.00  0.00    +0.033 A 
ATOM      3  C   UNL     1      -4.135  -3.978  -2.505  0.00  0.00    +0.010 A 
ATOM      4  C   UNL     1      -4.732  -3.759  -3.735  0.00  0.00    +0.001 A 
ATOM      5  C   UNL     1      -6.058  -3.371  -3.801  0.00  0.00    +0.002 A 
ATOM      6  C   UNL     1      -6.794  -3.201  -2.645  0.00  0.00    +0.024 A 
ATOM      7  C   UNL     1      -6.200  -3.420  -1.409  0.00  0.00    +0.043 A 
ATOM      8  N   UNL     1      -6.927  -3.254  -0.230  0.00  0.00    -0.269 N 
ATOM      9  C   UNL     1      -6.399  -3.454   0.985  0.00  0.00    +0.314 C 
ATOM     10  O   UNL     1      -7.108  -3.286   1.959  0.00  0.00    -0.252 OA
ATOM     11  N   UNL     1      -5.122  -3.830   1.178  0.00  0.00    -0.214 N 
ATOM     12  H   UNL     1      -7.856  -2.982  -0.293  0.00  0.00    +0.156 HD
ENDROOT
BRANCH  11  13
ATOM     13  C   UNL     1      -4.628  -4.022   2.474  0.00  0.00    +0.041 A 
ATOM     14  C   UNL     1      -4.166  -2.939   3.209  0.00  0.00    +0.025 A 
ATOM     15  C   UNL     1      -3.679  -3.131   4.488  0.00  0.00    +0.022 A 
ATOM     16  C   UNL     1      -3.652  -4.402   5.035  0.00  0.00    +0.041 A 
ATOM     17  C   UNL     1      -4.113  -5.483   4.304  0.00  0.00    +0.022 A 
ATOM     18  C   UNL     1      -4.606  -5.295   3.028  0.00  0.00    +0.025 A 
ATOM     19 CL   UNL     1      -3.039  -4.640   6.642  0.00  0.00    -0.084 Cl
ENDBRANCH  11  13
BRANCH   1  21
ATOM     20  N   UNL     1      -3.253  -1.795   0.308  0.00  0.00    -0.311 N 
ATOM     21  C   UNL     1      -3.064  -3.119   0.144  0.00  0.00    +0.269 C 
ATOM     22  O   UNL     1      -1.940  -3.571   0.106  0.00  0.00    -0.270 OA
ATOM     23  H   UNL     1      -4.153  -1.433   0.339  0.00  0.00    +0.149 HD
BRANCH  20  24
ATOM     24  C   UNL     1      -2.100  -0.901   0.439  0.00  0.00    +0.104 C 
BRANCH  24  25
ATOM     25  C   UNL     1      -2.588   0.539   0.612  0.00  0.00    +0.018 C 
BRANCH  25  27
ATOM     26  C   UNL     1      -1.871   2.912   0.922  0.00  0.00    +0.004 C 
ATOM     27  C   UNL     1      -1.383   1.472   0.749  0.00  0.00    -0.002 C 
ENDBRANCH  25  27
ENDBRANCH  24  25
ENDBRANCH  20  24
ENDBRANCH   1  21
BRANCH   1  28
ATOM     28  O   UNL     1      -3.769  -5.383   0.053  0.00  0.00    -0.360 OA
ATOM     29  H   UNL     1      -3.140  -5.599  -0.649  0.00  0.00    +0.213 HD
ENDBRANCH   1  28
TORSDOF 6
