REMARK  Name = ZINC10244380
REMARK  6 active torsions:
REMARK  status: ('A' for Active; 'I' for Inactive)
REMARK    1  A    between atoms: N_13  and  C_25
REMARK    2  A    between atoms: C_14  and  S_16
REMARK    3  A    between atoms: S_16  and  C_17
REMARK    4  A    between atoms: C_17  and  C_18
REMARK    5  A    between atoms: C_28  and  O_31
REMARK    6  A    between atoms: O_31  and  C_32
REMARK                            x       y       z     vdW  Elec       q    Type
REMARK                         _______ _______ _______ _____ _____    ______ ____
ROOT
ATOM      1  C   UNL     1       9.442   1.249   0.009  0.00  0.00    +0.001 A 
ATOM      2  C   UNL     1      10.560   1.819  -0.583  0.00  0.00    +0.002 A 
ATOM      3  C   UNL     1      10.561   3.148  -0.945  0.00  0.00    +0.026 A 
ATOM      4  C   UNL     1       9.431   3.930  -0.717  0.00  0.00    +0.049 A 
ATOM      5  C   UNL     1       8.302   3.347  -0.118  0.00  0.00    +0.026 A 
ATOM      6  C   UNL     1       8.323   1.998   0.241  0.00  0.00    +0.012 A 
ATOM      7  C   UNL     1       7.289   4.407  -0.012  0.00  0.00    +0.104 A 
ATOM      8  C   UNL     1       7.864   5.558  -0.549  0.00  0.00    +0.132 A 
ATOM      9  N   UNL     1       9.150   5.256  -0.969  0.00  0.00    -0.349 N 
ATOM     10  H   UNL     1       9.763   5.886  -1.379  0.00  0.00    +0.166 HD
ATOM     11  C   UNL     1       7.100   6.743  -0.573  0.00  0.00    +0.283 A 
ATOM     12  O   UNL     1       7.563   7.773  -1.035  0.00  0.00    -0.265 OA
ATOM     13  N   UNL     1       5.845   6.714  -0.076  0.00  0.00    -0.254 N 
ATOM     14  C   UNL     1       5.333   5.557   0.438  0.00  0.00    +0.177 A 
ATOM     15  N   UNL     1       6.037   4.447   0.471  0.00  0.00    -0.221 NA
ENDROOT
BRANCH  13  16
ATOM     16  C   UNL     1       5.063   7.878  -0.088  0.00  0.00    +0.052 A 
ATOM     17  C   UNL     1       5.096   8.748   0.993  0.00  0.00    +0.030 A 
ATOM     18  C   UNL     1       4.330   9.896   0.978  0.00  0.00    +0.048 A 
ATOM     19  C   UNL     1       3.518  10.175  -0.112  0.00  0.00    +0.130 A 
ATOM     20  C   UNL     1       3.480   9.303  -1.190  0.00  0.00    +0.048 A 
ATOM     21  C   UNL     1       4.250   8.157  -1.179  0.00  0.00    +0.030 A 
BRANCH  19  22
ATOM     22  O   UNL     1       2.759  11.303  -0.123  0.00  0.00    -0.406 OA
BRANCH  22  23
ATOM     23  C   UNL     1       2.847  12.156   1.020  0.00  0.00    +0.575 C 
ATOM     24  F   UNL     1       4.167  12.592   1.175  0.00  0.00    -0.133 F 
ATOM     25  F   UNL     1       2.008  13.261   0.843  0.00  0.00    -0.133 F 
ATOM     26  F   UNL     1       2.453  11.449   2.161  0.00  0.00    -0.133 F 
ENDBRANCH  22  23
ENDBRANCH  19  22
ENDBRANCH  13  16
BRANCH  14  27
ATOM     27  S   UNL     1       3.692   5.553   1.079  0.00  0.00    -0.078 S 
BRANCH  27  28
ATOM     28  C   UNL     1       3.562   3.824   1.600  0.00  0.00    +0.173 C 
BRANCH  28  29
ATOM     29  C   UNL     1       2.200   3.580   2.197  0.00  0.00    +0.226 C 
ATOM     30  O   UNL     1       1.396   4.486   2.264  0.00  0.00    -0.275 OA
ATOM     31  N   UNL     1       1.875   2.356   2.657  0.00  0.00    -0.301 N 
ATOM     32  C   UNL     1       0.588   1.981   3.261  0.00  0.00    +0.108 C 
ATOM     33  C   UNL     1       0.665   0.479   3.609  0.00  0.00    +0.020 C 
ATOM     34  C   UNL     1       1.783  -0.039   2.666  0.00  0.00    +0.020 C 
ATOM     35  C   UNL     1       2.751   1.170   2.638  0.00  0.00    +0.108 C 
ENDBRANCH  28  29
ENDBRANCH  27  28
ENDBRANCH  14  27
TORSDOF 6
