REMARK  Name = ZINC35175061
REMARK  8 active torsions:
REMARK  status: ('A' for Active; 'I' for Inactive)
REMARK    1  A    between atoms: C_1  and  C_2
REMARK    2  A    between atoms: C_9  and  C_18
REMARK    3  A    between atoms: C_10  and  N_11
REMARK    4  A    between atoms: N_11  and  C_12
REMARK    5  A    between atoms: C_22  and  O_24
REMARK    6  A    between atoms: O_24  and  C_25
REMARK    7  A    between atoms: C_25  and  C_27
REMARK    8  A    between atoms: C_30  and  C_33
REMARK                            x       y       z     vdW  Elec       q    Type
REMARK                         _______ _______ _______ _____ _____    ______ ____
ROOT
ATOM      1  C   UNL     1       0.006   1.632   0.060  0.00  0.00    +0.044 C 
ATOM      2  C   UNL     1       0.057   0.126   0.039  0.00  0.00    -0.046 A 
ATOM      3  C   UNL     1      -0.117  -0.569  -1.172  0.00  0.00    +0.021 A 
ATOM      4  C   UNL     1      -0.072  -1.915  -1.197  0.00  0.00    +0.094 A 
ATOM      5  N   UNL     1       0.143  -2.627  -0.047  0.00  0.00    -0.289 N 
ATOM      6  C   UNL     1       0.316  -1.975   1.152  0.00  0.00    +0.117 A 
ATOM      7  C   UNL     1       0.277  -0.565   1.188  0.00  0.00    +0.048 A 
ATOM      8  N   UNL     1       0.504  -2.879   2.100  0.00  0.00    -0.338 N 
ATOM      9  C   UNL     1       0.459  -4.109   1.556  0.00  0.00    +0.087 A 
ATOM     10  C   UNL     1       0.232  -3.968   0.202  0.00  0.00    +0.129 A 
ATOM     11  H   UNL     1       0.651  -2.685   3.039  0.00  0.00    +0.167 HD
ENDROOT
BRANCH   9  12
ATOM     12  C   UNL     1       0.624  -5.389   2.283  0.00  0.00    +0.005 A 
ATOM     13  C   UNL     1       1.444  -6.390   1.760  0.00  0.00    +0.010 A 
ATOM     14  C   UNL     1       1.596  -7.581   2.440  0.00  0.00    +0.004 A 
ATOM     15  C   UNL     1       0.937  -7.787   3.638  0.00  0.00    +0.046 A 
ATOM     16  C   UNL     1       0.119  -6.797   4.165  0.00  0.00    +0.133 A 
ATOM     17  C   UNL     1      -0.035  -5.595   3.493  0.00  0.00    +0.056 A 
BRANCH  16  18
ATOM     18  O   UNL     1      -0.526  -7.004   5.343  0.00  0.00    -0.422 OA
BRANCH  18  19
ATOM     19  C   UNL     1      -1.839  -7.306   5.301  0.00  0.00    +0.344 C 
ATOM     20  O   UNL     1      -2.430  -7.299   4.239  0.00  0.00    -0.245 OA
BRANCH  19  21
ATOM     21  C   UNL     1      -2.558  -7.647   6.545  0.00  0.00    +0.059 A 
ATOM     22  C   UNL     1      -1.883  -7.651   7.767  0.00  0.00    +0.015 A 
ATOM     23  C   UNL     1      -2.562  -7.969   8.925  0.00  0.00    +0.013 A 
ATOM     24  C   UNL     1      -3.908  -8.285   8.877  0.00  0.00    +0.055 A 
ATOM     25  C   UNL     1      -4.583  -8.283   7.670  0.00  0.00    +0.013 A 
ATOM     26  C   UNL     1      -3.919  -7.960   6.505  0.00  0.00    +0.015 A 
BRANCH  24  27
ATOM     27  C   UNL     1      -4.643  -8.632  10.146  0.00  0.00    +0.417 C 
ATOM     28  F   UNL     1      -5.174  -7.468  10.712  0.00  0.00    -0.166 F 
ATOM     29  F   UNL     1      -5.680  -9.525   9.855  0.00  0.00    -0.166 F 
ATOM     30  F   UNL     1      -3.756  -9.227  11.050  0.00  0.00    -0.166 F 
ENDBRANCH  24  27
ENDBRANCH  19  21
ENDBRANCH  18  19
ENDBRANCH  16  18
ENDBRANCH   9  12
BRANCH  10  31
ATOM     31  N   UNL     1       0.115  -4.997  -0.732  0.00  0.00    -0.326 N 
ATOM     32  H   UNL     1       0.105  -5.922  -0.437  0.00  0.00    +0.148 HD
BRANCH  31  33
ATOM     33  C   UNL     1       0.008  -4.683  -2.159  0.00  0.00    +0.072 C 
ATOM     34  C   UNL     1      -1.444  -4.338  -2.497  0.00  0.00    +0.022 C 
ATOM     35  C   UNL     1      -1.556  -4.009  -3.987  0.00  0.00    +0.002 C 
ATOM     36  C   UNL     1      -1.113  -5.220  -4.812  0.00  0.00    +0.000 C 
ATOM     37  C   UNL     1       0.338  -5.564  -4.473  0.00  0.00    +0.002 C 
ATOM     38  C   UNL     1       0.450  -5.893  -2.983  0.00  0.00    +0.022 C 
ENDBRANCH  31  33
ENDBRANCH  10  31
TORSDOF 7
