REMARK  Name = ZINC38595925
REMARK  8 active torsions:
REMARK  status: ('A' for Active; 'I' for Inactive)
REMARK    1  A    between atoms: C_1  and  C_2
REMARK    2  A    between atoms: C_2  and  C_4
REMARK    3  A    between atoms: C_2  and  N_24
REMARK    4  A    between atoms: C_4  and  C_6
REMARK    5  A    between atoms: C_4  and  N_11
REMARK    6  A    between atoms: N_14  and  C_17
REMARK    7  A    between atoms: C_17  and  C_18
REMARK    8  A    between atoms: C_25  and  C_27
REMARK                            x       y       z     vdW  Elec       q    Type
REMARK                         _______ _______ _______ _____ _____    ______ ____
ROOT
ATOM      1  C   UNL     1       0.718  -0.497  -1.257  0.00  0.00    +0.113 C 
ENDROOT
BRANCH   1   2
ATOM      2  N   UNL     1       0.133   0.027  -2.498  0.00  0.00    -0.297 NA
ATOM      3  C   UNL     1      -1.283  -0.347  -2.612  0.00  0.00    +0.066 C 
ATOM      4  C   UNL     1      -1.869   0.268  -3.885  0.00  0.00    -0.063 C 
ATOM      5  N   UNL     1      -1.121  -0.218  -5.052  0.00  0.00    +0.384 N 
ATOM      6  C   UNL     1       0.286   0.184  -4.936  0.00  0.00    -0.063 C 
ATOM      7  C   UNL     1       0.890  -0.431  -3.672  0.00  0.00    +0.066 C 
ATOM      8  H   UNL     1      -1.181  -1.224  -5.095  0.00  0.00    -0.081 HD
BRANCH   5   9
ATOM      9  C   UNL     1      -1.696   0.358  -6.276  0.00  0.00    -0.043 C 
BRANCH   9  10
ATOM     10  C   UNL     1      -1.009  -0.234  -7.480  0.00  0.00    -0.064 A 
ATOM     11  C   UNL     1       0.122   0.369  -7.997  0.00  0.00    +0.002 A 
ATOM     12  C   UNL     1       0.751  -0.174  -9.101  0.00  0.00    +0.000 A 
ATOM     13  C   UNL     1       0.250  -1.320  -9.688  0.00  0.00    +0.000 A 
ATOM     14  C   UNL     1      -0.881  -1.924  -9.171  0.00  0.00    +0.000 A 
ATOM     15  C   UNL     1      -1.508  -1.384  -8.064  0.00  0.00    +0.002 A 
ENDBRANCH   9  10
ENDBRANCH   5   9
ENDBRANCH   1   2
BRANCH   1  16
ATOM     16  C   UNL     1       0.794  -2.001  -1.333  0.00  0.00    +0.009 A 
ATOM     17  C   UNL     1       1.844  -2.817  -1.072  0.00  0.00    +0.013 A 
ATOM     18  C   UNL     1       1.682  -4.183  -1.210  0.00  0.00    +0.008 A 
ATOM     19  C   UNL     1       0.478  -4.665  -1.603  0.00  0.00    +0.045 A 
ATOM     20  S   UNL     1      -0.478  -3.169  -1.785  0.00  0.00    -0.100 S 
ENDBRANCH   1  16
BRANCH   1  22
ATOM     21  C   UNL     1      -0.233   1.435   0.009  0.00  0.00    +0.030 C 
ATOM     22  C   UNL     1      -0.157  -0.091  -0.069  0.00  0.00    +0.092 C 
BRANCH  22  23
ATOM     23  N   UNL     1       0.427  -0.614   1.169  0.00  0.00    -0.307 N 
ATOM     24  C   UNL     1      -0.358  -0.838   2.241  0.00  0.00    +0.244 C 
ATOM     25  O   UNL     1      -1.549  -0.605   2.182  0.00  0.00    -0.270 OA
ATOM     26  H   UNL     1       1.378  -0.800   1.216  0.00  0.00    +0.149 HD
BRANCH  24  27
ATOM     27  C   UNL     1       0.231  -1.366   3.491  0.00  0.00    +0.038 A 
ATOM     28  C   UNL     1       1.600  -1.629   3.564  0.00  0.00    +0.013 A 
ATOM     29  C   UNL     1       2.143  -2.122   4.732  0.00  0.00    +0.002 A 
ATOM     30  C   UNL     1       1.335  -2.356   5.830  0.00  0.00    +0.015 A 
ATOM     31  C   UNL     1      -0.024  -2.098   5.765  0.00  0.00    +0.019 A 
ATOM     32  C   UNL     1      -0.579  -1.598   4.603  0.00  0.00    +0.028 A 
ATOM     33 BR   UNL     1      -1.120  -2.423   7.271  0.00  0.00    -0.050 Br
ENDBRANCH  24  27
ENDBRANCH  22  23
ENDBRANCH   1  22
TORSDOF 7
