REMARK  Name = ZINC43628629
REMARK  6 active torsions:
REMARK  status: ('A' for Active; 'I' for Inactive)
REMARK    1  A    between atoms: C_1  and  C_2
REMARK    2  A    between atoms: C_2  and  C_4
REMARK    3  A    between atoms: C_2  and  N_14
REMARK    4  A    between atoms: N_17  and  C_18
REMARK    5  A    between atoms: N_17  and  C_19
REMARK    6  A    between atoms: C_19  and  C_20
REMARK                            x       y       z     vdW  Elec       q    Type
REMARK                         _______ _______ _______ _____ _____    ______ ____
ROOT
ATOM      1  N   UNL     1       0.711  -0.489   1.189  0.00  0.00    -0.290 N 
ATOM      2  C   UNL     1       2.054  -0.600   1.174  0.00  0.00    +0.303 C 
ATOM      3  O   UNL     1       2.677  -0.297   0.175  0.00  0.00    -0.253 OA
ATOM      4  N   UNL     1       2.706  -1.046   2.266  0.00  0.00    -0.284 N 
ATOM      5  C   UNL     1       1.954  -1.411   3.469  0.00  0.00    +0.134 C 
ATOM      6  H   UNL     1       0.213  -0.731   1.986  0.00  0.00    +0.151 HD
ENDROOT
BRANCH   1   8
ATOM      7  C   UNL     1      -0.019   1.526   0.010  0.00  0.00    +0.036 C 
ATOM      8  C   UNL     1       0.002  -0.004   0.002  0.00  0.00    +0.137 C 
BRANCH   8   9
ATOM      9  C   UNL     1      -1.412  -0.526   0.013  0.00  0.00    +0.128 A 
ATOM     10  N   UNL     1      -2.185  -0.703  -1.092  0.00  0.00    -0.340 N 
ATOM     11  H   UNL     1      -1.928  -0.520  -2.009  0.00  0.00    +0.167 HD
ATOM     12  C   UNL     1      -3.404  -1.193  -0.666  0.00  0.00    +0.066 A 
ATOM     13  C   UNL     1      -4.576  -1.562  -1.311  0.00  0.00    +0.028 A 
ATOM     14  C   UNL     1      -5.644  -2.027  -0.573  0.00  0.00    +0.002 A 
ATOM     15  C   UNL     1      -5.554  -2.127   0.808  0.00  0.00    +0.002 A 
ATOM     16  C   UNL     1      -4.408  -1.769   1.460  0.00  0.00    +0.030 A 
ATOM     17  C   UNL     1      -3.313  -1.296   0.732  0.00  0.00    +0.089 A 
ATOM     18  N   UNL     1      -2.068  -0.877   1.079  0.00  0.00    -0.231 NA
ENDBRANCH   8   9
ENDBRANCH   1   8
BRANCH   4  19
ATOM     19  C   UNL     1       4.166  -1.166   2.249  0.00  0.00    +0.147 C 
BRANCH  19  20
ATOM     20  C   UNL     1       4.781   0.126   2.720  0.00  0.00    +0.005 A 
ATOM     21  C   UNL     1       5.268   1.035   1.800  0.00  0.00    +0.011 A 
ATOM     22  C   UNL     1       5.832   2.221   2.230  0.00  0.00    +0.039 A 
ATOM     23  C   UNL     1       5.911   2.499   3.584  0.00  0.00    +0.126 A 
ATOM     24  C   UNL     1       5.424   1.590   4.507  0.00  0.00    +0.077 A 
ATOM     25  C   UNL     1       4.854   0.405   4.074  0.00  0.00    +0.131 A 
ATOM     26  F   UNL     1       4.373  -0.481   4.973  0.00  0.00    -0.205 F 
ATOM     27  F   UNL     1       6.464   3.658   4.005  0.00  0.00    -0.205 F 
ENDBRANCH  19  20
ENDBRANCH   4  19
TORSDOF 4
