REMARK  Name = ZINC00046559
REMARK  6 active torsions:
REMARK  status: ('A' for Active; 'I' for Inactive)
REMARK    1  A    between atoms: C_1  and  C_2
REMARK    2  A    between atoms: C_2  and  C_3
REMARK    3  A    between atoms: C_3  and  C_4
REMARK    4  A    between atoms: C_9  and  O_10
REMARK    5  A    between atoms: C_13  and  C_16
REMARK    6  A    between atoms: N_24  and  C_25
REMARK                            x       y       z     vdW  Elec       q    Type
REMARK                         _______ _______ _______ _____ _____    ______ ____
ROOT
ATOM      1  C   UNL     1      -0.417  -2.840  -0.519  0.00  0.00    -0.005 A 
ATOM      2  C   UNL     1      -0.665  -3.396   0.704  0.00  0.00    +0.022 A 
ATOM      3  C   UNL     1      -0.990  -4.748   0.796  0.00  0.00    +0.065 A 
ATOM      4  C   UNL     1      -1.058  -5.547  -0.360  0.00  0.00    +0.142 A 
ATOM      5  C   UNL     1      -0.806  -4.965  -1.596  0.00  0.00    +0.092 A 
ATOM      6  C   UNL     1      -0.493  -3.618  -1.672  0.00  0.00    +0.124 A 
ATOM      7  O   UNL     1      -1.356  -6.857  -0.267  0.00  0.00    -0.462 OA
ATOM      8  C   UNL     1      -1.885  -7.381   0.839  0.00  0.00    +0.211 A 
ATOM      9  C   UNL     1      -1.878  -6.732   2.037  0.00  0.00    +0.099 A 
ATOM     10  C   UNL     1      -1.273  -5.385   2.096  0.00  0.00    +0.203 A 
ATOM     11  O   UNL     1      -1.024  -4.834   3.154  0.00  0.00    -0.286 OA
ENDROOT
BRANCH   9  12
ATOM     12  C   UNL     1      -2.459  -7.356   3.242  0.00  0.00    +0.148 A 
ATOM     13  N   UNL     1      -1.824  -7.546   4.375  0.00  0.00    -0.227 NA
ATOM     14  C   UNL     1      -2.653  -8.142   5.267  0.00  0.00    +0.090 A 
ATOM     15  C   UNL     1      -2.496  -8.560   6.592  0.00  0.00    +0.030 A 
ATOM     16  C   UNL     1      -3.541  -9.146   7.249  0.00  0.00    +0.002 A 
ATOM     17  C   UNL     1      -4.761  -9.331   6.615  0.00  0.00    +0.002 A 
ATOM     18  C   UNL     1      -4.939  -8.926   5.309  0.00  0.00    +0.028 A 
ATOM     19  C   UNL     1      -3.890  -8.329   4.625  0.00  0.00    +0.069 A 
ATOM     20  N   UNL     1      -3.743  -7.820   3.348  0.00  0.00    -0.327 N 
ATOM     21  C   UNL     1      -4.769  -7.785   2.303  0.00  0.00    +0.151 C 
ENDBRANCH   9  12
BRANCH   6  22
ATOM     22  O   UNL     1      -0.253  -3.052  -2.882  0.00  0.00    -0.506 OA
ATOM     23  H   UNL     1       0.674  -3.087  -3.156  0.00  0.00    +0.292 HD
ENDBRANCH   6  22
BRANCH   1  24
ATOM     24  C   UNL     1      -0.065  -1.378  -0.623  0.00  0.00    +0.038 C 
BRANCH  24  26
ATOM     25  C   UNL     1       1.806   0.256  -0.885  0.00  0.00    +0.004 C 
ATOM     26  C   UNL     1       1.449  -1.228  -0.780  0.00  0.00    +0.001 C 
ENDBRANCH  24  26
ENDBRANCH   1  24
TORSDOF 4
