REMARK  Name = ZINC13417849
REMARK  8 active torsions:
REMARK  status: ('A' for Active; 'I' for Inactive)
REMARK    1  A    between atoms: C_1  and  N_2
REMARK    2  A    between atoms: C_3  and  C_22
REMARK    3  A    between atoms: C_6  and  S_7
REMARK    4  A    between atoms: S_7  and  C_8
REMARK    5  A    between atoms: C_8  and  C_9
REMARK    6  A    between atoms: N_11  and  C_12
REMARK    7  A    between atoms: C_14  and  C_20
REMARK    8  A    between atoms: C_17  and  C_18
REMARK                            x       y       z     vdW  Elec       q    Type
REMARK                         _______ _______ _______ _____ _____    ______ ____
ROOT
ATOM      1  S   UNL     1       1.550  -3.553   0.403  0.00  0.00    -0.077 S 
ENDROOT
BRANCH   1   7
ATOM      2  C   UNL     1       2.392  -0.366   0.661  0.00  0.00    +0.153 C 
ATOM      3  N   UNL     1       1.035  -0.804   0.326  0.00  0.00    -0.306 N 
ATOM      4  C   UNL     1      -0.051  -0.011   0.079  0.00  0.00    +0.178 A 
ATOM      5  N   UNL     1      -1.055  -0.798  -0.183  0.00  0.00    -0.130 NA
ATOM      6  N   UNL     1      -0.682  -2.026  -0.116  0.00  0.00    -0.122 NA
ATOM      7  C   UNL     1       0.592  -2.089   0.197  0.00  0.00    +0.192 A 
BRANCH   4   8
ATOM      8  C   UNL     1      -0.080   1.496   0.101  0.00  0.00    +0.278 C 
ATOM      9  C   UNL     1      -0.800   1.982   1.367  0.00  0.00    +0.281 C 
ATOM     10  O   UNL     1      -0.821   3.413   1.349  0.00  0.00    -0.484 OA
ATOM     11  C   UNL     1      -1.186   4.005   0.179  0.00  0.00    +0.162 A 
ATOM     12  C   UNL     1      -1.575   5.336   0.181  0.00  0.00    +0.049 A 
ATOM     13  C   UNL     1      -1.945   5.951  -1.000  0.00  0.00    +0.004 A 
ATOM     14  C   UNL     1      -1.929   5.242  -2.186  0.00  0.00    +0.004 A 
ATOM     15  C   UNL     1      -1.542   3.915  -2.196  0.00  0.00    +0.049 A 
ATOM     16  C   UNL     1      -1.171   3.291  -1.014  0.00  0.00    +0.163 A 
ATOM     17  O   UNL     1      -0.799   1.982  -1.038  0.00  0.00    -0.474 OA
ENDBRANCH   4   8
ENDBRANCH   1   7
BRANCH   1  18
ATOM     18  C   UNL     1       0.286  -4.805   0.069  0.00  0.00    +0.173 C 
BRANCH  18  19
ATOM     19  C   UNL     1       0.894  -6.178   0.191  0.00  0.00    +0.228 C 
ATOM     20  O   UNL     1       2.067  -6.299   0.477  0.00  0.00    -0.275 OA
ATOM     21  N   UNL     1       0.136  -7.272  -0.017  0.00  0.00    -0.284 N 
ATOM     22  H   UNL     1      -0.816  -7.179  -0.182  0.00  0.00    +0.155 HD
BRANCH  21  23
ATOM     23  C   UNL     1       0.717  -8.538   0.005  0.00  0.00    +0.048 A 
ATOM     24  C   UNL     1       1.759  -8.810   0.881  0.00  0.00    +0.039 A 
ATOM     25  C   UNL     1       2.335 -10.078   0.903  0.00  0.00    +0.065 A 
ATOM     26  C   UNL     1       1.872 -11.073   0.038  0.00  0.00    +0.016 A 
ATOM     27  C   UNL     1       0.843 -10.807  -0.836  0.00  0.00    +0.018 A 
ATOM     28  C   UNL     1       0.256  -9.539  -0.861  0.00  0.00    +0.084 A 
BRANCH  28  29
ATOM     29  C   UNL     1      -0.848  -9.255  -1.799  0.00  0.00    +0.388 C 
ATOM     30  O   UNL     1      -1.292  -8.127  -1.890  0.00  0.00    -0.241 OA
ATOM     31  O   UNL     1      -1.364 -10.245  -2.553  0.00  0.00    -0.241 OA
ENDBRANCH  28  29
BRANCH  25  32
ATOM     32  C   UNL     1       3.442 -10.370   1.840  0.00  0.00    +0.387 C 
ATOM     33  O   UNL     1       3.845  -9.505   2.592  0.00  0.00    -0.241 OA
ATOM     34  O   UNL     1       4.003 -11.594   1.859  0.00  0.00    -0.241 OA
ENDBRANCH  25  32
ENDBRANCH  21  23
ENDBRANCH  18  19
ENDBRANCH   1  18
TORSDOF 7
