REMARK  Name = ZINC16927123
REMARK  10 active torsions:
REMARK  status: ('A' for Active; 'I' for Inactive)
REMARK    1  A    between atoms: C_1  and  C_2
REMARK    2  A    between atoms: C_2  and  C_4
REMARK    3  A    between atoms: C_2  and  O_7
REMARK    4  A    between atoms: O_7  and  C_8
REMARK    5  A    between atoms: C_11  and  C_14
REMARK    6  A    between atoms: N_18  and  C_32
REMARK    7  A    between atoms: N_20  and  C_21
REMARK    8  A    between atoms: C_24  and  O_30
REMARK    9  A    between atoms: C_26  and  C_27
REMARK   10  A    between atoms: C_32  and  C_33
REMARK                            x       y       z     vdW  Elec       q    Type
REMARK                         _______ _______ _______ _____ _____    ______ ____
ROOT
ATOM      1  C   UNL     1       6.714   0.087  -0.980  0.00  0.00    +0.028 C 
ATOM      2  C   UNL     1       7.314  -0.696  -1.912  0.00  0.00    +0.078 C 
ATOM      3  C   UNL     1       8.575  -1.456  -1.826  0.00  0.00    +0.259 C 
ATOM      4  O   UNL     1       9.255  -1.448  -0.816  0.00  0.00    -0.269 OA
ATOM      5  N   UNL     1       8.934  -2.146  -2.895  0.00  0.00    -0.242 N 
ATOM      6  C   UNL     1       8.153  -2.143  -4.028  0.00  0.00    +0.169 C 
ATOM      7  N   UNL     1       8.361  -2.769  -5.168  0.00  0.00    -0.225 NA
ATOM      8  S   UNL     1       6.784  -1.091  -3.573  0.00  0.00    -0.049 S 
ENDROOT
BRANCH   1  12
ATOM      9  C   UNL     1       2.809   1.590  -1.667  0.00  0.00    +0.122 A 
ATOM     10  C   UNL     1       3.255   0.476  -2.368  0.00  0.00    +0.046 A 
ATOM     11  C   UNL     1       4.522  -0.017  -2.149  0.00  0.00    +0.011 A 
ATOM     12  C   UNL     1       5.362   0.608  -1.218  0.00  0.00    -0.024 A 
ATOM     13  C   UNL     1       4.907   1.730  -0.515  0.00  0.00    +0.011 A 
ATOM     14  C   UNL     1       3.640   2.217  -0.747  0.00  0.00    +0.046 A 
BRANCH   9  15
ATOM     15  O   UNL     1       1.558   2.071  -1.887  0.00  0.00    -0.478 OA
BRANCH  15  17
ATOM     16  C   UNL     1      -0.036   0.273  -2.139  0.00  0.00    +0.064 C 
ATOM     17  C   UNL     1       0.755   1.377  -2.844  0.00  0.00    +0.282 C 
BRANCH  17  18
ATOM     18  C   UNL     1      -0.201   2.344  -3.493  0.00  0.00    +0.395 C 
ATOM     19  O   UNL     1      -0.259   3.498  -3.104  0.00  0.00    -0.242 OA
ATOM     20  O   UNL     1      -0.917   1.972  -4.407  0.00  0.00    -0.242 OA
ENDBRANCH  17  18
ENDBRANCH  15  17
ENDBRANCH   9  15
ENDBRANCH   1  12
BRANCH   7  21
ATOM     21  C   UNL     1       7.421  -2.723  -6.151  0.00  0.00    +0.081 A 
ATOM     22  C   UNL     1       6.099  -3.091  -5.879  0.00  0.00    +0.032 A 
ATOM     23  C   UNL     1       5.152  -3.043  -6.875  0.00  0.00    +0.047 A 
ATOM     24  C   UNL     1       5.496  -2.629  -8.159  0.00  0.00    +0.118 A 
ATOM     25  C   UNL     1       6.794  -2.262  -8.452  0.00  0.00    +0.062 A 
ATOM     26  C   UNL     1       7.772  -2.298  -7.451  0.00  0.00    +0.092 A 
BRANCH  26  27
ATOM     27  C   UNL     1       9.153  -1.903  -7.752  0.00  0.00    +0.389 C 
ATOM     28  O   UNL     1       9.452  -1.535  -8.881  0.00  0.00    -0.241 OA
ATOM     29  O   UNL     1      10.006  -1.941  -6.875  0.00  0.00    -0.241 OA
ENDBRANCH  26  27
BRANCH  24  30
ATOM     30  O   UNL     1       4.547  -2.588  -9.133  0.00  0.00    -0.507 OA
ATOM     31  H   UNL     1       4.085  -1.741  -9.195  0.00  0.00    +0.292 HD
ENDBRANCH  24  30
ENDBRANCH   7  21
BRANCH   5  32
ATOM     32  C   UNL     1      10.177  -2.922  -2.873  0.00  0.00    +0.142 C 
BRANCH  32  33
ATOM     33  C   UNL     1       9.890  -4.316  -2.378  0.00  0.00    -0.015 C 
ATOM     34  C   UNL     1      10.236  -5.352  -3.101  0.00  0.00    +0.005 C 
ENDBRANCH  32  33
ENDBRANCH   5  32
TORSDOF 9
