REMARK  Name = ZINC10869027
REMARK  11 active torsions:
REMARK  status: ('A' for Active; 'I' for Inactive)
REMARK    1  A    between atoms: C_1  and  O_2
REMARK    2  A    between atoms: O_2  and  C_3
REMARK    3  A    between atoms: C_6  and  C_11
REMARK    4  A    between atoms: C_8  and  O_9
REMARK    5  A    between atoms: O_9  and  C_10
REMARK    6  A    between atoms: C_12  and  C_13
REMARK    7  A    between atoms: C_13  and  O_15
REMARK    8  A    between atoms: O_15  and  C_16
REMARK    9  A    between atoms: C_16  and  C_17
REMARK   10  A    between atoms: N_19  and  C_20
REMARK   11  A    between atoms: C_23  and  N_27
REMARK                            x       y       z     vdW  Elec       q    Type
REMARK                         _______ _______ _______ _____ _____    ______ ____
ROOT
ATOM      1  O   UNL     1      -4.776   1.190  -0.279  0.00  0.00    -0.452 OA
ENDROOT
BRANCH   1   2
ATOM      2  C   UNL     1      -6.023   1.695  -0.379  0.00  0.00    +0.332 C 
ATOM      3  O   UNL     1      -6.193   2.900  -0.385  0.00  0.00    -0.246 OA
BRANCH   2   5
ATOM      4  C   UNL     1      -8.385   1.328  -0.576  0.00  0.00    +0.015 C 
ATOM      5  C   UNL     1      -7.136   0.822  -0.476  0.00  0.00    +0.092 C 
BRANCH   4   9
ATOM      6  C   UNL     1     -11.712  -1.291  -0.867  0.00  0.00    +0.162 A 
ATOM      7  C   UNL     1     -10.428  -1.810  -0.765  0.00  0.00    +0.050 A 
ATOM      8  C   UNL     1      -9.345  -0.964  -0.670  0.00  0.00    +0.012 A 
ATOM      9  C   UNL     1      -9.538   0.423  -0.677  0.00  0.00    -0.021 A 
ATOM     10  C   UNL     1     -10.833   0.945  -0.775  0.00  0.00    +0.057 A 
ATOM     11  C   UNL     1     -11.913   0.089  -0.875  0.00  0.00    +0.162 A 
BRANCH   6  13
ATOM     12  C   UNL     1     -12.499  -3.532  -0.945  0.00  0.00    +0.277 C 
ATOM     13  O   UNL     1     -12.776  -2.130  -0.959  0.00  0.00    -0.491 OA
ENDBRANCH   6  13
BRANCH  11  14
ATOM     14  O   UNL     1     -13.172   0.592  -0.975  0.00  0.00    -0.491 OA
ATOM     15  C   UNL     1     -13.304   2.015  -0.977  0.00  0.00    +0.277 C 
ENDBRANCH  11  14
ENDBRANCH   4   9
ENDBRANCH   2   5
ENDBRANCH   1   2
BRANCH   1  16
ATOM     16  C   UNL     1      -3.702   2.128  -0.184  0.00  0.00    +0.328 C 
BRANCH  16  17
ATOM     17  C   UNL     1      -2.394   1.385  -0.081  0.00  0.00    +0.255 C 
ATOM     18  O   UNL     1      -2.384   0.173  -0.088  0.00  0.00    -0.272 OA
ATOM     19  N   UNL     1      -1.237   2.069   0.019  0.00  0.00    -0.282 N 
ATOM     20  H   UNL     1      -1.251   3.035   0.105  0.00  0.00    +0.155 HD
BRANCH  19  21
ATOM     21  C   UNL     1      -0.016   1.385  -0.001  0.00  0.00    +0.048 A 
ATOM     22  C   UNL     1       0.076   0.144  -0.617  0.00  0.00    +0.026 A 
ATOM     23  C   UNL     1       1.283  -0.526  -0.640  0.00  0.00    +0.034 A 
ATOM     24  C   UNL     1       2.401   0.038  -0.052  0.00  0.00    +0.127 A 
ATOM     25  C   UNL     1       2.313   1.274   0.561  0.00  0.00    +0.049 A 
ATOM     26  C   UNL     1       1.108   1.950   0.589  0.00  0.00    +0.041 A 
ATOM     27 BR   UNL     1       0.989   3.640   1.428  0.00  0.00    -0.048 Br
BRANCH  24  28
ATOM     28  N   UNL     1       3.693  -0.682  -0.080  0.00  0.00    +0.056 N 
ATOM     29  O   UNL     1       3.772  -1.771  -0.620  0.00  0.00    -0.126 OA
ATOM     30  O   UNL     1       4.678  -0.187   0.437  0.00  0.00    -0.126 OA
ENDBRANCH  24  28
ENDBRANCH  19  21
ENDBRANCH  16  17
ENDBRANCH   1  16
TORSDOF 9
