REMARK  Name = ZINC05200895
REMARK  6 active torsions:
REMARK  status: ('A' for Active; 'I' for Inactive)
REMARK    1  A    between atoms: C_1  and  C_2
REMARK    2  A    between atoms: C_5  and  C_8
REMARK    3  A    between atoms: C_11  and  C_29
REMARK    4  A    between atoms: C_16  and  C_18
REMARK    5  A    between atoms: N_20  and  C_21
REMARK    6  A    between atoms: N_20  and  C_22
REMARK                            x       y       z     vdW  Elec       q    Type
REMARK                         _______ _______ _______ _____ _____    ______ ____
ROOT
ATOM      1  C   UNL     1       0.739  -4.868  -1.089  0.00  0.00    +0.104 C 
ATOM      2  C   UNL     1      -0.724  -5.247  -0.830  0.00  0.00    +0.063 C 
ATOM      3  C   UNL     1      -0.846  -6.763  -0.646  0.00  0.00    +0.215 C 
ATOM      4  N   UNL     1       0.152  -7.205   0.332  0.00  0.00    -0.238 N 
ATOM      5  C   UNL     1       1.256  -6.475   0.671  0.00  0.00    +0.119 A 
ATOM      6  C   UNL     1       1.951  -7.168   1.593  0.00  0.00    +0.078 A 
ATOM      7  C   UNL     1       1.254  -8.374   1.835  0.00  0.00    +0.149 A 
ATOM      8  N   UNL     1       0.176  -8.386   1.072  0.00  0.00    -0.164 NA
ATOM      9  N   UNL     1       1.539  -5.230   0.098  0.00  0.00    -0.322 N 
ATOM     10  H   UNL     1       2.217  -4.639   0.460  0.00  0.00    +0.148 HD
ENDROOT
BRANCH   1  15
ATOM     11  C   UNL     1       1.130   0.819  -2.034  0.00  0.00    +0.044 C 
ATOM     12  C   UNL     1       1.028  -0.664  -1.788  0.00  0.00    -0.050 A 
ATOM     13  C   UNL     1       1.038  -1.544  -2.854  0.00  0.00    +0.004 A 
ATOM     14  C   UNL     1       0.945  -2.905  -2.628  0.00  0.00    +0.006 A 
ATOM     15  C   UNL     1       0.842  -3.385  -1.335  0.00  0.00    -0.027 A 
ATOM     16  C   UNL     1       0.833  -2.505  -0.270  0.00  0.00    +0.006 A 
ATOM     17  C   UNL     1       0.931  -1.145  -0.495  0.00  0.00    +0.004 A 
ENDBRANCH   1  15
BRANCH   7  18
ATOM     18  C   UNL     1       1.662  -9.437   2.778  0.00  0.00    +0.267 C 
ATOM     19  O   UNL     1       2.737  -9.370   3.341  0.00  0.00    -0.268 OA
ATOM     20  N   UNL     1       0.841 -10.479   3.013  0.00  0.00    -0.296 N 
ATOM     21  C   UNL     1      -0.422 -10.598   2.280  0.00  0.00    +0.132 C 
BRANCH  20  22
ATOM     22  C   UNL     1       1.211 -11.494   4.002  0.00  0.00    +0.076 C 
ATOM     23  C   UNL     1       1.307 -12.861   3.320  0.00  0.00    +0.022 C 
ATOM     24  C   UNL     1       1.694 -13.921   4.354  0.00  0.00    +0.002 C 
ATOM     25  C   UNL     1       0.631 -13.973   5.453  0.00  0.00    +0.000 C 
ATOM     26  C   UNL     1       0.536 -12.606   6.135  0.00  0.00    +0.002 C 
ATOM     27  C   UNL     1       0.149 -11.546   5.102  0.00  0.00    +0.022 C 
ENDBRANCH  20  22
ENDBRANCH   7  18
BRANCH   3  28
ATOM     28  C   UNL     1      -2.249  -7.107  -0.142  0.00  0.00    +0.412 C 
ATOM     29  F   UNL     1      -3.198  -6.674  -1.074  0.00  0.00    -0.168 F 
ATOM     30  F   UNL     1      -2.358  -8.492   0.025  0.00  0.00    -0.168 F 
ATOM     31  F   UNL     1      -2.473  -6.471   1.083  0.00  0.00    -0.168 F 
ENDBRANCH   3  28
TORSDOF 4
