REMARK  Name = ZINC58292209
REMARK  2 active torsions:
REMARK  status: ('A' for Active; 'I' for Inactive)
REMARK    1  A    between atoms: C_9  and  C_11
REMARK    2  A    between atoms: C_16  and  N_19
REMARK                            x       y       z     vdW  Elec       q    Type
REMARK                         _______ _______ _______ _____ _____    ______ ____
ROOT
ATOM      1  C   UNL     1       5.006  -2.551  -0.060  0.00  0.00    +0.265 C 
ATOM      2  O   UNL     1       3.925  -2.010  -0.192  0.00  0.00    -0.268 OA
ATOM      3  N   UNL     1       6.125  -1.806   0.035  0.00  0.00    -0.296 N 
ATOM      4  C   UNL     1       6.043  -0.344   0.160  0.00  0.00    +0.110 C 
ATOM      5  C   UNL     1       6.905   0.294  -0.933  0.00  0.00    +0.044 C 
ATOM      6  C   UNL     1       8.327  -0.265  -0.847  0.00  0.00    +0.095 C 
ATOM      7  C   UNL     1       8.297  -1.778  -1.077  0.00  0.00    +0.044 C 
ATOM      8  C   UNL     1       7.450  -2.440   0.020  0.00  0.00    +0.110 C 
ENDROOT
BRANCH   6   9
ATOM      9  N   UNL     1       9.163   0.367  -1.871  0.00  0.00    -0.289 N 
ATOM     10  C   UNL     1      10.314   1.116  -1.635  0.00  0.00    +0.070 A 
ATOM     11  C   UNL     1      10.991   1.482  -0.482  0.00  0.00    +0.028 A 
ATOM     12  C   UNL     1      12.135   2.250  -0.571  0.00  0.00    +0.002 A 
ATOM     13  C   UNL     1      12.608   2.657  -1.807  0.00  0.00    +0.002 A 
ATOM     14  C   UNL     1      11.940   2.298  -2.961  0.00  0.00    +0.028 A 
ATOM     15  C   UNL     1      10.791   1.526  -2.881  0.00  0.00    +0.067 A 
ATOM     16  N   UNL     1       9.915   1.014  -3.836  0.00  0.00    -0.306 N 
ATOM     17  H   UNL     1       9.989   1.133  -4.796  0.00  0.00    +0.170 HD
ATOM     18  C   UNL     1       8.954   0.319  -3.200  0.00  0.00    +0.328 A 
ATOM     19  O   UNL     1       8.032  -0.262  -3.743  0.00  0.00    -0.247 OA
ENDBRANCH   6   9
BRANCH   1  28
ATOM     20  C   UNL     1       6.589  -8.687   0.519  0.00  0.00    +0.001 A 
ATOM     21  C   UNL     1       7.683  -7.873   0.810  0.00  0.00    +0.002 A 
ATOM     22  C   UNL     1       7.585  -6.518   0.753  0.00  0.00    +0.028 A 
ATOM     23  C   UNL     1       6.360  -5.921   0.395  0.00  0.00    +0.072 A 
ATOM     24  C   UNL     1       5.249  -6.752   0.099  0.00  0.00    +0.000 A 
ATOM     25  C   UNL     1       5.389  -8.148   0.169  0.00  0.00    +0.010 A 
ATOM     26  C   UNL     1       4.024  -6.158  -0.259  0.00  0.00    +0.012 A 
ATOM     27  C   UNL     1       3.957  -4.795  -0.307  0.00  0.00    +0.033 A 
ATOM     28  C   UNL     1       5.093  -4.030  -0.003  0.00  0.00    +0.126 A 
ATOM     29  N   UNL     1       6.236  -4.596   0.331  0.00  0.00    -0.242 NA
ENDBRANCH   1  28
TORSDOF 2
