REMARK  Name = ZINC00752683
REMARK  4 active torsions:
REMARK  status: ('A' for Active; 'I' for Inactive)
REMARK    1  A    between atoms: C_1  and  C_2
REMARK    2  A    between atoms: C_7  and  C_15
REMARK    3  A    between atoms: C_9  and  C_13
REMARK    4  A    between atoms: C_10  and  N_12
REMARK                            x       y       z     vdW  Elec       q    Type
REMARK                         _______ _______ _______ _____ _____    ______ ____
ROOT
ATOM      1  C   UNL     1      -5.117   2.819  -4.812  0.00  0.00    +0.008 C 
ATOM      2  C   UNL     1      -4.293   3.147  -3.565  0.00  0.00    +0.001 C 
ATOM      3  C   UNL     1      -5.181   3.066  -2.321  0.00  0.00    +0.078 C 
ATOM      4  C   UNL     1      -4.374   3.428  -1.096  0.00  0.00    +0.115 C 
ATOM      5  C   UNL     1      -3.360   4.308  -1.178  0.00  0.00    +0.046 C 
ATOM      6  C   UNL     1      -2.564   4.679   0.050  0.00  0.00    +0.101 C 
ATOM      7  C   UNL     1      -3.328   4.309   1.291  0.00  0.00    +0.098 C 
ATOM      8  C   UNL     1      -4.347   3.418   1.229  0.00  0.00    +0.198 C 
ATOM      9  O   UNL     1      -4.700   2.841   0.070  0.00  0.00    -0.445 OA
ATOM     10  C   UNL     1      -3.007   4.907  -2.402  0.00  0.00    +0.164 C 
ATOM     11  O   UNL     1      -2.096   5.710  -2.433  0.00  0.00    -0.292 OA
ATOM     12  C   UNL     1      -3.739   4.572  -3.673  0.00  0.00    +0.083 C 
ENDROOT
BRANCH   6  13
ATOM     13  C   UNL     1      -1.249   3.944   0.035  0.00  0.00    -0.033 A 
ATOM     14  C   UNL     1      -0.062   4.653   0.028  0.00  0.00    +0.007 A 
ATOM     15  C   UNL     1       1.145   3.980   0.013  0.00  0.00    +0.040 A 
ATOM     16  C   UNL     1       1.166   2.596   0.005  0.00  0.00    +0.137 A 
ATOM     17  C   UNL     1      -0.024   1.887   0.012  0.00  0.00    +0.053 A 
ATOM     18  C   UNL     1      -1.230   2.562   0.022  0.00  0.00    +0.022 A 
ATOM     19 BR   UNL     1       0.002  -0.004   0.002  0.00  0.00    -0.047 Br
ATOM     20  F   UNL     1       2.346   1.938  -0.010  0.00  0.00    -0.204 F 
ENDBRANCH   6  13
BRANCH   8  21
ATOM     21  N   UNL     1      -5.032   3.099   2.376  0.00  0.00    -0.328 N 
ATOM     22  H   UNL     1      -5.763   2.463   2.343  0.00  0.00    +0.145 HD
ATOM     23  H   UNL     1      -4.784   3.511   3.219  0.00  0.00    +0.145 HD
ENDBRANCH   8  21
BRANCH   7  24
ATOM     24  C   UNL     1      -2.976   4.902   2.547  0.00  0.00    +0.101 C 
ATOM     25  N   UNL     1      -2.697   5.372   3.542  0.00  0.00    -0.191 NA
ENDBRANCH   7  24
TORSDOF 3
