REMARK  Name = ZINC13065179
REMARK  15 active torsions:
REMARK  status: ('A' for Active; 'I' for Inactive)
REMARK    1  A    between atoms: C_1  and  C_2
REMARK    2  A    between atoms: C_2  and  C_3
REMARK    3  A    between atoms: C_3  and  C_5
REMARK    4  A    between atoms: C_3  and  N_74
REMARK    5  A    between atoms: N_9  and  C_10
REMARK    6  A    between atoms: C_10  and  C_11
REMARK    7  A    between atoms: C_10  and  C_12
REMARK    8  A    between atoms: C_10  and  C_13
REMARK    9  A    between atoms: C_13  and  C_14
REMARK   10  A    between atoms: C_15  and  C_16
REMARK   11  A    between atoms: C_15  and  N_74
REMARK   12  A    between atoms: C_25  and  C_26
REMARK   13  A    between atoms: C_25  and  N_74
REMARK   14  A    between atoms: C_29  and  C_39
REMARK   15  A    between atoms: C_32  and  C_38
REMARK                            x       y       z     vdW  Elec       q    Type
REMARK                         _______ _______ _______ _____ _____    ______ ____
ROOT
ATOM      1  N   UNL     1       1.265   2.167   4.614  0.00  0.00    +0.392 N 
ATOM      2  H   UNL     1       0.548   2.067   5.343  0.00  0.00    -0.080 HD
ENDROOT
BRANCH   1   3
ATOM      3  C   UNL     1       0.791   1.506   3.381  0.00  0.00    +0.003 C 
BRANCH   3   4
ATOM      4  C   UNL     1      -0.103   0.356   3.766  0.00  0.00    +0.139 A 
ATOM      5  N   UNL     1       0.043  -0.437   4.800  0.00  0.00    -0.115 NA
ATOM      6  N   UNL     1      -0.917  -1.296   4.782  0.00  0.00    -0.023 NA
ATOM      7  N   UNL     1      -1.676  -1.068   3.768  0.00  0.00    -0.043 NA
ATOM      8  N   UNL     1      -1.209  -0.055   3.118  0.00  0.00    -0.225 N 
BRANCH   8   9
ATOM      9  C   UNL     1      -1.773   0.533   1.901  0.00  0.00    +0.061 C 
ATOM     10  C   UNL     1      -0.690   0.608   0.822  0.00  0.00    +0.036 C 
ATOM     11  C   UNL     1      -2.288   1.941   2.205  0.00  0.00    +0.036 C 
BRANCH   9  12
ATOM     12  C   UNL     1      -2.929  -0.337   1.402  0.00  0.00    +0.026 C 
ATOM     13  C   UNL     1      -3.518   0.277   0.131  0.00  0.00    +0.006 C 
ENDBRANCH   9  12
ENDBRANCH   8   9
ENDBRANCH   3   4
BRANCH   3  15
ATOM     14  C   UNL     1       2.834   2.157   2.099  0.00  0.00    +0.002 C 
ATOM     15  C   UNL     1       1.976   0.981   2.568  0.00  0.00    -0.011 C 
ENDBRANCH   3  15
ENDBRANCH   1   3
BRANCH   1  16
ATOM     16  C   UNL     1       1.493   3.606   4.360  0.00  0.00    -0.041 C 
BRANCH  16  17
ATOM     17  C   UNL     1       0.164   4.315   4.370  0.00  0.00    -0.060 A 
ATOM     18  C   UNL     1      -0.495   4.561   3.180  0.00  0.00    +0.005 A 
ATOM     19  C   UNL     1      -1.718   5.206   3.185  0.00  0.00    +0.050 A 
ATOM     20  C   UNL     1      -2.280   5.619   4.382  0.00  0.00    +0.166 A 
ATOM     21  C   UNL     1      -1.614   5.375   5.580  0.00  0.00    +0.166 A 
ATOM     22  C   UNL     1      -0.392   4.723   5.569  0.00  0.00    +0.051 A 
ATOM     23  O   UNL     1      -2.365   5.872   6.606  0.00  0.00    -0.453 OA
ATOM     24  C   UNL     1      -3.298   6.781   5.994  0.00  0.00    +0.466 C 
ATOM     25  O   UNL     1      -3.449   6.268   4.657  0.00  0.00    -0.453 OA
ENDBRANCH  16  17
ENDBRANCH   1  16
BRANCH   1  26
ATOM     26  C   UNL     1       2.515   1.532   5.080  0.00  0.00    -0.036 C 
BRANCH  26  27
ATOM     27  C   UNL     1       2.168   0.248   5.789  0.00  0.00    +0.001 A 
ATOM     28  C   UNL     1       2.440  -0.943   5.201  0.00  0.00    +0.017 A 
ATOM     29  C   UNL     1       2.096  -2.172   5.918  0.00  0.00    +0.002 A 
ATOM     30  C   UNL     1       2.357  -3.430   5.365  0.00  0.00    -0.041 A 
ATOM     31  C   UNL     1       2.019  -4.558   6.058  0.00  0.00    +0.004 A 
ATOM     32  C   UNL     1       1.418  -4.467   7.306  0.00  0.00    +0.005 A 
ATOM     33  C   UNL     1       1.151  -3.238   7.870  0.00  0.00    -0.026 A 
ATOM     34  C   UNL     1       1.486  -2.076   7.183  0.00  0.00    +0.052 A 
ATOM     35  N   UNL     1       1.231  -0.834   7.724  0.00  0.00    -0.322 N 
ATOM     36  H   UNL     1       0.811  -0.769   8.596  0.00  0.00    +0.169 HD
ATOM     37  C   UNL     1       1.556   0.289   7.060  0.00  0.00    +0.251 A 
ATOM     38  O   UNL     1       1.315   1.371   7.568  0.00  0.00    -0.268 OA
ATOM     39  C   UNL     1       0.498  -3.154   9.226  0.00  0.00    +0.046 C 
ATOM     40  C   UNL     1       3.010  -3.541   4.011  0.00  0.00    +0.044 C 
ENDBRANCH  26  27
ENDBRANCH   1  26
TORSDOF 9
