REMARK  Name = ZINC35838140
REMARK  5 active torsions:
REMARK  status: ('A' for Active; 'I' for Inactive)
REMARK    1  A    between atoms: C_1  and  C_2
REMARK    2  A    between atoms: C_2  and  N_3
REMARK    3  A    between atoms: N_3  and  C_4
REMARK    4  A    between atoms: N_14  and  C_17
REMARK    5  A    between atoms: C_28  and  C_30
REMARK                            x       y       z     vdW  Elec       q    Type
REMARK                         _______ _______ _______ _____ _____    ______ ____
ROOT
ATOM      1  N   UNL     1      -0.630  -1.650   0.332  0.00  0.00    -0.318 N 
ATOM      2  C   UNL     1      -0.408  -0.283  -0.146  0.00  0.00    +0.130 C 
ATOM      3  C   UNL     1      -1.320  -1.867   1.513  0.00  0.00    +0.131 A 
ATOM      4  C   UNL     1      -2.701  -2.101   1.494  0.00  0.00    +0.029 A 
ATOM      5  C   UNL     1      -3.349  -2.318   2.685  0.00  0.00    +0.028 A 
ATOM      6  N   UNL     1      -2.646  -2.284   3.815  0.00  0.00    -0.331 N 
ATOM      7  C   UNL     1      -1.343  -2.058   3.807  0.00  0.00    +0.198 A 
ATOM      8  N   UNL     1      -0.680  -1.860   2.677  0.00  0.00    -0.201 NA
ATOM      9  N   UNL     1      -0.654  -2.033   5.006  0.00  0.00    -0.298 N 
ATOM     10  C   UNL     1      -1.325  -2.398   6.262  0.00  0.00    +0.127 C 
ATOM     11  C   UNL     1      -0.527  -3.520   6.936  0.00  0.00    +0.124 C 
ATOM     12  N   UNL     1       0.889  -3.130   6.978  0.00  0.00    -0.325 N 
ATOM     13  C   UNL     1       1.561  -2.765   5.723  0.00  0.00    +0.124 C 
ATOM     14  C   UNL     1       0.764  -1.648   5.047  0.00  0.00    +0.127 C 
ATOM     15  C   UNL     1      -4.823  -2.609   2.772  0.00  0.00    +0.072 C 
ATOM     16  C   UNL     1      -5.542  -2.147   1.506  0.00  0.00    +0.114 C 
ATOM     17  N   UNL     1      -4.774  -2.626   0.344  0.00  0.00    -0.292 N 
ATOM     18  C   UNL     1      -3.416  -2.098   0.170  0.00  0.00    +0.148 C 
ATOM     19  C   UNL     1      -5.298  -3.514  -0.524  0.00  0.00    +0.254 C 
ATOM     20  O   UNL     1      -6.366  -4.044  -0.281  0.00  0.00    -0.269 OA
ATOM     21  H   UNL     1      -3.098  -2.427   4.662  0.00  0.00    +0.168 HD
ENDROOT
BRANCH  12  22
ATOM     22  C   UNL     1       1.586  -3.105   8.191  0.00  0.00    +0.065 A 
ATOM     23  C   UNL     1       2.258  -4.238   8.630  0.00  0.00    +0.026 A 
ATOM     24  C   UNL     1       2.945  -4.210   9.828  0.00  0.00    +0.002 A 
ATOM     25  C   UNL     1       2.965  -3.057  10.591  0.00  0.00    +0.003 A 
ATOM     26  C   UNL     1       2.296  -1.926  10.157  0.00  0.00    +0.040 A 
ATOM     27  C   UNL     1       1.611  -1.944   8.956  0.00  0.00    +0.144 A 
ATOM     28  F   UNL     1       0.964  -0.838   8.530  0.00  0.00    -0.204 F 
ENDBRANCH  12  22
BRANCH  19  29
ATOM     29  C   UNL     1      -4.582  -3.840  -1.760  0.00  0.00    +0.074 A 
ATOM     30  C   UNL     1      -4.860  -4.822  -2.699  0.00  0.00    +0.021 A 
ATOM     31  C   UNL     1      -3.998  -4.888  -3.768  0.00  0.00    +0.008 A 
ATOM     32  C   UNL     1      -2.963  -4.014  -3.834  0.00  0.00    +0.046 A 
ATOM     33  S   UNL     1      -3.130  -3.072  -2.454  0.00  0.00    -0.092 S 
ENDBRANCH  19  29
BRANCH   1  35
ATOM     34  C   UNL     1       1.295  -3.127   0.028  0.00  0.00    +0.024 C 
ATOM     35  C   UNL     1      -0.122  -2.787  -0.439  0.00  0.00    +0.103 C 
ENDBRANCH   1  35
TORSDOF 3
