REMARK  Name = ZINC34830270
REMARK  10 active torsions:
REMARK  status: ('A' for Active; 'I' for Inactive)
REMARK    1  A    between atoms: C_1  and  C_2
REMARK    2  A    between atoms: C_7  and  C_8
REMARK    3  A    between atoms: N_17  and  C_18
REMARK    4  A    between atoms: C_18  and  C_19
REMARK    5  A    between atoms: C_19  and  C_20
REMARK    6  A    between atoms: C_26  and  C_29
REMARK    7  A    between atoms: C_30  and  C_32
REMARK    8  A    between atoms: C_32  and  C_33
REMARK    9  A    between atoms: C_32  and  C_34
REMARK   10  A    between atoms: C_32  and  C_35
REMARK                            x       y       z     vdW  Elec       q    Type
REMARK                         _______ _______ _______ _____ _____    ______ ____
ROOT
ATOM      1  C   UNL     1       1.518  -2.034   4.991  0.00  0.00    -0.068 C 
ENDROOT
BRANCH   1  10
ATOM      2  C   UNL     1       3.680  -1.134   4.497  0.00  0.00    -0.006 C 
ATOM      3  C   UNL     1       5.118  -1.027   4.996  0.00  0.00    -0.047 A 
ATOM      4  C   UNL     1       6.190  -0.622   4.204  0.00  0.00    +0.010 A 
ATOM      5  C   UNL     1       7.435  -0.558   4.731  0.00  0.00    +0.045 A 
ATOM      6  S   UNL     1       7.149  -1.080   6.417  0.00  0.00    -0.101 S 
ATOM      7  C   UNL     1       5.403  -1.340   6.291  0.00  0.00    -0.010 A 
ATOM      8  C   UNL     1       4.429  -1.792   7.330  0.00  0.00    +0.024 C 
ATOM      9  C   UNL     1       3.015  -1.515   6.790  0.00  0.00    -0.072 C 
ATOM     10  N   UNL     1       2.926  -2.005   5.407  0.00  0.00    +0.388 N 
ATOM     11  H   UNL     1       3.305  -2.939   5.363  0.00  0.00    -0.080 HD
BRANCH   2  18
ATOM     12  C   UNL     1       3.909   0.593   2.192  0.00  0.00    +0.044 C 
ATOM     13  C   UNL     1       3.779  -0.897   2.007  0.00  0.00    -0.049 A 
ATOM     14  C   UNL     1       3.775  -1.438   0.735  0.00  0.00    +0.003 A 
ATOM     15  C   UNL     1       3.656  -2.804   0.566  0.00  0.00    +0.000 A 
ATOM     16  C   UNL     1       3.541  -3.631   1.668  0.00  0.00    +0.000 A 
ATOM     17  C   UNL     1       3.546  -3.090   2.940  0.00  0.00    +0.002 A 
ATOM     18  C   UNL     1       3.670  -1.723   3.110  0.00  0.00    -0.054 A 
ENDBRANCH   2  18
ENDBRANCH   1  10
BRANCH   1  19
ATOM     19  C   UNL     1       0.751  -3.035   5.858  0.00  0.00    +0.077 C 
BRANCH  19  20
ATOM     20  C   UNL     1      -0.694  -3.066   5.431  0.00  0.00    +0.214 C 
ATOM     21  O   UNL     1      -1.073  -2.357   4.523  0.00  0.00    -0.276 OA
ATOM     22  N   UNL     1      -1.565  -3.881   6.058  0.00  0.00    -0.298 N 
ATOM     23  C   UNL     1      -1.121  -4.741   7.164  0.00  0.00    +0.127 C 
ATOM     24  C   UNL     1      -1.490  -6.193   6.834  0.00  0.00    +0.127 C 
ATOM     25  N   UNL     1      -2.901  -6.237   6.425  0.00  0.00    -0.295 N 
ATOM     26  C   UNL     1      -3.345  -5.377   5.319  0.00  0.00    +0.090 C 
ATOM     27  C   UNL     1      -2.977  -3.921   5.652  0.00  0.00    +0.130 C 
ATOM     28  C   UNL     1      -2.651  -5.806   4.024  0.00  0.00    +0.029 C 
ATOM     29  C   UNL     1      -3.772  -7.052   7.052  0.00  0.00    +0.223 C 
ATOM     30  O   UNL     1      -4.911  -7.149   6.647  0.00  0.00    -0.275 OA
BRANCH  29  31
ATOM     31  C   UNL     1      -3.330  -7.843   8.257  0.00  0.00    +0.055 C 
ATOM     32  C   UNL     1      -2.236  -8.830   7.846  0.00  0.00    +0.022 C 
ATOM     33  C   UNL     1      -2.784  -6.889   9.321  0.00  0.00    +0.022 C 
BRANCH  31  34
ATOM     34  C   UNL     1      -4.524  -8.613   8.827  0.00  0.00    +0.124 C 
ATOM     35 CL   UNL     1      -3.995  -9.558  10.268  0.00  0.00    -0.124 Cl
ENDBRANCH  31  34
ENDBRANCH  29  31
ENDBRANCH  19  20
ENDBRANCH   1  19
TORSDOF 6
