REMARK  Name = ZINC18517601
REMARK  11 active torsions:
REMARK  status: ('A' for Active; 'I' for Inactive)
REMARK    1  A    between atoms: C_1  and  C_2
REMARK    2  A    between atoms: N_10  and  C_13
REMARK    3  A    between atoms: C_13  and  C_15
REMARK    4  A    between atoms: C_13  and  C_16
REMARK    5  A    between atoms: C_16  and  O_18
REMARK    6  A    between atoms: O_18  and  C_19
REMARK    7  A    between atoms: C_19  and  C_21
REMARK    8  A    between atoms: C_19  and  C_22
REMARK    9  A    between atoms: N_24  and  C_25
REMARK   10  A    between atoms: C_30  and  C_31
REMARK   11  A    between atoms: C_31  and  C_33
REMARK                            x       y       z     vdW  Elec       q    Type
REMARK                         _______ _______ _______ _____ _____    ______ ____
ROOT
ATOM      1  C   UNL     1       5.299   3.240  -1.320  0.00  0.00    +0.329 C 
ATOM      2  O   UNL     1       4.503   3.679  -2.115  0.00  0.00    -0.249 OA
ENDROOT
BRANCH   1   3
ATOM      3  C   UNL     1       4.816   2.508  -0.095  0.00  0.00    +0.190 C 
ATOM      4  C   UNL     1       5.300   3.238   1.160  0.00  0.00    +0.040 C 
BRANCH   3  14
ATOM      5  C   UNL     1      -2.489   0.843  -0.133  0.00  0.00    +0.044 C 
ATOM      6  C   UNL     1      -1.205   1.631  -0.119  0.00  0.00    -0.050 A 
ATOM      7  C   UNL     1      -1.247   3.013  -0.106  0.00  0.00    +0.004 A 
ATOM      8  C   UNL     1      -0.075   3.752  -0.100  0.00  0.00    +0.014 A 
ATOM      9  C   UNL     1       1.148   3.100  -0.101  0.00  0.00    +0.049 A 
ATOM     10  C   UNL     1       1.192   1.691  -0.108  0.00  0.00    +0.050 A 
ATOM     11  C   UNL     1       0.011   0.966  -0.114  0.00  0.00    +0.017 A 
ATOM     12  C   UNL     1       2.625   1.331  -0.106  0.00  0.00    +0.255 C 
ATOM     13  O   UNL     1       3.072   0.202  -0.111  0.00  0.00    -0.270 OA
ATOM     14  N   UNL     1       3.352   2.463  -0.099  0.00  0.00    -0.220 N 
ATOM     15  C   UNL     1       2.557   3.548  -0.095  0.00  0.00    +0.255 C 
ATOM     16  O   UNL     1       2.933   4.703  -0.088  0.00  0.00    -0.270 OA
ENDBRANCH   3  14
ENDBRANCH   1   3
BRANCH   1  17
ATOM     17  O   UNL     1       6.615   3.404  -1.528  0.00  0.00    -0.451 OA
BRANCH  17  18
ATOM     18  C   UNL     1       7.008   4.119  -2.729  0.00  0.00    +0.259 C 
ATOM     19  C   UNL     1       7.187   3.125  -3.879  0.00  0.00    +0.062 C 
BRANCH  18  20
ATOM     20  C   UNL     1       8.309   4.840  -2.482  0.00  0.00    +0.258 C 
ATOM     21  O   UNL     1       8.897   4.686  -1.433  0.00  0.00    -0.271 OA
ATOM     22  N   UNL     1       8.818   5.654  -3.428  0.00  0.00    -0.282 N 
ATOM     23  H   UNL     1       8.382   5.727  -4.291  0.00  0.00    +0.155 HD
BRANCH  22  24
ATOM     24  C   UNL     1       9.969   6.391  -3.165  0.00  0.00    +0.044 A 
ATOM     25  C   UNL     1      10.975   5.855  -2.372  0.00  0.00    +0.024 A 
ATOM     26  C   UNL     1      12.118   6.585  -2.117  0.00  0.00    +0.002 A 
ATOM     27  C   UNL     1      12.268   7.860  -2.639  0.00  0.00    +0.001 A 
ATOM     28  C   UNL     1      11.280   8.413  -3.423  0.00  0.00    +0.013 A 
ATOM     29  C   UNL     1      10.117   7.684  -3.696  0.00  0.00    +0.038 A 
BRANCH  29  30
ATOM     30  C   UNL     1       9.059   8.265  -4.530  0.00  0.00    +0.162 C 
ATOM     31  O   UNL     1       8.011   7.673  -4.681  0.00  0.00    -0.292 OA
ATOM     32  C   UNL     1       9.274   9.599  -5.199  0.00  0.00    +0.091 C 
ENDBRANCH  29  30
ENDBRANCH  22  24
ENDBRANCH  18  20
ENDBRANCH  17  18
ENDBRANCH   1  17
TORSDOF 7
