REMARK  Name = ZINC21476611
REMARK  8 active torsions:
REMARK  status: ('A' for Active; 'I' for Inactive)
REMARK    1  A    between atoms: C_1  and  C_2
REMARK    2  A    between atoms: C_3  and  C_12
REMARK    3  A    between atoms: C_4  and  C_11
REMARK    4  A    between atoms: C_12  and  C_13
REMARK    5  A    between atoms: C_13  and  C_14
REMARK    6  A    between atoms: C_14  and  O_16
REMARK    7  A    between atoms: O_16  and  C_17
REMARK    8  A    between atoms: C_17  and  C_18
REMARK                            x       y       z     vdW  Elec       q    Type
REMARK                         _______ _______ _______ _____ _____    ______ ____
ROOT
ATOM      1  C   UNL     1      -1.879   2.973  -5.950  0.00  0.00    +0.308 C 
ATOM      2  O   UNL     1      -1.598   1.806  -6.088  0.00  0.00    -0.251 OA
ENDROOT
BRANCH   1   3
ATOM      3  C   UNL     1      -2.292   3.796  -7.143  0.00  0.00    +0.125 C 
BRANCH   3   4
ATOM      4  C   UNL     1      -2.274   2.920  -8.397  0.00  0.00    +0.050 C 
BRANCH   4   7
ATOM      5  C   UNL     1      -5.079   3.085  -9.164  0.00  0.00    +0.066 C 
ATOM      6  C   UNL     1      -4.035   3.823  -9.962  0.00  0.00    +0.047 A 
ATOM      7  C   UNL     1      -2.687   3.742  -9.590  0.00  0.00    -0.005 A 
ATOM      8  C   UNL     1      -1.757   4.408 -10.321  0.00  0.00    +0.048 A 
ATOM      9  N   UNL     1      -2.160   5.142 -11.393  0.00  0.00    -0.201 N 
ATOM     10  C   UNL     1      -3.485   5.204 -11.725  0.00  0.00    +0.253 A 
ATOM     11  N   UNL     1      -4.395   4.544 -10.999  0.00  0.00    -0.216 NA
ATOM     12  N   UNL     1      -3.584   5.981 -12.798  0.00  0.00    -0.197 NA
ATOM     13  C   UNL     1      -2.381   6.409 -13.155  0.00  0.00    +0.247 A 
ATOM     14  N   UNL     1      -1.480   5.927 -12.332  0.00  0.00    -0.152 NA
ATOM     15  C   UNL     1      -0.298   4.335  -9.950  0.00  0.00    +0.066 C 
ENDBRANCH   4   7
ENDBRANCH   3   4
ENDBRANCH   1   3
BRANCH   1  16
ATOM     16  O   UNL     1      -1.822   3.537  -4.733  0.00  0.00    -0.460 OA
BRANCH  16  17
ATOM     17  C   UNL     1      -1.416   2.685  -3.630  0.00  0.00    +0.271 C 
BRANCH  17  18
ATOM     18  C   UNL     1      -1.411   3.485  -2.353  0.00  0.00    +0.033 A 
ATOM     19  C   UNL     1      -1.762   4.820  -2.373  0.00  0.00    +0.030 A 
ATOM     20  C   UNL     1      -1.759   5.555  -1.201  0.00  0.00    +0.042 A 
ATOM     21  C   UNL     1      -1.401   4.954  -0.007  0.00  0.00    +0.029 A 
ATOM     22  C   UNL     1      -1.047   3.618   0.017  0.00  0.00    +0.022 A 
ATOM     23  C   UNL     1      -1.053   2.879  -1.156  0.00  0.00    +0.135 A 
ATOM     24  O   UNL     1      -0.711   1.563  -1.146  0.00  0.00    -0.465 OA
ATOM     25  C   UNL     1      -0.013   1.086   0.008  0.00  0.00    +0.394 C 
ATOM     26  O   UNL     1      -0.690   1.551   1.182  0.00  0.00    -0.339 OA
ATOM     27  C   UNL     1      -0.653   2.974   1.323  0.00  0.00    +0.202 C 
ATOM     28 CL   UNL     1      -2.203   7.233  -1.227  0.00  0.00    -0.084 Cl
ENDBRANCH  17  18
ENDBRANCH  16  17
ENDBRANCH   1  16
TORSDOF 6
