REMARK  Name = ZINC23220891
REMARK  8 active torsions:
REMARK  status: ('A' for Active; 'I' for Inactive)
REMARK    1  A    between atoms: C_1  and  C_2
REMARK    2  A    between atoms: C_5  and  C_8
REMARK    3  A    between atoms: C_11  and  S_20
REMARK    4  A    between atoms: N_12  and  C_13
REMARK    5  A    between atoms: C_16  and  C_19
REMARK    6  A    between atoms: S_20  and  C_21
REMARK    7  A    between atoms: C_21  and  C_22
REMARK    8  A    between atoms: C_35  and  C_37
REMARK                            x       y       z     vdW  Elec       q    Type
REMARK                         _______ _______ _______ _____ _____    ______ ____
ROOT
ATOM      1  C   UNL     1      -2.205   4.628   6.882  0.00  0.00    +0.169 A 
ATOM      2  N   UNL     1      -1.934   3.639   6.062  0.00  0.00    -0.128 NA
ATOM      3  N   UNL     1      -1.587   4.101   4.915  0.00  0.00    -0.122 NA
ATOM      4  C   UNL     1      -1.613   5.416   4.930  0.00  0.00    +0.197 A 
ATOM      5  N   UNL     1      -2.002   5.799   6.184  0.00  0.00    -0.270 N 
ENDROOT
BRANCH   1  10
ATOM      6  C   UNL     1      -3.895   4.164  12.363  0.00  0.00    +0.044 C 
ATOM      7  C   UNL     1      -3.453   4.286  10.928  0.00  0.00    -0.050 A 
ATOM      8  C   UNL     1      -2.909   3.191  10.280  0.00  0.00    +0.004 A 
ATOM      9  C   UNL     1      -2.502   3.295   8.966  0.00  0.00    +0.012 A 
ATOM     10  C   UNL     1      -2.639   4.509   8.290  0.00  0.00    +0.020 A 
ATOM     11  C   UNL     1      -3.184   5.611   8.951  0.00  0.00    +0.012 A 
ATOM     12  C   UNL     1      -3.592   5.492  10.264  0.00  0.00    +0.004 A 
ENDBRANCH   1  10
BRANCH   5  13
ATOM     13  C   UNL     1      -2.162   7.108   6.659  0.00  0.00    +0.051 A 
ATOM     14  C   UNL     1      -1.341   7.586   7.671  0.00  0.00    +0.026 A 
ATOM     15  C   UNL     1      -1.498   8.879   8.133  0.00  0.00    +0.005 A 
ATOM     16  C   UNL     1      -2.480   9.692   7.596  0.00  0.00    -0.050 A 
ATOM     17  C   UNL     1      -3.303   9.216   6.592  0.00  0.00    +0.005 A 
ATOM     18  C   UNL     1      -3.147   7.926   6.122  0.00  0.00    +0.026 A 
ATOM     19  C   UNL     1      -2.653  11.099   8.107  0.00  0.00    +0.044 C 
ENDBRANCH   5  13
BRANCH   4  20
ATOM     20  S   UNL     1      -1.215   6.484   3.587  0.00  0.00    -0.076 S 
BRANCH  20  21
ATOM     21  C   UNL     1      -0.803   5.258   2.321  0.00  0.00    +0.173 C 
BRANCH  21  22
ATOM     22  C   UNL     1      -0.420   5.962   1.045  0.00  0.00    +0.230 C 
ATOM     23  O   UNL     1      -0.424   7.174   0.996  0.00  0.00    -0.274 OA
ATOM     24  N   UNL     1      -0.072   5.246  -0.042  0.00  0.00    -0.266 N 
ATOM     25  C   UNL     1      -0.062   3.845  -0.001  0.00  0.00    +0.058 A 
ATOM     26  C   UNL     1      -1.249   3.131   0.021  0.00  0.00    +0.025 A 
ATOM     27  C   UNL     1      -1.221   1.748   0.017  0.00  0.00    +0.002 A 
ATOM     28  C   UNL     1      -0.013   1.076   0.008  0.00  0.00    +0.002 A 
ATOM     29  C   UNL     1       1.177   1.781   0.000  0.00  0.00    +0.025 A 
ATOM     30  C   UNL     1       1.157   3.166   0.000  0.00  0.00    +0.055 A 
ATOM     31  N   UNL     1       2.347   3.902   0.026  0.00  0.00    -0.284 N 
ATOM     32  C   UNL     1       2.540   4.924  -0.836  0.00  0.00    +0.219 C 
ATOM     33  O   UNL     1       3.541   5.604  -0.750  0.00  0.00    -0.275 OA
ATOM     34  C   UNL     1       1.521   5.225  -1.904  0.00  0.00    +0.118 C 
ATOM     35  C   UNL     1       0.303   5.916  -1.289  0.00  0.00    +0.087 C 
ATOM     36  C   UNL     1      -0.868   5.851  -2.271  0.00  0.00    +0.029 C 
ATOM     37  H   UNL     1       3.134   3.649   0.751  0.00  0.00    +0.155 HD
ENDBRANCH  21  22
ENDBRANCH  20  21
ENDBRANCH   4  20
TORSDOF 5
