REMARK  Name = ZINC01066847
REMARK  9 active torsions:
REMARK  status: ('A' for Active; 'I' for Inactive)
REMARK    1  A    between atoms: C_1  and  N_2
REMARK    2  A    between atoms: N_2  and  C_3
REMARK    3  A    between atoms: N_2  and  C_4
REMARK    4  A    between atoms: C_7  and  C_10
REMARK    5  A    between atoms: C_15  and  C_20
REMARK    6  A    between atoms: C_23  and  O_28
REMARK    7  A    between atoms: C_24  and  O_26
REMARK    8  A    between atoms: O_26  and  C_27
REMARK    9  A    between atoms: O_28  and  C_29
REMARK                            x       y       z     vdW  Elec       q    Type
REMARK                         _______ _______ _______ _____ _____    ______ ____
ROOT
ATOM      1  C   UNL     1      -2.637   2.371  -2.482  0.00  0.00    +0.136 C 
ATOM      2  C   UNL     1      -1.880   1.918  -1.256  0.00  0.00    +0.036 C 
ATOM      3  C   UNL     1      -2.417   1.639  -0.057  0.00  0.00    +0.017 C 
ATOM      4  C   UNL     1      -1.537   1.167   1.089  0.00  0.00    +0.059 C 
ATOM      5  C   UNL     1      -0.151   1.809   0.984  0.00  0.00    +0.032 C 
ATOM      6  C   UNL     1       0.453   1.390  -0.362  0.00  0.00    +0.088 C 
ATOM      7  C   UNL     1      -0.485   1.798  -1.458  0.00  0.00    +0.163 C 
ATOM      8  O   UNL     1      -0.030   2.036  -2.560  0.00  0.00    -0.292 OA
ATOM      9  N   UNL     1      -3.736   1.739   0.246  0.00  0.00    -0.316 N 
ATOM     10  C   UNL     1      -4.769   1.245  -0.542  0.00  0.00    +0.052 A 
ATOM     11  C   UNL     1      -5.604   0.227  -0.115  0.00  0.00    +0.025 A 
ATOM     12  C   UNL     1      -6.643  -0.187  -0.932  0.00  0.00    +0.002 A 
ATOM     13  C   UNL     1      -6.846   0.414  -2.161  0.00  0.00    +0.002 A 
ATOM     14  C   UNL     1      -6.002   1.421  -2.596  0.00  0.00    +0.025 A 
ATOM     15  C   UNL     1      -4.949   1.823  -1.790  0.00  0.00    +0.049 A 
ATOM     16  N   UNL     1      -4.010   2.754  -2.231  0.00  0.00    -0.331 N 
ATOM     17  H   UNL     1      -3.975   2.187   1.072  0.00  0.00    +0.152 HD
ATOM     18  H   UNL     1      -4.282   3.675  -2.372  0.00  0.00    +0.147 HD
ENDROOT
BRANCH   1  22
ATOM     19  C   UNL     1      -2.618  -0.808  -5.339  0.00  0.00    +0.029 A 
ATOM     20  C   UNL     1      -1.984   0.394  -5.631  0.00  0.00    +0.023 A 
ATOM     21  C   UNL     1      -1.992   1.419  -4.705  0.00  0.00    +0.007 A 
ATOM     22  C   UNL     1      -2.630   1.250  -3.490  0.00  0.00    -0.023 A 
ATOM     23  C   UNL     1      -3.257   0.054  -3.194  0.00  0.00    +0.007 A 
ATOM     24  C   UNL     1      -3.257  -0.974  -4.118  0.00  0.00    +0.023 A 
BRANCH  19  26
ATOM     25  C   UNL     1      -1.832  -1.718  -7.507  0.00  0.00    +0.129 C 
ATOM     26  N   UNL     1      -2.612  -1.846  -6.273  0.00  0.00    -0.336 N 
ATOM     27  C   UNL     1      -3.386  -3.064  -6.019  0.00  0.00    +0.129 C 
ENDBRANCH  19  26
ENDBRANCH   1  22
BRANCH   5  28
ATOM     28  C   UNL     1       0.728   1.329   2.110  0.00  0.00    -0.040 A 
ATOM     29  C   UNL     1       0.972  -0.024   2.265  0.00  0.00    +0.008 A 
ATOM     30  C   UNL     1       1.778  -0.470   3.296  0.00  0.00    +0.049 A 
ATOM     31  C   UNL     1       2.343   0.439   4.177  0.00  0.00    +0.161 A 
ATOM     32  C   UNL     1       2.098   1.800   4.020  0.00  0.00    +0.162 A 
ATOM     33  C   UNL     1       1.293   2.240   2.982  0.00  0.00    +0.053 A 
BRANCH  32  34
ATOM     34  O   UNL     1       2.650   2.695   4.882  0.00  0.00    -0.491 OA
ATOM     35  C   UNL     1       2.354   4.076   4.660  0.00  0.00    +0.277 C 
ENDBRANCH  32  34
BRANCH  31  36
ATOM     36  O   UNL     1       3.136   0.002   5.191  0.00  0.00    -0.491 OA
ATOM     37  C   UNL     1       3.344  -1.409   5.290  0.00  0.00    +0.277 C 
ENDBRANCH  31  36
ENDBRANCH   5  28
TORSDOF 5
