REMARK  Name = ZINC64775783
REMARK  8 active torsions:
REMARK  status: ('A' for Active; 'I' for Inactive)
REMARK    1  A    between atoms: C_1  and  C_2
REMARK    2  A    between atoms: C_2  and  N_3
REMARK    3  A    between atoms: C_7  and  C_9
REMARK    4  A    between atoms: C_9  and  N_10
REMARK    5  A    between atoms: C_11  and  C_13
REMARK    6  A    between atoms: N_23  and  C_31
REMARK    7  A    between atoms: C_31  and  C_32
REMARK    8  A    between atoms: C_35  and  C_38
REMARK                            x       y       z     vdW  Elec       q    Type
REMARK                         _______ _______ _______ _____ _____    ______ ____
ROOT
ATOM      1  C   UNL     1       2.684  -2.001   2.902  0.00  0.00    +0.092 C 
ATOM      2  C   UNL     1       2.598  -0.475   2.962  0.00  0.00    +0.016 C 
ATOM      3  C   UNL     1       3.208   0.022   4.275  0.00  0.00    +0.020 C 
ATOM      4  C   UNL     1       4.684  -0.382   4.333  0.00  0.00    +0.107 C 
ATOM      5  N   UNL     1       4.786  -1.834   4.131  0.00  0.00    -0.310 N 
ATOM      6  C   UNL     1       4.155  -2.429   2.945  0.00  0.00    +0.119 C 
ATOM      7  C   UNL     1       5.463  -2.626   5.040  0.00  0.00    +0.188 A 
ATOM      8  C   UNL     1       6.228  -2.001   6.137  0.00  0.00    +0.292 A 
ATOM      9  O   UNL     1       6.267  -0.790   6.249  0.00  0.00    -0.264 OA
ATOM     10  N   UNL     1       6.883  -2.792   7.015  0.00  0.00    -0.300 N 
ATOM     11  C   UNL     1       6.818  -4.165   6.861  0.00  0.00    +0.071 A 
ATOM     12  C   UNL     1       7.482  -5.001   7.752  0.00  0.00    +0.028 A 
ATOM     13  C   UNL     1       7.413  -6.369   7.592  0.00  0.00    +0.002 A 
ATOM     14  C   UNL     1       6.683  -6.918   6.547  0.00  0.00    +0.002 A 
ATOM     15  C   UNL     1       6.024  -6.116   5.662  0.00  0.00    +0.030 A 
ATOM     16  C   UNL     1       6.079  -4.722   5.803  0.00  0.00    +0.090 A 
ATOM     17  N   UNL     1       5.421  -3.929   4.931  0.00  0.00    -0.225 NA
ENDROOT
BRANCH   1  19
ATOM     18  N   UNL     1       0.758  -2.229   1.368  0.00  0.00    -0.317 N 
ATOM     19  C   UNL     1       2.055  -2.491   1.624  0.00  0.00    +0.218 C 
ATOM     20  O   UNL     1       2.716  -3.121   0.825  0.00  0.00    -0.275 OA
ATOM     21  H   UNL     1       0.230  -1.726   2.007  0.00  0.00    +0.149 HD
BRANCH  18  22
ATOM     22  C   UNL     1       0.146  -2.705   0.125  0.00  0.00    +0.089 C 
BRANCH  22  27
ATOM     23  N   UNL     1      -1.889  -2.598  -1.252  0.00  0.00    +0.382 N 
ATOM     24  C   UNL     1      -3.065  -3.444  -0.958  0.00  0.00    -0.078 C 
ATOM     25  C   UNL     1      -3.511  -3.023   0.464  0.00  0.00    -0.020 C 
ATOM     26  C   UNL     1      -2.147  -2.771   1.158  0.00  0.00    -0.016 C 
ATOM     27  C   UNL     1      -1.285  -2.175   0.025  0.00  0.00    -0.051 C 
ATOM     28  H   UNL     1      -2.180  -1.786  -1.776  0.00  0.00    -0.081 HD
BRANCH  23  30
ATOM     29  C   UNL     1      -1.508  -3.720  -3.395  0.00  0.00    -0.017 C 
ATOM     30  C   UNL     1      -0.910  -3.366  -2.032  0.00  0.00    -0.082 C 
ENDBRANCH  23  30
ENDBRANCH  22  27
ENDBRANCH  18  22
ENDBRANCH   1  19
BRANCH  10  31
ATOM     31  C   UNL     1       7.651  -2.203   8.114  0.00  0.00    +0.160 C 
BRANCH  31  32
ATOM     32  C   UNL     1       6.760  -2.039   9.319  0.00  0.00    -0.028 A 
ATOM     33  C   UNL     1       6.043  -0.870   9.494  0.00  0.00    +0.005 A 
ATOM     34  C   UNL     1       5.225  -0.719  10.598  0.00  0.00    +0.004 A 
ATOM     35  C   UNL     1       5.125  -1.738  11.527  0.00  0.00    -0.050 A 
ATOM     36  C   UNL     1       5.841  -2.907  11.352  0.00  0.00    +0.004 A 
ATOM     37  C   UNL     1       6.655  -3.059  10.245  0.00  0.00    +0.005 A 
ATOM     38  C   UNL     1       4.234  -1.573  12.732  0.00  0.00    +0.044 C 
ENDBRANCH  31  32
ENDBRANCH  10  31
TORSDOF 6
