REMARK  Name = ZINC20932425
REMARK  14 active torsions:
REMARK  status: ('A' for Active; 'I' for Inactive)
REMARK    1  A    between atoms: C_1  and  C_2
REMARK    2  A    between atoms: C_2  and  C_3
REMARK    3  A    between atoms: C_3  and  O_4
REMARK    4  A    between atoms: O_4  and  C_5
REMARK    5  A    between atoms: C_6  and  O_26
REMARK    6  A    between atoms: C_8  and  C_12
REMARK    7  A    between atoms: C_12  and  N_13
REMARK    8  A    between atoms: N_13  and  C_14
REMARK    9  A    between atoms: C_14  and  C_15
REMARK   10  A    between atoms: C_15  and  N_16
REMARK   11  A    between atoms: N_16  and  C_17
REMARK   12  A    between atoms: C_20  and  N_23
REMARK   13  A    between atoms: O_26  and  C_27
REMARK   14  A    between atoms: C_27  and  C_28
REMARK                            x       y       z     vdW  Elec       q    Type
REMARK                         _______ _______ _______ _____ _____    ______ ____
ROOT
ATOM      1  N   UNL     1       3.547  -5.011  -0.058  0.00  0.00    +0.383 N 
ATOM      2  H   UNL     1       4.120  -4.726   0.836  0.00  0.00    -0.085 HD
ATOM      3  H   UNL     1       4.103  -4.716  -0.960  0.00  0.00    -0.085 HD
ENDROOT
BRANCH   1   4
ATOM      4  C   UNL     1       3.341  -6.466  -0.063  0.00  0.00    -0.047 C 
BRANCH   4   8
ATOM      5  C   UNL     1       7.132  -8.444  -0.105  0.00  0.00    +0.176 A 
ATOM      6  C   UNL     1       6.504  -8.117  -1.303  0.00  0.00    +0.163 A 
ATOM      7  C   UNL     1       5.274  -7.481  -1.286  0.00  0.00    +0.051 A 
ATOM      8  C   UNL     1       4.677  -7.162  -0.080  0.00  0.00    -0.060 A 
ATOM      9  C   UNL     1       5.300  -7.487   1.111  0.00  0.00    +0.021 A 
ATOM     10  C   UNL     1       6.526  -8.127   1.100  0.00  0.00    +0.063 A 
ATOM     11 BR   UNL     1       7.375  -8.571   2.731  0.00  0.00    -0.046 Br
BRANCH   5  12
ATOM     12  O   UNL     1       8.338  -9.073  -0.117  0.00  0.00    -0.487 OA
BRANCH  12  13
ATOM     13  C   UNL     1       8.325 -10.502  -0.122  0.00  0.00    +0.229 C 
BRANCH  13  15
ATOM     14  C   UNL     1       9.748 -12.556  -0.142  0.00  0.00    +0.007 C 
ATOM     15  C   UNL     1       9.762 -11.026  -0.136  0.00  0.00    +0.038 C 
ENDBRANCH  13  15
ENDBRANCH  12  13
ENDBRANCH   5  12
BRANCH   6  16
ATOM     16  O   UNL     1       7.095  -8.425  -2.489  0.00  0.00    -0.489 OA
BRANCH  16  17
ATOM     17  C   UNL     1       6.393  -8.059  -3.678  0.00  0.00    +0.226 C 
ATOM     18  C   UNL     1       7.207  -8.484  -4.902  0.00  0.00    +0.048 C 
ENDBRANCH  16  17
ENDBRANCH   6  16
ENDBRANCH   4   8
ENDBRANCH   1   4
BRANCH   1  19
ATOM     19  C   UNL     1       2.263  -4.298  -0.042  0.00  0.00    -0.063 C 
BRANCH  19  20
ATOM     20  C   UNL     1       2.518  -2.789  -0.037  0.00  0.00    +0.082 C 
BRANCH  20  21
ATOM     21  N   UNL     1       1.238  -2.077  -0.021  0.00  0.00    -0.346 N 
ATOM     22  H   UNL     1       0.294  -2.643  -0.014  0.00  0.00    +0.146 HD
BRANCH  21  23
ATOM     23  C   UNL     1       1.215  -0.681  -0.013  0.00  0.00    +0.027 A 
ATOM     24  C   UNL     1       0.002  -0.004   0.002  0.00  0.00    +0.025 A 
ATOM     25  C   UNL     1      -0.017   1.377   0.010  0.00  0.00    +0.034 A 
ATOM     26  C   UNL     1       1.171   2.086   0.002  0.00  0.00    +0.126 A 
ATOM     27  C   UNL     1       2.380   1.416  -0.013  0.00  0.00    +0.034 A 
ATOM     28  C   UNL     1       2.406   0.035  -0.021  0.00  0.00    +0.025 A 
BRANCH  26  29
ATOM     29  N   UNL     1       1.147   3.566   0.010  0.00  0.00    +0.056 N 
ATOM     30  O   UNL     1       0.082   4.158   0.023  0.00  0.00    -0.126 OA
ATOM     31  O   UNL     1       2.191   4.192   0.003  0.00  0.00    -0.126 OA
ENDBRANCH  26  29
ENDBRANCH  21  23
ENDBRANCH  20  21
ENDBRANCH  19  20
ENDBRANCH   1  19
TORSDOF 12
