REMARK  Name = ZINC02132202
REMARK  6 active torsions:
REMARK  status: ('A' for Active; 'I' for Inactive)
REMARK    1  A    between atoms: C_1  and  C_2
REMARK    2  A    between atoms: C_5  and  C_8
REMARK    3  A    between atoms: C_8  and  N_9
REMARK    4  A    between atoms: C_15  and  C_31
REMARK    5  A    between atoms: C_27  and  C_30
REMARK    6  A    between atoms: C_34  and  C_37
REMARK                            x       y       z     vdW  Elec       q    Type
REMARK                         _______ _______ _______ _____ _____    ______ ____
ROOT
ATOM      1  N   UNL     1      -0.095   6.271  -1.344  0.00  0.00    -0.286 N 
ATOM      2  C   UNL     1      -1.385   6.486  -1.978  0.00  0.00    +0.204 C 
ATOM      3  C   UNL     1      -1.250   6.851  -3.421  0.00  0.00    +0.234 C 
ATOM      4  O   UNL     1      -2.266   7.010  -4.063  0.00  0.00    -0.274 OA
ATOM      5  N   UNL     1      -0.082   7.012  -4.049  0.00  0.00    -0.280 N 
ATOM      6  C   UNL     1      -0.067   7.201  -5.511  0.00  0.00    +0.122 C 
ATOM      7  C   UNL     1       0.656   6.013  -6.156  0.00  0.00    +0.069 C 
ATOM      8  C   UNL     1       1.919   5.727  -5.386  0.00  0.00    -0.008 A 
ATOM      9  C   UNL     1       3.074   4.960  -5.804  0.00  0.00    +0.004 A 
ATOM     10  C   UNL     1       3.380   4.275  -6.985  0.00  0.00    +0.010 A 
ATOM     11  C   UNL     1       4.597   3.641  -7.037  0.00  0.00    +0.001 A 
ATOM     12  C   UNL     1       5.488   3.671  -5.976  0.00  0.00    +0.002 A 
ATOM     13  C   UNL     1       5.211   4.340  -4.797  0.00  0.00    +0.026 A 
ATOM     14  C   UNL     1       3.983   4.992  -4.715  0.00  0.00    +0.047 A 
ATOM     15  N   UNL     1       3.401   5.728  -3.723  0.00  0.00    -0.356 N 
ATOM     16  H   UNL     1       3.800   5.913  -2.858  0.00  0.00    +0.166 HD
ATOM     17  C   UNL     1       2.169   6.164  -4.131  0.00  0.00    +0.054 A 
ATOM     18  C   UNL     1       1.200   7.011  -3.343  0.00  0.00    +0.151 C 
ATOM     19  C   UNL     1       1.072   6.505  -1.944  0.00  0.00    +0.246 C 
ATOM     20  O   UNL     1       2.089   6.290  -1.319  0.00  0.00    -0.273 OA
ATOM     21  C   UNL     1       1.732   8.444  -3.282  0.00  0.00    +0.048 C 
ENDROOT
BRANCH   7  22
ATOM     22  C   UNL     1       1.000   6.348  -7.585  0.00  0.00    -0.038 A 
ATOM     23  C   UNL     1       1.813   7.430  -7.864  0.00  0.00    +0.004 A 
ATOM     24  C   UNL     1       2.132   7.734  -9.174  0.00  0.00    +0.003 A 
ATOM     25  C   UNL     1       1.630   6.962 -10.205  0.00  0.00    -0.050 A 
ATOM     26  C   UNL     1       0.813   5.883  -9.926  0.00  0.00    +0.003 A 
ATOM     27  C   UNL     1       0.497   5.575  -8.616  0.00  0.00    +0.004 A 
ATOM     28  C   UNL     1       1.974   7.297 -11.634  0.00  0.00    +0.044 C 
ENDBRANCH   7  22
BRANCH   1  29
ATOM     29  C   UNL     1      -0.076   5.774   0.035  0.00  0.00    +0.143 C 
BRANCH  29  34
ATOM     30  C   UNL     1       0.002  -0.004   0.002  0.00  0.00    +0.044 C 
ATOM     31  C   UNL     1      -0.018   1.503   0.010  0.00  0.00    -0.050 A 
ATOM     32  C   UNL     1      -1.225   2.178   0.020  0.00  0.00    +0.003 A 
ATOM     33  C   UNL     1      -1.244   3.560   0.032  0.00  0.00    +0.005 A 
ATOM     34  C   UNL     1      -0.056   4.267   0.025  0.00  0.00    -0.030 A 
ATOM     35  C   UNL     1       1.151   3.592   0.010  0.00  0.00    +0.005 A 
ATOM     36  C   UNL     1       1.169   2.210   0.003  0.00  0.00    +0.003 A 
ENDBRANCH  29  34
ENDBRANCH   1  29
TORSDOF 3
