REMARK  Name = ZINC04317063
REMARK  5 active torsions:
REMARK  status: ('A' for Active; 'I' for Inactive)
REMARK    1  A    between atoms: C_4  and  C_7
REMARK    2  A    between atoms: N_9  and  C_20
REMARK    3  A    between atoms: C_10  and  C_13
REMARK    4  A    between atoms: C_23  and  S_26
REMARK    5  A    between atoms: S_26  and  N_29
REMARK                            x       y       z     vdW  Elec       q    Type
REMARK                         _______ _______ _______ _____ _____    ______ ____
ROOT
ATOM      1  C   UNL     1       4.581   4.200  -0.019  0.00  0.00    +0.069 C 
ATOM      2  N   UNL     1       3.629   3.332  -0.010  0.00  0.00    -0.183 NA
ATOM      3  N   UNL     1       2.352   3.888   0.000  0.00  0.00    -0.216 N 
ATOM      4  C   UNL     1       2.471   5.355   0.007  0.00  0.00    +0.137 C 
ATOM      5  C   UNL     1       3.994   5.593  -0.006  0.00  0.00    +0.087 C 
ENDROOT
BRANCH   4   6
ATOM      6  C   UNL     1       1.828   5.945  -1.222  0.00  0.00    +0.010 A 
ATOM      7  C   UNL     1       1.589   5.149  -2.327  0.00  0.00    +0.008 A 
ATOM      8  C   UNL     1       0.994   5.689  -3.452  0.00  0.00    +0.000 A 
ATOM      9  C   UNL     1       0.648   7.027  -3.477  0.00  0.00    +0.003 A 
ATOM     10  C   UNL     1       0.891   7.826  -2.376  0.00  0.00    +0.039 A 
ATOM     11  C   UNL     1       1.482   7.285  -1.246  0.00  0.00    +0.128 A 
ATOM     12  F   UNL     1       1.721   8.065  -0.169  0.00  0.00    -0.205 F 
ENDBRANCH   4   6
BRANCH   1  16
ATOM     13  C   UNL     1       8.726   3.289  -0.063  0.00  0.00    +0.000 A 
ATOM     14  C   UNL     1       7.796   2.265  -0.060  0.00  0.00    +0.001 A 
ATOM     15  C   UNL     1       6.447   2.553  -0.045  0.00  0.00    +0.010 A 
ATOM     16  C   UNL     1       6.021   3.884  -0.034  0.00  0.00    -0.002 A 
ATOM     17  C   UNL     1       6.966   4.913  -0.043  0.00  0.00    +0.010 A 
ATOM     18  C   UNL     1       8.311   4.609  -0.052  0.00  0.00    +0.001 A 
ENDBRANCH   1  16
BRANCH   3  19
ATOM     19  C   UNL     1       1.154   3.171   0.008  0.00  0.00    +0.052 A 
ATOM     20  C   UNL     1       1.174   1.782   0.000  0.00  0.00    +0.027 A 
ATOM     21  C   UNL     1      -0.013   1.076   0.008  0.00  0.00    +0.030 A 
ATOM     22  C   UNL     1      -1.220   1.750   0.017  0.00  0.00    +0.105 A 
ATOM     23  C   UNL     1      -1.244   3.133   0.031  0.00  0.00    +0.030 A 
ATOM     24  C   UNL     1      -0.061   3.845   0.023  0.00  0.00    +0.027 A 
BRANCH  22  25
ATOM     25  S   UNL     1      -2.732   0.845   0.020  0.00  0.00    +0.056 S 
ATOM     26  O   UNL     1      -3.723   1.708  -0.522  0.00  0.00    -0.153 OA
ATOM     27  O   UNL     1      -2.443  -0.429  -0.539  0.00  0.00    -0.153 OA
BRANCH  25  28
ATOM     28  N   UNL     1      -3.145   0.585   1.602  0.00  0.00    -0.204 NA
ATOM     29  H   UNL     1      -4.078   0.514   1.854  0.00  0.00    +0.144 HD
ATOM     30  H   UNL     1      -2.452   0.504   2.277  0.00  0.00    +0.144 HD
ENDBRANCH  25  28
ENDBRANCH  22  25
ENDBRANCH   3  19
TORSDOF 5
