REMARK  Name = ZINC66290197
REMARK  10 active torsions:
REMARK  status: ('A' for Active; 'I' for Inactive)
REMARK    1  A    between atoms: C_1  and  C_2
REMARK    2  A    between atoms: C_2  and  N_3
REMARK    3  A    between atoms: N_3  and  C_4
REMARK    4  A    between atoms: C_6  and  C_11
REMARK    5  A    between atoms: C_9  and  C_10
REMARK    6  A    between atoms: C_12  and  C_14
REMARK    7  A    between atoms: C_14  and  C_15
REMARK    8  A    between atoms: C_15  and  C_17
REMARK    9  A    between atoms: C_15  and  N_25
REMARK   10  A    between atoms: C_26  and  C_28
REMARK                            x       y       z     vdW  Elec       q    Type
REMARK                         _______ _______ _______ _____ _____    ______ ____
ROOT
ATOM      1  C   UNL     1      -1.492  -0.306  -2.408  0.00  0.00    +0.123 C 
ENDROOT
BRANCH   1   3
ATOM      2  N   UNL     1       0.700  -0.204  -1.266  0.00  0.00    -0.271 N 
ATOM      3  C   UNL     1      -0.008  -0.563  -2.356  0.00  0.00    +0.222 C 
ATOM      4  O   UNL     1       0.550  -1.092  -3.294  0.00  0.00    -0.275 OA
BRANCH   2   5
ATOM      5  C   UNL     1       2.078  -0.443  -1.217  0.00  0.00    +0.039 A 
ATOM      6  C   UNL     1       2.558  -1.643  -0.710  0.00  0.00    +0.027 A 
ATOM      7  C   UNL     1       3.919  -1.876  -0.663  0.00  0.00    -0.049 A 
ATOM      8  C   UNL     1       4.802  -0.914  -1.120  0.00  0.00    +0.004 A 
ATOM      9  C   UNL     1       4.327   0.282  -1.624  0.00  0.00    +0.005 A 
ATOM     10  C   UNL     1       2.967   0.518  -1.680  0.00  0.00    -0.029 A 
ATOM     11  C   UNL     1       2.449   1.819  -2.236  0.00  0.00    +0.045 C 
ATOM     12  C   UNL     1       4.442  -3.178  -0.113  0.00  0.00    +0.044 C 
ENDBRANCH   2   5
BRANCH   2  14
ATOM     13  C   UNL     1       0.037   1.953  -0.323  0.00  0.00    +0.025 C 
ATOM     14  C   UNL     1       0.026   0.435  -0.133  0.00  0.00    +0.110 C 
ENDBRANCH   2  14
ENDBRANCH   1   3
BRANCH   1  15
ATOM     15  C   UNL     1      -2.049  -0.804  -3.744  0.00  0.00    +0.117 C 
BRANCH  15  16
ATOM     16  C   UNL     1      -3.539  -0.586  -3.779  0.00  0.00    +0.043 A 
ATOM     17  C   UNL     1      -4.143   0.226  -2.835  0.00  0.00    +0.131 A 
ATOM     18  C   UNL     1      -5.513   0.425  -2.868  0.00  0.00    +0.039 A 
ATOM     19  C   UNL     1      -6.278  -0.187  -3.843  0.00  0.00    +0.006 A 
ATOM     20  C   UNL     1      -5.676  -0.999  -4.786  0.00  0.00    +0.039 A 
ATOM     21  C   UNL     1      -4.305  -1.194  -4.758  0.00  0.00    +0.131 A 
ATOM     22  F   UNL     1      -3.716  -1.983  -5.684  0.00  0.00    -0.205 F 
ATOM     23  F   UNL     1      -3.397   0.825  -1.881  0.00  0.00    -0.205 F 
ENDBRANCH  15  16
BRANCH  15  24
ATOM     24  N   UNL     1      -1.760  -2.232  -3.891  0.00  0.00    -0.308 N 
ATOM     25  C   UNL     1      -2.316  -3.123  -3.046  0.00  0.00    +0.210 C 
ATOM     26  O   UNL     1      -2.983  -2.736  -2.110  0.00  0.00    -0.276 OA
ATOM     27  C   UNL     1      -2.110  -4.600  -3.265  0.00  0.00    +0.109 C 
ATOM     28  H   UNL     1      -1.168  -2.537  -4.597  0.00  0.00    +0.149 HD
ENDBRANCH  15  24
ENDBRANCH   1  15
TORSDOF 6
