REMARK  Name = ZINC12868951
REMARK  12 active torsions:
REMARK  status: ('A' for Active; 'I' for Inactive)
REMARK    1  A    between atoms: C_1  and  C_2
REMARK    2  A    between atoms: C_2  and  C_3
REMARK    3  A    between atoms: C_3  and  C_4
REMARK    4  A    between atoms: C_3  and  C_5
REMARK    5  A    between atoms: C_3  and  N_6
REMARK    6  A    between atoms: C_7  and  C_9
REMARK    7  A    between atoms: C_9  and  C_11
REMARK    8  A    between atoms: C_9  and  N_16
REMARK    9  A    between atoms: N_16  and  C_17
REMARK   10  A    between atoms: C_21  and  C_24
REMARK   11  A    between atoms: C_22  and  C_23
REMARK   12  A    between atoms: C_25  and  C_27
REMARK                            x       y       z     vdW  Elec       q    Type
REMARK                         _______ _______ _______ _____ _____    ______ ____
ROOT
ATOM      1  N   UNL     1       3.209   3.577  -0.112  0.00  0.00    -0.247 N 
ATOM      2  C   UNL     1       1.875   3.390  -0.093  0.00  0.00    +0.273 C 
ATOM      3  O   UNL     1       1.419   2.262  -0.084  0.00  0.00    -0.268 OA
ENDROOT
BRANCH   1   4
ATOM      4  C   UNL     1       3.736   4.869  -0.013  0.00  0.00    +0.041 A 
ATOM      5  C   UNL     1       4.024   5.410   1.233  0.00  0.00    +0.024 A 
ATOM      6  C   UNL     1       4.548   6.684   1.327  0.00  0.00    +0.002 A 
ATOM      7  C   UNL     1       4.776   7.426   0.182  0.00  0.00    +0.004 A 
ATOM      8  C   UNL     1       4.485   6.892  -1.060  0.00  0.00    -0.046 A 
ATOM      9  C   UNL     1       3.966   5.616  -1.161  0.00  0.00    -0.026 A 
ATOM     10  C   UNL     1       3.650   5.036  -2.515  0.00  0.00    +0.046 C 
ATOM     11  C   UNL     1       4.735   7.704  -2.305  0.00  0.00    +0.044 C 
ENDBRANCH   1   4
BRANCH   2  12
ATOM     12  C   UNL     1       0.968   4.551  -0.084  0.00  0.00    +0.157 A 
ATOM     13  C   UNL     1      -0.413   4.443  -0.173  0.00  0.00    +0.101 A 
ATOM     14  S   UNL     1      -0.880   6.109  -0.108  0.00  0.00    +0.029 S 
ATOM     15  N   UNL     1       0.545   6.774   0.014  0.00  0.00    -0.110 NA
ATOM     16  N   UNL     1       1.389   5.807   0.011  0.00  0.00    -0.136 NA
ENDBRANCH   2  12
BRANCH   1  17
ATOM     17  C   UNL     1       4.109   2.428  -0.236  0.00  0.00    +0.233 C 
BRANCH  17  18
ATOM     18  C   UNL     1       3.831   1.710  -1.532  0.00  0.00    +0.135 A 
ATOM     19  C   UNL     1       4.757   1.273  -2.404  0.00  0.00    +0.047 A 
ATOM     20  C   UNL     1       4.060   0.660  -3.470  0.00  0.00    +0.041 A 
ATOM     21  C   UNL     1       2.748   0.765  -3.189  0.00  0.00    +0.195 A 
ATOM     22  O   UNL     1       2.616   1.402  -2.014  0.00  0.00    -0.465 OA
ENDBRANCH  17  18
BRANCH  17  24
ATOM     23  N   UNL     1       4.604   0.351   1.014  0.00  0.00    -0.308 N 
ATOM     24  C   UNL     1       3.883   1.486   0.918  0.00  0.00    +0.242 C 
ATOM     25  O   UNL     1       3.052   1.749   1.762  0.00  0.00    -0.273 OA
ATOM     26  H   UNL     1       5.268   0.141   0.339  0.00  0.00    +0.149 HD
BRANCH  23  27
ATOM     27  C   UNL     1       4.384  -0.564   2.136  0.00  0.00    +0.029 C 
ATOM     28  C   UNL     1       4.666   0.165   3.452  0.00  0.00    +0.031 C 
ATOM     29  C   UNL     1       2.933  -1.048   2.123  0.00  0.00    +0.031 C 
BRANCH  27  31
ATOM     30  C   UNL     1       5.094  -2.721   3.179  0.00  0.00    +0.006 C 
ATOM     31  C   UNL     1       5.323  -1.765   2.007  0.00  0.00    +0.022 C 
ENDBRANCH  27  31
ENDBRANCH  23  27
ENDBRANCH  17  24
ENDBRANCH   1  17
TORSDOF 7
