REMARK  Name = ZINC00651073
REMARK  10 active torsions:
REMARK  status: ('A' for Active; 'I' for Inactive)
REMARK    1  A    between atoms: C_1  and  C_2
REMARK    2  A    between atoms: C_5  and  C_8
REMARK    3  A    between atoms: C_11  and  S_19
REMARK    4  A    between atoms: N_12  and  C_13
REMARK    5  A    between atoms: S_19  and  C_20
REMARK    6  A    between atoms: C_20  and  C_22
REMARK    7  A    between atoms: C_20  and  C_23
REMARK    8  A    between atoms: N_25  and  N_26
REMARK    9  A    between atoms: C_27  and  C_29
REMARK   10  A    between atoms: C_32  and  C_35
REMARK                            x       y       z     vdW  Elec       q    Type
REMARK                         _______ _______ _______ _____ _____    ______ ____
ROOT
ATOM      1  C   UNL     1       1.696   4.332  -0.939  0.00  0.00    +0.169 A 
ATOM      2  N   UNL     1       1.490   5.559  -0.521  0.00  0.00    -0.128 NA
ATOM      3  N   UNL     1       0.847   5.543   0.591  0.00  0.00    -0.122 NA
ATOM      4  C   UNL     1       0.595   4.304   0.950  0.00  0.00    +0.197 A 
ATOM      5  N   UNL     1       1.124   3.488  -0.012  0.00  0.00    -0.270 N 
ENDROOT
BRANCH   1  10
ATOM      6  C   UNL     1       4.456   2.771  -5.741  0.00  0.00    +0.044 C 
ATOM      7  C   UNL     1       3.733   3.179  -4.484  0.00  0.00    -0.050 A 
ATOM      8  C   UNL     1       2.901   2.278  -3.843  0.00  0.00    +0.004 A 
ATOM      9  C   UNL     1       2.237   2.646  -2.692  0.00  0.00    +0.012 A 
ATOM     10  C   UNL     1       2.405   3.931  -2.173  0.00  0.00    +0.020 A 
ATOM     11  C   UNL     1       3.241   4.837  -2.827  0.00  0.00    +0.012 A 
ATOM     12  C   UNL     1       3.904   4.455  -3.975  0.00  0.00    +0.004 A 
ENDBRANCH   1  10
BRANCH   5  13
ATOM     13  C   UNL     1       1.095   2.087  -0.046  0.00  0.00    +0.051 A 
ATOM     14  C   UNL     1      -0.109   1.421  -0.233  0.00  0.00    +0.026 A 
ATOM     15  C   UNL     1      -0.135   0.040  -0.266  0.00  0.00    +0.002 A 
ATOM     16  C   UNL     1       1.037  -0.678  -0.112  0.00  0.00    +0.000 A 
ATOM     17  C   UNL     1       2.237  -0.018   0.075  0.00  0.00    +0.002 A 
ATOM     18  C   UNL     1       2.269   1.363   0.109  0.00  0.00    +0.026 A 
ENDBRANCH   5  13
BRANCH   4  19
ATOM     19  S   UNL     1      -0.262   3.790   2.401  0.00  0.00    -0.073 S 
BRANCH  19  20
ATOM     20  C   UNL     1      -0.631   5.402   3.136  0.00  0.00    +0.138 C 
ATOM     21  C   UNL     1       0.675   6.094   3.532  0.00  0.00    +0.029 C 
BRANCH  20  22
ATOM     22  C   UNL     1      -1.489   5.212   4.361  0.00  0.00    +0.242 C 
ATOM     23  O   UNL     1      -1.455   4.162   4.968  0.00  0.00    -0.273 OA
ATOM     24  N   UNL     1      -2.294   6.207   4.781  0.00  0.00    -0.233 N 
ATOM     25  H   UNL     1      -2.321   7.047   4.296  0.00  0.00    +0.173 HD
BRANCH  24  26
ATOM     26  N   UNL     1      -3.091   6.030   5.919  0.00  0.00    -0.230 N 
ATOM     27  C   UNL     1      -3.896   7.026   6.340  0.00  0.00    +0.260 C 
ATOM     28  O   UNL     1      -3.930   8.078   5.731  0.00  0.00    -0.269 OA
ATOM     29  H   UNL     1      -3.064   5.191   6.405  0.00  0.00    +0.173 HD
BRANCH  27  30
ATOM     30  C   UNL     1      -4.738   6.839   7.541  0.00  0.00    +0.038 A 
ATOM     31  C   UNL     1      -4.705   5.631   8.238  0.00  0.00    +0.013 A 
ATOM     32  C   UNL     1      -5.490   5.464   9.361  0.00  0.00    +0.004 A 
ATOM     33  C   UNL     1      -6.315   6.489   9.790  0.00  0.00    -0.050 A 
ATOM     34  C   UNL     1      -6.356   7.687   9.100  0.00  0.00    +0.004 A 
ATOM     35  C   UNL     1      -5.573   7.868   7.979  0.00  0.00    +0.013 A 
ATOM     36  C   UNL     1      -7.174   6.298  11.014  0.00  0.00    +0.044 C 
ENDBRANCH  27  30
ENDBRANCH  24  26
ENDBRANCH  20  22
ENDBRANCH  19  20
ENDBRANCH   4  19
TORSDOF 7
