REMARK  Name = ZINC08629658
REMARK  8 active torsions:
REMARK  status: ('A' for Active; 'I' for Inactive)
REMARK    1  A    between atoms: C_8  and  C_10
REMARK    2  A    between atoms: N_12  and  C_13
REMARK    3  A    between atoms: C_13  and  C_14
REMARK    4  A    between atoms: C_14  and  O_16
REMARK    5  A    between atoms: O_16  and  C_17
REMARK    6  A    between atoms: C_17  and  C_18
REMARK    7  A    between atoms: N_20  and  C_21
REMARK    8  A    between atoms: C_22  and  C_26
REMARK                            x       y       z     vdW  Elec       q    Type
REMARK                         _______ _______ _______ _____ _____    ______ ____
ROOT
ATOM      1  C   UNL     1       3.107  10.133   0.029  0.00  0.00    +0.325 C 
ATOM      2  O   UNL     1       1.901  10.204   0.041  0.00  0.00    -0.249 OA
ENDROOT
BRANCH   1   3
ATOM      3  C   UNL     1       3.782   8.786   0.015  0.00  0.00    +0.225 C 
BRANCH   3   6
ATOM      4  C   UNL     1       3.140   6.435   0.008  0.00  0.00    +0.253 C 
ATOM      5  O   UNL     1       4.322   6.143  -0.005  0.00  0.00    -0.270 OA
ATOM      6  N   UNL     1       2.767   7.730   0.019  0.00  0.00    -0.300 N 
ATOM      7  H   UNL     1       1.825   7.963   0.029  0.00  0.00    +0.150 HD
BRANCH   4  15
ATOM      8  C   UNL     1      -0.013   1.076   0.008  0.00  0.00    +0.001 A 
ATOM      9  C   UNL     1      -1.235   1.737   0.017  0.00  0.00    +0.001 A 
ATOM     10  C   UNL     1      -1.261   3.117   0.030  0.00  0.00    +0.016 A 
ATOM     11  C   UNL     1      -0.075   3.819   0.023  0.00  0.00    +0.021 A 
ATOM     12  C   UNL     1       1.184   3.173   0.008  0.00  0.00    +0.008 A 
ATOM     13  C   UNL     1       1.164   1.754   0.000  0.00  0.00    +0.010 A 
ATOM     14  C   UNL     1       2.301   4.028   0.002  0.00  0.00    +0.068 A 
ATOM     15  C   UNL     1       2.122   5.377   0.011  0.00  0.00    +0.093 A 
ATOM     16  S   UNL     1       0.346   5.544   0.029  0.00  0.00    -0.082 S 
ATOM     17 CL   UNL     1       3.905   3.364  -0.017  0.00  0.00    -0.082 Cl
ENDBRANCH   4  15
ENDBRANCH   3   6
ENDBRANCH   1   3
BRANCH   1  18
ATOM     18  O   UNL     1       3.845  11.254   0.029  0.00  0.00    -0.454 OA
BRANCH  18  19
ATOM     19  C   UNL     1       3.127  12.516   0.043  0.00  0.00    +0.328 C 
BRANCH  19  20
ATOM     20  C   UNL     1       4.114  13.655   0.040  0.00  0.00    +0.255 C 
ATOM     21  O   UNL     1       5.305  13.426   0.028  0.00  0.00    -0.272 OA
ATOM     22  N   UNL     1       3.673  14.929   0.051  0.00  0.00    -0.277 N 
ATOM     23  H   UNL     1       2.720  15.112   0.061  0.00  0.00    +0.155 HD
BRANCH  22  24
ATOM     24  C   UNL     1       4.581  15.977   0.049  0.00  0.00    +0.084 A 
ATOM     25  C   UNL     1       4.323  17.342   0.053  0.00  0.00    +0.065 A 
ATOM     26  C   UNL     1       5.469  18.220   0.053  0.00  0.00    +0.022 A 
ATOM     27  C   UNL     1       6.684  17.643   0.038  0.00  0.00    +0.048 A 
ATOM     28  S   UNL     1       6.311  15.902   0.032  0.00  0.00    -0.081 S 
BRANCH  25  29
ATOM     29  C   UNL     1       2.953  17.866   0.062  0.00  0.00    +0.244 C 
ATOM     30  O   UNL     1       2.008  17.099   0.066  0.00  0.00    -0.270 OA
ATOM     31  N   UNL     1       2.741  19.197   0.066  0.00  0.00    -0.325 N 
ATOM     32  H   UNL     1       3.494  19.809   0.064  0.00  0.00    +0.145 HD
ATOM     33  H   UNL     1       1.835  19.544   0.072  0.00  0.00    +0.145 HD
ENDBRANCH  25  29
ENDBRANCH  22  24
ENDBRANCH  19  20
ENDBRANCH  18  19
ENDBRANCH   1  18
TORSDOF 8
