REMARK  Name = ZINC22214448
REMARK  9 active torsions:
REMARK  status: ('A' for Active; 'I' for Inactive)
REMARK    1  A    between atoms: C_1  and  C_2
REMARK    2  A    between atoms: C_2  and  O_3
REMARK    3  A    between atoms: O_3  and  C_4
REMARK    4  A    between atoms: C_7  and  C_9
REMARK    5  A    between atoms: C_9  and  S_10
REMARK    6  A    between atoms: S_10  and  C_11
REMARK    7  A    between atoms: C_19  and  C_23
REMARK    8  A    between atoms: N_26  and  C_27
REMARK    9  A    between atoms: C_27  and  C_28
REMARK                            x       y       z     vdW  Elec       q    Type
REMARK                         _______ _______ _______ _____ _____    ______ ____
ROOT
ATOM      1  C   UNL     1      -2.605   0.831   3.801  0.00  0.00    +0.173 A 
ATOM      2  N   UNL     1      -3.320   1.285   4.811  0.00  0.00    -0.216 NA
ATOM      3  C   UNL     1      -2.818   2.186   5.648  0.00  0.00    +0.117 A 
ATOM      4  C   UNL     1      -1.518   2.698   5.504  0.00  0.00    +0.076 A 
ATOM      5  C   UNL     1      -1.105   3.685   6.503  0.00  0.00    -0.023 A 
ATOM      6  C   UNL     1      -2.004   4.005   7.456  0.00  0.00    -0.004 A 
ATOM      7  S   UNL     1      -3.435   3.026   7.085  0.00  0.00    -0.073 S 
ATOM      8  C   UNL     1      -1.827   4.978   8.581  0.00  0.00    +0.046 C 
ATOM      9  C   UNL     1      -0.595   5.844   8.283  0.00  0.00    -0.009 C 
ATOM     10  C   UNL     1       0.560   4.929   7.865  0.00  0.00    +0.008 C 
ATOM     11  C   UNL     1       0.277   4.334   6.485  0.00  0.00    +0.037 C 
ATOM     12  C   UNL     1      -0.201   6.626   9.538  0.00  0.00    +0.008 C 
ATOM     13  C   UNL     1      -0.764   2.183   4.402  0.00  0.00    +0.263 A 
ATOM     14  O   UNL     1       0.376   2.566   4.201  0.00  0.00    -0.267 OA
ATOM     15  N   UNL     1      -1.332   1.274   3.588  0.00  0.00    -0.285 N 
ENDROOT
BRANCH   1  16
ATOM     16  S   UNL     1      -3.303  -0.365   2.712  0.00  0.00    -0.078 S 
BRANCH  16  17
ATOM     17  C   UNL     1      -4.938  -0.558   3.463  0.00  0.00    +0.173 C 
BRANCH  17  21
ATOM     18  C   UNL     1      -7.708  -2.771   2.348  0.00  0.00    +0.407 C 
ATOM     19  O   UNL     1      -7.219  -3.306   1.373  0.00  0.00    -0.226 OA
ATOM     20  N   UNL     1      -6.994  -1.871   3.052  0.00  0.00    -0.221 N 
ATOM     21  C   UNL     1      -5.737  -1.565   2.675  0.00  0.00    +0.232 C 
ATOM     22  O   UNL     1      -5.249  -2.099   1.703  0.00  0.00    -0.274 OA
ATOM     23  H   UNL     1      -7.437  -1.386   3.935  0.00  0.00    +0.161 HD
BRANCH  18  24
ATOM     24  O   UNL     1      -8.964  -3.077   2.724  0.00  0.00    -0.450 OA
BRANCH  24  26
ATOM     25  C   UNL     1     -11.074  -4.271   2.497  0.00  0.00    +0.048 C 
ATOM     26  C   UNL     1      -9.674  -4.055   1.919  0.00  0.00    +0.230 C 
ENDBRANCH  24  26
ENDBRANCH  18  24
ENDBRANCH  17  21
ENDBRANCH  16  17
ENDBRANCH   1  16
BRANCH  15  27
ATOM     27  C   UNL     1      -0.568   0.746   2.455  0.00  0.00    +0.159 C 
BRANCH  27  28
ATOM     28  C   UNL     1      -0.810   1.621   1.224  0.00  0.00    +0.138 C 
ATOM     29  C   UNL     1      -0.013   1.086   0.008  0.00  0.00    +0.035 C 
ATOM     30  C   UNL     1      -0.833   1.634  -1.185  0.00  0.00    +0.031 C 
ATOM     31  C   UNL     1      -2.223   1.924  -0.587  0.00  0.00    +0.160 C 
ATOM     32  O   UNL     1      -2.186   1.524   0.793  0.00  0.00    -0.375 OA
ENDBRANCH  27  28
ENDBRANCH  15  27
TORSDOF 7
