REMARK  Name = ZINC63215556
REMARK  3 active torsions:
REMARK  status: ('A' for Active; 'I' for Inactive)
REMARK    1  A    between atoms: C_4  and  N_10
REMARK    2  A    between atoms: CA_5  and  C_7
REMARK    3  A    between atoms: C_11  and  C_13
REMARK                            x       y       z     vdW  Elec       q    Type
REMARK                         _______ _______ _______ _____ _____    ______ ____
ROOT
ATOM      1  N   UNL     1       3.568  -0.586   0.289  0.00  0.00    -0.264 N 
ATOM      2  C   UNL     1       4.719   0.115   0.335  0.00  0.00    +0.250 C 
ATOM      3  O   UNL     1       4.696   1.326   0.249  0.00  0.00    -0.270 OA
ATOM      4  H   UNL     1       3.587  -1.553   0.357  0.00  0.00    +0.157 HD
ENDROOT
BRANCH   2   5
ATOM      5  C   UNL     1       6.014  -0.595   0.492  0.00  0.00    +0.047 A 
ATOM      6  C   UNL     1       6.053  -1.987   0.592  0.00  0.00    +0.083 A 
ATOM      7  C   UNL     1       7.276  -2.627   0.737  0.00  0.00    +0.252 A 
ATOM      8  N   UNL     1       8.423  -1.914   0.782  0.00  0.00    -0.290 N 
ATOM      9  C   UNL     1       8.411  -0.565   0.688  0.00  0.00    +0.252 A 
ATOM     10  C   UNL     1       7.213   0.120   0.535  0.00  0.00    +0.083 A 
ATOM     11  O   UNL     1       9.563   0.115   0.736  0.00  0.00    -0.268 OA
ATOM     12  O   UNL     1       7.319  -3.962   0.833  0.00  0.00    -0.268 OA
ATOM     13  H   UNL     1       9.270  -2.377   0.885  0.00  0.00    +0.172 HD
ENDBRANCH   2   5
BRANCH   1  17
ATOM     14  C   UNL     1      -0.010   1.309  -0.134  0.00  0.00    +0.131 A 
ATOM     15  C   UNL     1       1.185   2.014  -0.202  0.00  0.00    +0.132 A 
ATOM     16  N   UNL     1       2.338   1.388  -0.063  0.00  0.00    -0.236 NA
ATOM     17  C   UNL     1       2.360   0.076   0.143  0.00  0.00    +0.158 A 
ATOM     18  CA  UNL     1       1.152  -0.637   0.212  0.00  0.00    +0.192 A 
ATOM     19  N   UNL     1      -0.004   0.008   0.070  0.00  0.00    -0.244 NA
BRANCH  18  20
ATOM     20  C   UNL     1       1.164  -2.095   0.440  0.00  0.00    +0.408 C 
ATOM     21  O   UNL     1       2.092  -2.611   1.045  0.00  0.00    -0.239 OA
ATOM     22  OXT UNL     1       0.245  -2.786   0.024  0.00  0.00    -0.239 OA
ENDBRANCH  18  20
ENDBRANCH   1  17
TORSDOF 3
