REMARK  Name = ZINC39462838
REMARK  1 active torsions:
REMARK  status: ('A' for Active; 'I' for Inactive)
REMARK    1  A    between atoms: C_2  and  O_12
REMARK                            x       y       z     vdW  Elec       q    Type
REMARK                         _______ _______ _______ _____ _____    ______ ____
ROOT
ATOM      1  C   UNL     1      -0.017   1.402   0.010  0.00  0.00    +0.092 A 
ATOM      2  C   UNL     1       1.175   2.093   0.002  0.00  0.00    +0.125 A 
ATOM      3  C   UNL     1       2.388   1.380  -0.013  0.00  0.00    +0.116 A 
ATOM      4  C   UNL     1       2.381   0.024  -0.021  0.00  0.00    +0.261 A 
ATOM      5  N   UNL     1       1.202  -0.668  -0.013  0.00  0.00    -0.253 N 
ATOM      6  C   UNL     1       0.002  -0.004   0.002  0.00  0.00    +0.145 A 
ATOM      7  N   UNL     1      -0.968  -0.909   0.006  0.00  0.00    -0.235 NA
ATOM      8  C   UNL     1      -0.428  -2.133  -0.005  0.00  0.00    +0.147 A 
ATOM      9  C   UNL     1       0.916  -2.013  -0.018  0.00  0.00    +0.112 A 
ATOM     10 BR   UNL     1       2.170  -3.428  -0.038  0.00  0.00    -0.029 Br
ATOM     11  O   UNL     1       3.555  -0.652  -0.035  0.00  0.00    -0.267 OA
ENDROOT
BRANCH   2  12
ATOM     12  O   UNL     1       1.180   3.450   0.009  0.00  0.00    -0.506 OA
ATOM     13  H   UNL     1       2.065   3.840   0.003  0.00  0.00    +0.292 HD
ENDBRANCH   2  12
TORSDOF 1
