REMARK  Name = ZINC13064265
REMARK  11 active torsions:
REMARK  status: ('A' for Active; 'I' for Inactive)
REMARK    1  A    between atoms: C_1  and  C_2
REMARK    2  A    between atoms: C_2  and  C_3
REMARK    3  A    between atoms: C_3  and  C_5
REMARK    4  A    between atoms: C_3  and  N_73
REMARK    5  A    between atoms: N_9  and  C_10
REMARK    6  A    between atoms: C_16  and  C_17
REMARK    7  A    between atoms: C_16  and  N_73
REMARK    8  A    between atoms: C_26  and  C_27
REMARK    9  A    between atoms: C_26  and  N_73
REMARK   10  A    between atoms: C_32  and  O_39
REMARK   11  A    between atoms: O_39  and  C_40
REMARK                            x       y       z     vdW  Elec       q    Type
REMARK                         _______ _______ _______ _____ _____    ______ ____
ROOT
ATOM      1  N   UNL     1      -8.083  -0.538   5.331  0.00  0.00    +0.392 N 
ATOM      2  H   UNL     1      -7.923   0.079   6.136  0.00  0.00    -0.080 HD
ENDROOT
BRANCH   1   3
ATOM      3  C   UNL     1      -9.478  -1.024   5.368  0.00  0.00    +0.003 C 
BRANCH   3   4
ATOM      4  C   UNL     1      -9.708  -2.053   4.291  0.00  0.00    +0.138 A 
ATOM      5  N   UNL     1      -8.872  -2.988   3.911  0.00  0.00    -0.115 NA
ATOM      6  N   UNL     1      -9.433  -3.665   2.969  0.00  0.00    -0.023 NA
ATOM      7  N   UNL     1     -10.606  -3.186   2.739  0.00  0.00    -0.044 NA
ATOM      8  N   UNL     1     -10.814  -2.194   3.538  0.00  0.00    -0.228 N 
BRANCH   8   9
ATOM      9  C   UNL     1     -12.026  -1.374   3.608  0.00  0.00    +0.111 C 
ATOM     10  C   UNL     1     -13.196  -2.233   4.090  0.00  0.00    +0.027 C 
ATOM     11  C   UNL     1     -14.462  -1.377   4.165  0.00  0.00    +0.002 C 
ATOM     12  C   UNL     1     -14.779  -0.815   2.777  0.00  0.00    +0.000 C 
ATOM     13  C   UNL     1     -13.609   0.045   2.295  0.00  0.00    +0.002 C 
ATOM     14  C   UNL     1     -12.343  -0.812   2.221  0.00  0.00    +0.027 C 
ENDBRANCH   8   9
ENDBRANCH   3   4
BRANCH   3  16
ATOM     15  C   UNL     1      -9.606  -0.582   7.824  0.00  0.00    +0.002 C 
ATOM     16  C   UNL     1      -9.747  -1.651   6.738  0.00  0.00    -0.011 C 
ENDBRANCH   3  16
ENDBRANCH   1   3
BRANCH   1  17
ATOM     17  C   UNL     1      -7.148  -1.681   5.409  0.00  0.00    -0.041 C 
BRANCH  17  18
ATOM     18  C   UNL     1      -5.806  -1.175   5.871  0.00  0.00    -0.060 A 
ATOM     19  C   UNL     1      -4.850  -0.807   4.942  0.00  0.00    +0.005 A 
ATOM     20  C   UNL     1      -3.619  -0.337   5.361  0.00  0.00    +0.050 A 
ATOM     21  C   UNL     1      -3.336  -0.245   6.714  0.00  0.00    +0.166 A 
ATOM     22  C   UNL     1      -4.297  -0.620   7.650  0.00  0.00    +0.166 A 
ATOM     23  C   UNL     1      -5.530  -1.085   7.223  0.00  0.00    +0.051 A 
ATOM     24  O   UNL     1      -3.782  -0.438   8.901  0.00  0.00    -0.453 OA
ATOM     25  C   UNL     1      -2.357  -0.336   8.719  0.00  0.00    +0.466 C 
ATOM     26  O   UNL     1      -2.219   0.172   7.378  0.00  0.00    -0.453 OA
ENDBRANCH  17  18
ENDBRANCH   1  17
BRANCH   1  27
ATOM     27  C   UNL     1      -7.846   0.224   4.087  0.00  0.00    -0.036 C 
BRANCH  27  28
ATOM     28  C   UNL     1      -8.426   1.605   4.250  0.00  0.00    +0.001 A 
ATOM     29  C   UNL     1      -7.642   2.619   4.697  0.00  0.00    +0.017 A 
ATOM     30  C   UNL     1      -8.234   3.948   4.845  0.00  0.00    -0.001 A 
ATOM     31  C   UNL     1      -7.474   5.031   5.302  0.00  0.00    +0.013 A 
ATOM     32  C   UNL     1      -8.052   6.261   5.424  0.00  0.00    +0.046 A 
ATOM     33  C   UNL     1      -9.397   6.446   5.108  0.00  0.00    +0.122 A 
ATOM     34  C   UNL     1     -10.165   5.387   4.654  0.00  0.00    +0.072 A 
ATOM     35  C   UNL     1      -9.592   4.129   4.518  0.00  0.00    +0.053 A 
ATOM     36  N   UNL     1     -10.334   3.058   4.068  0.00  0.00    -0.322 N 
ATOM     37  H   UNL     1     -11.270   3.184   3.844  0.00  0.00    +0.169 HD
ATOM     38  C   UNL     1      -9.780   1.840   3.937  0.00  0.00    +0.251 A 
ATOM     39  O   UNL     1     -10.466   0.915   3.537  0.00  0.00    -0.268 OA
BRANCH  33  40
ATOM     40  O   UNL     1      -9.957   7.675   5.241  0.00  0.00    -0.495 OA
ATOM     41  C   UNL     1      -9.111   8.725   5.714  0.00  0.00    +0.277 C 
ENDBRANCH  33  40
ENDBRANCH  27  28
ENDBRANCH   1  27
TORSDOF 9
