REMARK  Name = ZINC39465683
REMARK  5 active torsions:
REMARK  status: ('A' for Active; 'I' for Inactive)
REMARK    1  A    between atoms: C_1  and  C_2
REMARK    2  A    between atoms: C_2  and  O_3
REMARK    3  A    between atoms: O_3  and  P_4
REMARK    4  A    between atoms: C_13  and  C_20
REMARK    5  A    between atoms: C_25  and  O_26
REMARK                            x       y       z     vdW  Elec       q    Type
REMARK                         _______ _______ _______ _____ _____    ______ ____
ROOT
ATOM      1  P   UNL     1      -1.694  -2.069   0.007  0.00  0.00    +0.421 P 
ATOM      2  O   UNL     1      -0.827  -2.785  -0.955  0.00  0.00    -0.239 OA
ATOM      3  N   UNL     1      -1.512  -2.701   1.524  0.00  0.00    -0.156 NA
ATOM      4  N   UNL     1      -2.189  -3.871   1.789  0.00  0.00    -0.224 NA
ATOM      5  C   UNL     1      -1.939  -4.287   3.177  0.00  0.00    +0.108 C 
ATOM      6  C   UNL     1      -2.409  -5.731   3.350  0.00  0.00    +0.052 C 
ATOM      7  C   UNL     1      -3.829  -5.864   2.859  0.00  0.00    -0.040 A 
ATOM      8  C   UNL     1      -4.572  -6.960   3.274  0.00  0.00    +0.024 A 
ATOM      9  C   UNL     1      -5.874  -7.124   2.850  0.00  0.00    +0.049 A 
ATOM     10  C   UNL     1      -6.446  -6.179   1.998  0.00  0.00    +0.004 A 
ATOM     11  C   UNL     1      -5.696  -5.083   1.585  0.00  0.00    +0.015 A 
ATOM     12  C   UNL     1      -4.388  -4.926   2.016  0.00  0.00    -0.023 A 
ATOM     13  C   UNL     1      -3.622  -3.721   1.538  0.00  0.00    +0.130 C 
ATOM     14  C   UNL     1      -3.900  -3.510   0.047  0.00  0.00    +0.196 C 
ATOM     15  O   UNL     1      -3.260  -2.289  -0.374  0.00  0.00    -0.294 OA
ATOM     16 CL   UNL     1      -6.796  -8.498   3.374  0.00  0.00    -0.083 Cl
ATOM     17  H   UNL     1      -0.957  -2.270   2.193  0.00  0.00    +0.153 HD
ENDROOT
BRANCH  10  18
ATOM     18  C   UNL     1      -7.845  -6.343   1.534  0.00  0.00    +0.025 A 
ATOM     19  C   UNL     1      -8.114  -6.561   0.185  0.00  0.00    +0.012 A 
ATOM     20  C   UNL     1      -9.418  -6.713  -0.241  0.00  0.00    +0.001 A 
ATOM     21  C   UNL     1     -10.460  -6.649   0.667  0.00  0.00    +0.004 A 
ATOM     22  C   UNL     1     -10.204  -6.434   2.008  0.00  0.00    +0.046 A 
ATOM     23  C   UNL     1      -8.900  -6.285   2.450  0.00  0.00    +0.125 A 
BRANCH  23  24
ATOM     24  O   UNL     1      -8.646  -6.079   3.769  0.00  0.00    -0.506 OA
ATOM     25  H   UNL     1      -8.634  -5.147   4.026  0.00  0.00    +0.292 HD
ENDBRANCH  23  24
ENDBRANCH  10  18
BRANCH   1  26
ATOM     26  O   UNL     1      -1.339  -0.499   0.012  0.00  0.00    -0.296 OA
BRANCH  26  28
ATOM     27  C   UNL     1      -0.019   1.526   0.010  0.00  0.00    +0.035 C 
ATOM     28  C   UNL     1       0.002  -0.004   0.002  0.00  0.00    +0.168 C 
ENDBRANCH  26  28
ENDBRANCH   1  26
TORSDOF 4
