REMARK  Name = ZINC05045019
REMARK  7 active torsions:
REMARK  status: ('A' for Active; 'I' for Inactive)
REMARK    1  A    between atoms: C_1  and  C_2
REMARK    2  A    between atoms: C_9  and  N_25
REMARK    3  A    between atoms: C_10  and  C_23
REMARK    4  A    between atoms: C_11  and  C_13
REMARK    5  A    between atoms: C_16  and  O_19
REMARK    6  A    between atoms: O_19  and  C_20
REMARK    7  A    between atoms: C_20  and  C_21
REMARK                            x       y       z     vdW  Elec       q    Type
REMARK                         _______ _______ _______ _____ _____    ______ ____
ROOT
ATOM      1  C   UNL     1      -0.927  -2.020   6.554  0.00  0.00    +0.068 C 
ATOM      2  C   UNL     1       0.533  -2.369   6.416  0.00  0.00    +0.068 A 
ATOM      3  C   UNL     1       1.573  -1.467   6.239  0.00  0.00    +0.049 A 
ATOM      4  C   UNL     1       2.739  -2.176   6.160  0.00  0.00    +0.222 A 
ATOM      5  N   UNL     1       2.432  -3.477   6.282  0.00  0.00    -0.246 N 
ATOM      6  H   UNL     1       3.080  -4.239   6.262  0.00  0.00    +0.192 HD
ATOM      7  N   UNL     1       1.042  -3.578   6.443  0.00  0.00    -0.176 NA
ATOM      8  O   UNL     1       3.947  -1.583   5.987  0.00  0.00    -0.423 OA
ATOM      9  C   UNL     1       4.018  -0.248   6.167  0.00  0.00    +0.200 C 
ATOM     10  C   UNL     1       2.937   0.559   6.250  0.00  0.00    +0.098 C 
ATOM     11  C   UNL     1       1.527   0.036   6.140  0.00  0.00    +0.101 C 
ENDROOT
BRANCH  11  12
ATOM     12  C   UNL     1       0.936   0.440   4.814  0.00  0.00    -0.034 A 
ATOM     13  C   UNL     1      -0.203   1.223   4.776  0.00  0.00    +0.008 A 
ATOM     14  C   UNL     1      -0.747   1.595   3.561  0.00  0.00    +0.046 A 
ATOM     15  C   UNL     1      -0.149   1.182   2.380  0.00  0.00    +0.122 A 
ATOM     16  C   UNL     1       0.991   0.392   2.421  0.00  0.00    +0.046 A 
ATOM     17  C   UNL     1       1.534   0.028   3.638  0.00  0.00    +0.008 A 
BRANCH  15  18
ATOM     18  O   UNL     1      -0.682   1.547   1.184  0.00  0.00    -0.480 OA
BRANCH  18  19
ATOM     19  C   UNL     1      -0.013   1.086   0.008  0.00  0.00    +0.317 C 
BRANCH  19  20
ATOM     20  C   UNL     1      -0.725   1.573  -1.185  0.00  0.00    -0.065 C 
ATOM     21  C   UNL     1      -1.292   1.962  -2.136  0.00  0.00    +0.007 C 
ENDBRANCH  19  20
ENDBRANCH  18  19
ENDBRANCH  15  18
ENDBRANCH  11  12
BRANCH   9  22
ATOM     22  N   UNL     1       5.261   0.324   6.274  0.00  0.00    -0.328 N 
ATOM     23  H   UNL     1       5.345   1.282   6.404  0.00  0.00    +0.145 HD
ATOM     24  H   UNL     1       6.056  -0.229   6.219  0.00  0.00    +0.145 HD
ENDBRANCH   9  22
BRANCH  10  25
ATOM     25  C   UNL     1       3.138   1.963   6.447  0.00  0.00    +0.101 C 
ATOM     26  N   UNL     1       3.298   3.077   6.604  0.00  0.00    -0.191 NA
ENDBRANCH  10  25
TORSDOF 6
