REMARK  Name = ZINC28933115
REMARK  9 active torsions:
REMARK  status: ('A' for Active; 'I' for Inactive)
REMARK    1  A    between atoms: C_1  and  C_2
REMARK    2  A    between atoms: C_9  and  C_16
REMARK    3  A    between atoms: C_11  and  O_12
REMARK    4  A    between atoms: C_16  and  O_17
REMARK    5  A    between atoms: O_17  and  C_18
REMARK    6  A    between atoms: C_18  and  C_20
REMARK    7  A    between atoms: C_20  and  N_21
REMARK    8  A    between atoms: C_22  and  C_24
REMARK    9  A    between atoms: C_27  and  C_30
REMARK                            x       y       z     vdW  Elec       q    Type
REMARK                         _______ _______ _______ _____ _____    ______ ____
ROOT
ATOM      1  O   UNL     1       0.255  -8.445   0.503  0.00  0.00    -0.459 OA
ENDROOT
BRANCH   1   2
ATOM      2  C   UNL     1       1.342  -9.228   0.587  0.00  0.00    +0.325 C 
ATOM      3  O   UNL     1       2.444  -8.732   0.599  0.00  0.00    -0.249 OA
BRANCH   2   4
ATOM      4  C   UNL     1       1.189 -10.725   0.668  0.00  0.00    +0.225 C 
BRANCH   4   5
ATOM      5  N   UNL     1       2.512 -11.348   0.751  0.00  0.00    -0.301 N 
ATOM      6  C   UNL     1       2.622 -12.689   0.832  0.00  0.00    +0.245 C 
ATOM      7  O   UNL     1       1.623 -13.381   0.836  0.00  0.00    -0.270 OA
ATOM      8  H   UNL     1       3.416 -10.721   0.748  0.00  0.00    +0.150 HD
BRANCH   6   9
ATOM      9  C   UNL     1       3.956 -13.317   0.916  0.00  0.00    +0.037 A 
ATOM     10  C   UNL     1       5.105 -12.522   0.906  0.00  0.00    +0.013 A 
ATOM     11  C   UNL     1       6.348 -13.108   0.989  0.00  0.00    +0.009 A 
ATOM     12  C   UNL     1       6.461 -14.496   1.073  0.00  0.00    -0.018 A 
ATOM     13  C   UNL     1       5.315 -15.291   1.078  0.00  0.00    +0.009 A 
ATOM     14  C   UNL     1       4.071 -14.707   1.000  0.00  0.00    +0.013 A 
BRANCH  12  15
ATOM     15  C   UNL     1       7.800 -15.126   1.157  0.00  0.00    -0.018 A 
ATOM     16  C   UNL     1       7.917 -16.512   1.246  0.00  0.00    +0.008 A 
ATOM     17  C   UNL     1       9.166 -17.094   1.320  0.00  0.00    +0.001 A 
ATOM     18  C   UNL     1      10.301 -16.303   1.315  0.00  0.00    +0.000 A 
ATOM     19  C   UNL     1      10.192 -14.927   1.231  0.00  0.00    +0.001 A 
ATOM     20  C   UNL     1       8.948 -14.335   1.152  0.00  0.00    +0.008 A 
ENDBRANCH  12  15
ENDBRANCH   6   9
ENDBRANCH   4   5
ENDBRANCH   2   4
ENDBRANCH   1   2
BRANCH   1  21
ATOM     21  C   UNL     1       0.478  -7.013   0.429  0.00  0.00    +0.268 C 
BRANCH  21  30
ATOM     22  C   UNL     1      -2.193   1.470   0.609  0.00  0.00    +0.109 C 
ATOM     23  C   UNL     1      -2.168  -0.036   0.609  0.00  0.00    +0.214 C 
ATOM     24  O   UNL     1      -3.058  -0.658   1.150  0.00  0.00    -0.276 OA
ATOM     25  N   UNL     1      -1.156  -0.694   0.009  0.00  0.00    -0.286 N 
ATOM     26  C   UNL     1      -1.081  -2.085   0.091  0.00  0.00    +0.037 A 
ATOM     27  C   UNL     1       0.164  -2.708   0.166  0.00  0.00    +0.024 A 
ATOM     28  C   UNL     1       0.253  -4.066   0.253  0.00  0.00    +0.014 A 
ATOM     29  C   UNL     1      -0.913  -4.841   0.254  0.00  0.00    +0.024 A 
ATOM     30  C   UNL     1      -0.848  -6.301   0.341  0.00  0.00    +0.007 A 
ATOM     31  C   UNL     1      -2.014  -6.998   0.339  0.00  0.00    +0.095 A 
ATOM     32  C   UNL     1      -3.242  -6.309   0.254  0.00  0.00    +0.285 A 
ATOM     33  O   UNL     1      -3.295  -4.971   0.176  0.00  0.00    -0.425 OA
ATOM     34  C   UNL     1      -2.173  -4.219   0.173  0.00  0.00    +0.141 A 
ATOM     35  C   UNL     1      -2.246  -2.837   0.092  0.00  0.00    +0.070 A 
ATOM     36  H   UNL     1      -0.388  -0.134  -0.545  0.00  0.00    +0.155 HD
BRANCH  32  37
ATOM     37  O   UNL     1      -4.280  -6.946   0.253  0.00  0.00    -0.480 OA
ATOM     38  H   UNL     1      -5.246  -6.423   0.188  0.00  0.00    +0.295 HD
ENDBRANCH  32  37
ENDBRANCH  21  30
ENDBRANCH   1  21
TORSDOF 8
