REMARK  Name = ZINC12850698
REMARK  7 active torsions:
REMARK  status: ('A' for Active; 'I' for Inactive)
REMARK    1  A    between atoms: C_1  and  C_2
REMARK    2  A    between atoms: C_2  and  C_3
REMARK    3  A    between atoms: C_3  and  C_5
REMARK    4  A    between atoms: C_3  and  N_6
REMARK    5  A    between atoms: C_7  and  C_9
REMARK    6  A    between atoms: C_13  and  C_24
REMARK    7  A    between atoms: C_16  and  C_20
REMARK                            x       y       z     vdW  Elec       q    Type
REMARK                         _______ _______ _______ _____ _____    ______ ____
ROOT
ATOM      1  C   UNL     1       4.244   0.462  -2.305  0.00  0.00    +0.110 C 
ATOM      2  C   UNL     1       4.951   0.716  -1.176  0.00  0.00    +0.072 C 
ATOM      3  C   UNL     1       6.304   1.087  -1.586  0.00  0.00    +0.114 C 
ATOM      4  N   UNL     1       7.334   1.426  -0.863  0.00  0.00    -0.365 N 
ATOM      5  C   UNL     1       8.587   1.793  -1.533  0.00  0.00    +0.113 C 
ATOM      6  C   UNL     1       8.748   1.010  -2.837  0.00  0.00    +0.062 C 
ATOM      7  C   UNL     1       7.545   1.279  -3.755  0.00  0.00    +0.201 C 
ATOM      8  N   UNL     1       6.334   1.010  -2.973  0.00  0.00    -0.226 N 
ATOM      9  N   UNL     1       5.066   0.642  -3.406  0.00  0.00    -0.258 N 
ATOM     10  H   UNL     1       4.798   0.530  -4.332  0.00  0.00    +0.170 HD
ATOM     11  H   UNL     1       7.273   1.436   0.105  0.00  0.00    +0.161 HD
ENDROOT
BRANCH   5  12
ATOM     12  C   UNL     1       8.573   3.269  -1.839  0.00  0.00    -0.024 A 
ATOM     13  C   UNL     1       7.409   3.872  -2.278  0.00  0.00    +0.007 A 
ATOM     14  C   UNL     1       7.395   5.226  -2.559  0.00  0.00    +0.022 A 
ATOM     15  C   UNL     1       8.546   5.977  -2.400  0.00  0.00    +0.059 A 
ATOM     16  C   UNL     1       9.711   5.373  -1.960  0.00  0.00    +0.060 A 
ATOM     17  C   UNL     1       9.722   4.019  -1.674  0.00  0.00    +0.027 A 
ATOM     18 CL   UNL     1      11.156   6.314  -1.761  0.00  0.00    -0.082 Cl
ATOM     19 CL   UNL     1       8.529   7.676  -2.753  0.00  0.00    -0.082 Cl
ENDBRANCH   5  12
BRANCH   1  21
ATOM     20  N   UNL     1       2.125  -0.091  -1.209  0.00  0.00    -0.308 N 
ATOM     21  C   UNL     1       2.824   0.051  -2.353  0.00  0.00    +0.260 C 
ATOM     22  O   UNL     1       2.288  -0.157  -3.423  0.00  0.00    -0.269 OA
ATOM     23  H   UNL     1       2.553   0.075  -0.355  0.00  0.00    +0.149 HD
BRANCH  20  24
ATOM     24  C   UNL     1       0.718  -0.497  -1.257  0.00  0.00    +0.070 C 
ATOM     25  C   UNL     1       0.630  -2.023  -1.329  0.00  0.00    +0.028 C 
BRANCH  24  27
ATOM     26  C   UNL     1      -0.019   1.526   0.010  0.00  0.00    +0.005 C 
ATOM     27  C   UNL     1       0.002  -0.004   0.002  0.00  0.00    +0.018 C 
ENDBRANCH  24  27
ENDBRANCH  20  24
ENDBRANCH   1  21
BRANCH   7  28
ATOM     28  C   UNL     1       7.600   0.350  -4.970  0.00  0.00    +0.410 C 
ATOM     29  F   UNL     1       7.565  -0.981  -4.541  0.00  0.00    -0.169 F 
ATOM     30  F   UNL     1       6.502   0.602  -5.799  0.00  0.00    -0.169 F 
ATOM     31  F   UNL     1       8.783   0.580  -5.680  0.00  0.00    -0.169 F 
ENDBRANCH   7  28
TORSDOF 5
