REMARK  Name = ZINC10942272
REMARK  14 active torsions:
REMARK  status: ('A' for Active; 'I' for Inactive)
REMARK    1  A    between atoms: C_1  and  C_2
REMARK    2  A    between atoms: C_2  and  C_3
REMARK    3  A    between atoms: C_3  and  C_4
REMARK    4  A    between atoms: C_4  and  N_5
REMARK    5  A    between atoms: N_5  and  C_6
REMARK    6  A    between atoms: C_7  and  N_19
REMARK    7  A    between atoms: N_8  and  C_15
REMARK    8  A    between atoms: C_15  and  C_16
REMARK    9  A    between atoms: C_16  and  C_17
REMARK   10  A    between atoms: C_16  and  C_18
REMARK   11  A    between atoms: C_20  and  C_22
REMARK   12  A    between atoms: C_22  and  S_23
REMARK   13  A    between atoms: S_23  and  C_24
REMARK   14  A    between atoms: C_32  and  C_34
REMARK                            x       y       z     vdW  Elec       q    Type
REMARK                         _______ _______ _______ _____ _____    ______ ____
ROOT
ATOM      1  N   UNL     1      -1.276  -0.524   0.025  0.00  0.00    -0.264 N 
ATOM      2  C   UNL     1      -1.708  -0.886   1.251  0.00  0.00    +0.230 C 
ATOM      3  O   UNL     1      -2.784  -1.433   1.378  0.00  0.00    -0.274 OA
ENDROOT
BRANCH   1   4
ATOM      4  C   UNL     1      -2.121  -0.677  -1.094  0.00  0.00    +0.140 A 
ATOM      5  C   UNL     1      -1.806  -1.575  -2.094  0.00  0.00    +0.127 A 
ATOM      6  N   UNL     1      -2.650  -1.702  -3.173  0.00  0.00    -0.280 N 
ATOM      7  C   UNL     1      -3.769  -0.960  -3.252  0.00  0.00    +0.331 A 
ATOM      8  O   UNL     1      -4.503  -1.087  -4.214  0.00  0.00    -0.246 OA
ATOM      9  N   UNL     1      -4.093  -0.080  -2.288  0.00  0.00    -0.273 N 
ATOM     10  H   UNL     1      -4.928   0.462  -2.374  0.00  0.00    +0.173 HD
ATOM     11  C   UNL     1      -3.303   0.079  -1.208  0.00  0.00    +0.277 A 
ATOM     12  O   UNL     1      -3.608   0.876  -0.337  0.00  0.00    -0.266 OA
BRANCH   5  13
ATOM     13  N   UNL     1      -0.662  -2.332  -2.013  0.00  0.00    -0.343 N 
ATOM     14  H   UNL     1      -0.040  -2.195  -1.281  0.00  0.00    +0.144 HD
ATOM     15  H   UNL     1      -0.477  -3.004  -2.688  0.00  0.00    +0.144 HD
ENDBRANCH   5  13
BRANCH   6  16
ATOM     16  C   UNL     1      -2.328  -2.651  -4.242  0.00  0.00    +0.131 C 
BRANCH  16  17
ATOM     17  C   UNL     1      -2.948  -4.012  -3.919  0.00  0.00    +0.003 C 
ATOM     18  C   UNL     1      -2.718  -4.967  -5.092  0.00  0.00    +0.009 C 
ATOM     19  C   UNL     1      -2.295  -4.584  -2.659  0.00  0.00    +0.009 C 
ENDBRANCH  16  17
ENDBRANCH   6  16
ENDBRANCH   1   4
BRANCH   1  20
ATOM     20  C   UNL     1       0.071   0.028  -0.144  0.00  0.00    +0.114 C 
BRANCH  20  21
ATOM     21  C   UNL     1       0.004   1.556  -0.108  0.00  0.00    +0.019 C 
BRANCH  21  23
ATOM     22  C   UNL     1       1.344   3.660  -0.248  0.00  0.00    +0.004 C 
ATOM     23  C   UNL     1       1.411   2.132  -0.284  0.00  0.00    -0.002 C 
ENDBRANCH  21  23
ENDBRANCH  20  21
ENDBRANCH   1  20
BRANCH   2  24
ATOM     24  C   UNL     1      -0.855  -0.610   2.462  0.00  0.00    +0.172 C 
BRANCH  24  25
ATOM     25  S   UNL     1      -1.702  -1.208   3.946  0.00  0.00    -0.096 S 
BRANCH  25  26
ATOM     26  C   UNL     1      -0.517  -0.770   5.173  0.00  0.00    +0.109 A 
ATOM     27  C   UNL     1      -0.749  -1.050   6.543  0.00  0.00    +0.032 A 
ATOM     28  C   UNL     1      -1.916  -1.681   6.985  0.00  0.00    +0.012 A 
ATOM     29  C   UNL     1      -2.084  -1.925   8.317  0.00  0.00    +0.001 A 
ATOM     30  C   UNL     1      -1.110  -1.555   9.240  0.00  0.00    +0.002 A 
ATOM     31  C   UNL     1       0.038  -0.939   8.840  0.00  0.00    +0.028 A 
ATOM     32  C   UNL     1       0.243  -0.672   7.480  0.00  0.00    +0.076 A 
ATOM     33  N   UNL     1       1.355  -0.069   7.034  0.00  0.00    -0.232 NA
ATOM     34  C   UNL     1       1.517   0.166   5.753  0.00  0.00    +0.134 A 
ATOM     35  N   UNL     1       0.621  -0.173   4.840  0.00  0.00    -0.225 NA
BRANCH  34  36
ATOM     36  C   UNL     1       2.783   0.846   5.301  0.00  0.00    +0.057 C 
ATOM     37  C   UNL     1       2.863   1.290   3.839  0.00  0.00    +0.012 C 
ATOM     38  C   UNL     1       3.680   0.089   4.319  0.00  0.00    +0.012 C 
ENDBRANCH  34  36
ENDBRANCH  25  26
ENDBRANCH  24  25
ENDBRANCH   2  24
TORSDOF 11
