REMARK  Name = ZINC12879435
REMARK  6 active torsions:
REMARK  status: ('A' for Active; 'I' for Inactive)
REMARK    1  A    between atoms: C_1  and  O_2
REMARK    2  A    between atoms: O_2  and  C_3
REMARK    3  A    between atoms: C_8  and  C_9
REMARK    4  A    between atoms: C_9  and  N_10
REMARK    5  A    between atoms: C_15  and  C_31
REMARK    6  A    between atoms: C_31  and  C_32
REMARK                            x       y       z     vdW  Elec       q    Type
REMARK                         _______ _______ _______ _____ _____    ______ ____
ROOT
ATOM      1  N   UNL     1       6.225   3.718  -1.347  0.00  0.00    -0.237 N 
ATOM      2  C   UNL     1       5.455   4.685  -0.833  0.00  0.00    +0.224 C 
ATOM      3  O   UNL     1       5.837   5.790  -0.516  0.00  0.00    -0.275 OA
ATOM      4  C   UNL     1       4.034   4.183  -0.711  0.00  0.00    +0.073 C 
ATOM      5  C   UNL     1       3.671   4.039   0.782  0.00  0.00    -0.053 C 
ATOM      6  C   UNL     1       3.810   1.851  -0.023  0.00  0.00    +0.050 C 
ATOM      7  C   UNL     1       4.120   2.726  -1.244  0.00  0.00    +0.088 C 
ATOM      8  C   UNL     1       5.579   2.578  -1.617  0.00  0.00    +0.225 C 
ATOM      9  O   UNL     1       6.083   1.581  -2.087  0.00  0.00    -0.275 OA
ATOM     10  C   UNL     1       2.374   1.408  -0.013  0.00  0.00    -0.028 A 
ATOM     11  C   UNL     1       1.174   2.083   0.002  0.00  0.00    +0.004 A 
ATOM     12  C   UNL     1      -0.017   1.379   0.010  0.00  0.00    +0.000 A 
ATOM     13  C   UNL     1       0.002  -0.004   0.002  0.00  0.00    +0.002 A 
ATOM     14  C   UNL     1       1.202  -0.684  -0.013  0.00  0.00    +0.023 A 
ATOM     15  C   UNL     1       2.405   0.017  -0.021  0.00  0.00    +0.036 A 
ATOM     16  N   UNL     1       3.726  -0.437  -0.036  0.00  0.00    -0.286 N 
ATOM     17  C   UNL     1       4.612   0.578  -0.038  0.00  0.00    +0.211 C 
ATOM     18  O   UNL     1       5.821   0.484  -0.051  0.00  0.00    -0.277 OA
ATOM     19  H   UNL     1       3.977  -1.374  -0.043  0.00  0.00    +0.155 HD
ATOM     20  N   UNL     1       4.114   2.686   1.126  0.00  0.00    +0.394 N 
ATOM     21  H   UNL     1       3.610   2.348   1.954  0.00  0.00    -0.083 HD
ATOM     22  H   UNL     1       5.123   2.680   1.313  0.00  0.00    -0.083 HD
ENDROOT
BRANCH   1  23
ATOM     23  C   UNL     1       7.658   3.894  -1.594  0.00  0.00    +0.155 C 
BRANCH  23  29
ATOM     24  C   UNL     1       7.684   5.775  -3.252  0.00  0.00    +0.125 A 
ATOM     25  C   UNL     1       7.881   6.262  -4.536  0.00  0.00    +0.046 A 
ATOM     26  C   UNL     1       8.245   5.400  -5.552  0.00  0.00    +0.004 A 
ATOM     27  C   UNL     1       8.420   4.054  -5.288  0.00  0.00    +0.001 A 
ATOM     28  C   UNL     1       8.231   3.567  -4.008  0.00  0.00    +0.009 A 
ATOM     29  C   UNL     1       7.865   4.425  -2.989  0.00  0.00    +0.012 A 
BRANCH  24  31
ATOM     30  C   UNL     1       7.151   7.997  -2.595  0.00  0.00    +0.277 C 
ATOM     31  O   UNL     1       7.320   6.620  -2.252  0.00  0.00    -0.495 OA
ENDBRANCH  24  31
ENDBRANCH  23  29
ENDBRANCH   1  23
BRANCH   5  32
ATOM     32  C   UNL     1       4.402   5.095   1.614  0.00  0.00    +0.022 C 
BRANCH  32  33
ATOM     33  C   UNL     1       3.995   4.965   3.059  0.00  0.00    -0.024 A 
ATOM     34  C   UNL     1       3.033   5.663   3.683  0.00  0.00    +0.087 A 
ATOM     35  N   UNL     1       2.946   5.272   4.992  0.00  0.00    -0.360 N 
ATOM     36  H   UNL     1       2.322   5.633   5.641  0.00  0.00    +0.165 HD
ATOM     37  C   UNL     1       3.880   4.294   5.250  0.00  0.00    +0.047 A 
ATOM     38  C   UNL     1       4.578   4.059   4.052  0.00  0.00    +0.003 A 
ATOM     39  C   UNL     1       5.598   3.107   4.014  0.00  0.00    +0.010 A 
ATOM     40  C   UNL     1       5.913   2.406   5.145  0.00  0.00    +0.001 A 
ATOM     41  C   UNL     1       5.228   2.634   6.330  0.00  0.00    +0.002 A 
ATOM     42  C   UNL     1       4.218   3.570   6.389  0.00  0.00    +0.026 A 
ENDBRANCH  32  33
ENDBRANCH   5  32
TORSDOF 5
