REMARK  Name = ZINC19637177
REMARK  10 active torsions:
REMARK  status: ('A' for Active; 'I' for Inactive)
REMARK    1  A    between atoms: C_1  and  C_2
REMARK    2  A    between atoms: C_7  and  N_8
REMARK    3  A    between atoms: N_8  and  C_9
REMARK    4  A    between atoms: C_9  and  C_30
REMARK    5  A    between atoms: C_11  and  C_25
REMARK    6  A    between atoms: N_13  and  C_16
REMARK    7  A    between atoms: C_19  and  N_22
REMARK    8  A    between atoms: C_25  and  C_26
REMARK    9  A    between atoms: C_26  and  O_28
REMARK   10  A    between atoms: O_28  and  C_29
REMARK                            x       y       z     vdW  Elec       q    Type
REMARK                         _______ _______ _______ _____ _____    ______ ____
ROOT
ATOM      1  C   UNL     1      -0.012  -0.624   3.620  0.00  0.00    +0.019 C 
ATOM      2  C   UNL     1      -0.098   0.133   4.776  0.00  0.00    +0.079 C 
ATOM      3  C   UNL     1      -0.158   1.599   4.885  0.00  0.00    +0.084 C 
ATOM      4  N   UNL     1      -0.233   1.895   6.146  0.00  0.00    -0.176 NA
ATOM      5  N   UNL     1      -0.230   0.747   6.938  0.00  0.00    -0.156 N 
ATOM      6  C   UNL     1      -0.157  -0.352   6.161  0.00  0.00    +0.274 C 
ATOM      7  O   UNL     1      -0.140  -1.514   6.532  0.00  0.00    -0.268 OA
ATOM      8  C   UNL     1       0.033  -2.128   3.706  0.00  0.00    +0.061 C 
ENDROOT
BRANCH   5   9
ATOM      9  C   UNL     1      -0.300   0.737   8.337  0.00  0.00    +0.060 A 
ATOM     10  C   UNL     1      -0.284  -0.469   9.026  0.00  0.00    +0.028 A 
ATOM     11  C   UNL     1      -0.352  -0.475  10.405  0.00  0.00    +0.034 A 
ATOM     12  C   UNL     1      -0.436   0.718  11.101  0.00  0.00    +0.126 A 
ATOM     13  C   UNL     1      -0.453   1.920  10.417  0.00  0.00    +0.034 A 
ATOM     14  C   UNL     1      -0.379   1.933   9.038  0.00  0.00    +0.028 A 
BRANCH  12  15
ATOM     15  N   UNL     1      -0.509   0.707  12.579  0.00  0.00    +0.056 N 
ATOM     16  O   UNL     1      -0.495  -0.343  13.177  0.00  0.00    -0.126 OA
ATOM     17  O   UNL     1      -0.583   1.749  13.188  0.00  0.00    -0.126 OA
ENDBRANCH  12  15
ENDBRANCH   5   9
BRANCH   1  18
ATOM     18  N   UNL     1       0.032  -0.015   2.417  0.00  0.00    -0.317 N 
ATOM     19  H   UNL     1       0.749   0.606   2.213  0.00  0.00    +0.152 HD
BRANCH  18  26
ATOM     20  C   UNL     1       0.334   1.116  -0.177  0.00  0.00    +0.046 C 
ATOM     21  C   UNL     1      -0.848   0.253   0.184  0.00  0.00    -0.028 A 
ATOM     22  C   UNL     1      -1.822  -0.014  -0.757  0.00  0.00    +0.025 A 
ATOM     23  C   UNL     1      -2.907  -0.807  -0.426  0.00  0.00    +0.041 A 
ATOM     24  C   UNL     1      -3.019  -1.334   0.848  0.00  0.00    +0.022 A 
ATOM     25  C   UNL     1      -2.049  -1.070   1.794  0.00  0.00    +0.025 A 
ATOM     26  C   UNL     1      -0.955  -0.279   1.463  0.00  0.00    +0.034 A 
ATOM     27 CL   UNL     1      -4.130  -1.140  -1.613  0.00  0.00    -0.084 Cl
ENDBRANCH  18  26
ENDBRANCH   1  18
BRANCH   3  28
ATOM     28  C   UNL     1      -0.136   2.578   3.740  0.00  0.00    +0.178 C 
BRANCH  28  29
ATOM     29  C   UNL     1      -0.216   3.983   4.279  0.00  0.00    +0.313 C 
ATOM     30  O   UNL     1      -0.283   4.170   5.471  0.00  0.00    -0.250 OA
BRANCH  29  31
ATOM     31  O   UNL     1      -0.211   5.027   3.435  0.00  0.00    -0.468 OA
ATOM     32  C   UNL     1      -0.289   6.330   4.015  0.00  0.00    +0.280 C 
ENDBRANCH  29  31
ENDBRANCH  28  29
ENDBRANCH   3  28
TORSDOF 7
