REMARK  Name = ZINC13676380
REMARK  13 active torsions:
REMARK  status: ('A' for Active; 'I' for Inactive)
REMARK    1  A    between atoms: C_1  and  C_2
REMARK    2  A    between atoms: C_2  and  O_3
REMARK    3  A    between atoms: O_3  and  C_4
REMARK    4  A    between atoms: C_9  and  C_10
REMARK    5  A    between atoms: C_10  and  C_11
REMARK    6  A    between atoms: C_11  and  C_12
REMARK    7  A    between atoms: C_12  and  N_13
REMARK    8  A    between atoms: C_14  and  C_16
REMARK    9  A    between atoms: C_21  and  N_22
REMARK   10  A    between atoms: N_22  and  C_23
REMARK   11  A    between atoms: N_22  and  S_30
REMARK   12  A    between atoms: C_23  and  C_24
REMARK   13  A    between atoms: S_30  and  C_33
REMARK                            x       y       z     vdW  Elec       q    Type
REMARK                         _______ _______ _______ _____ _____    ______ ____
ROOT
ATOM      1  C   UNL     1       4.368  -3.224  -2.087  0.00  0.00    +0.059 A 
ATOM      2  C   UNL     1       3.900  -4.337  -2.791  0.00  0.00    +0.015 A 
ATOM      3  C   UNL     1       2.757  -4.237  -3.552  0.00  0.00    +0.001 A 
ATOM      4  C   UNL     1       2.065  -3.038  -3.623  0.00  0.00    +0.002 A 
ATOM      5  C   UNL     1       2.511  -1.932  -2.929  0.00  0.00    +0.025 A 
ATOM      6  C   UNL     1       3.666  -2.011  -2.161  0.00  0.00    +0.064 A 
ENDROOT
BRANCH   1   8
ATOM      7  N   UNL     1       6.329  -4.452  -1.296  0.00  0.00    -0.311 N 
ATOM      8  C   UNL     1       5.592  -3.325  -1.270  0.00  0.00    +0.246 C 
ATOM      9  O   UNL     1       5.935  -2.389  -0.573  0.00  0.00    -0.270 OA
ATOM     10  H   UNL     1       6.055  -5.198  -1.853  0.00  0.00    +0.149 HD
BRANCH   7  11
ATOM     11  C   UNL     1       7.545  -4.552  -0.485  0.00  0.00    +0.105 C 
BRANCH  11  12
ATOM     12  C   UNL     1       8.188  -5.924  -0.696  0.00  0.00    +0.023 C 
BRANCH  12  13
ATOM     13  C   UNL     1       9.458  -6.028   0.152  0.00  0.00    +0.040 C 
BRANCH  13  19
ATOM     14  C   UNL     1      10.949  -7.586  -1.127  0.00  0.00    +0.124 A 
ATOM     15  C   UNL     1      11.531  -8.831  -1.315  0.00  0.00    +0.046 A 
ATOM     16  C   UNL     1      11.256  -9.861  -0.437  0.00  0.00    +0.004 A 
ATOM     17  C   UNL     1      10.400  -9.652   0.629  0.00  0.00    +0.000 A 
ATOM     18  C   UNL     1       9.823  -8.411   0.822  0.00  0.00    +0.007 A 
ATOM     19  C   UNL     1      10.091  -7.379  -0.056  0.00  0.00    -0.006 A 
BRANCH  14  20
ATOM     20  O   UNL     1      11.219  -6.571  -1.989  0.00  0.00    -0.492 OA
BRANCH  20  22
ATOM     21  C   UNL     1      12.292  -5.602  -3.926  0.00  0.00    +0.048 C 
ATOM     22  C   UNL     1      12.111  -6.856  -3.068  0.00  0.00    +0.225 C 
ENDBRANCH  20  22
ENDBRANCH  14  20
ENDBRANCH  13  19
ENDBRANCH  12  13
ENDBRANCH  11  12
ENDBRANCH   7  11
ENDBRANCH   1   8
BRANCH   6  23
ATOM     23  N   UNL     1       4.120  -0.898  -1.466  0.00  0.00    -0.198 N 
BRANCH  23  24
ATOM     24  S   UNL     1       3.743  -0.712   0.136  0.00  0.00    +0.075 S 
ATOM     25  O   UNL     1       3.493  -2.014   0.648  0.00  0.00    -0.150 OA
ATOM     26  O   UNL     1       4.731   0.147   0.688  0.00  0.00    -0.150 OA
BRANCH  24  27
ATOM     27  C   UNL     1       2.215   0.162   0.213  0.00  0.00    +0.109 A 
ATOM     28  C   UNL     1       2.210   1.543   0.268  0.00  0.00    +0.029 A 
ATOM     29  C   UNL     1       1.011   2.228   0.324  0.00  0.00    +0.002 A 
ATOM     30  C   UNL     1      -0.183   1.532   0.335  0.00  0.00    +0.000 A 
ATOM     31  C   UNL     1      -0.178   0.151   0.285  0.00  0.00    +0.002 A 
ATOM     32  C   UNL     1       1.021  -0.534   0.224  0.00  0.00    +0.029 A 
ENDBRANCH  24  27
ENDBRANCH  23  24
BRANCH  23  33
ATOM     33  C   UNL     1       4.933   0.111  -2.149  0.00  0.00    +0.166 C 
BRANCH  33  34
ATOM     34  C   UNL     1       6.379  -0.311  -2.130  0.00  0.00    -0.028 A 
ATOM     35  C   UNL     1       6.888  -1.083  -3.159  0.00  0.00    +0.005 A 
ATOM     36  C   UNL     1       8.214  -1.470  -3.141  0.00  0.00    +0.000 A 
ATOM     37  C   UNL     1       9.033  -1.087  -2.095  0.00  0.00    +0.000 A 
ATOM     38  C   UNL     1       8.524  -0.315  -1.067  0.00  0.00    +0.000 A 
ATOM     39  C   UNL     1       7.197   0.072  -1.084  0.00  0.00    +0.005 A 
ENDBRANCH  33  34
ENDBRANCH  23  33
ENDBRANCH   6  23
TORSDOF 12
