REMARK  Name = ZINC03188610
REMARK  5 active torsions:
REMARK  status: ('A' for Active; 'I' for Inactive)
REMARK    1  A    between atoms: C_6  and  C_7
REMARK    2  A    between atoms: N_8  and  N_9
REMARK    3  A    between atoms: C_10  and  S_12
REMARK    4  A    between atoms: S_12  and  C_13
REMARK    5  A    between atoms: N_18  and  C_21
REMARK                            x       y       z     vdW  Elec       q    Type
REMARK                         _______ _______ _______ _____ _____    ______ ____
ROOT
ATOM      1  S   UNL     1       1.142   3.863   0.012  0.00  0.00    -0.078 S 
ENDROOT
BRANCH   1   2
ATOM      2  C   UNL     1       2.920   4.202  -0.003  0.00  0.00    +0.149 C 
ATOM      3  C   UNL     1       3.184   5.719   0.074  0.00  0.00    +0.120 C 
ATOM      4  C   UNL     1       3.913   6.015  -1.223  0.00  0.00    +0.228 C 
ATOM      5  O   UNL     1       4.311   7.106  -1.571  0.00  0.00    -0.275 OA
ATOM      6  N   UNL     1       4.050   4.881  -1.921  0.00  0.00    -0.208 N 
ATOM      7  C   UNL     1       3.528   3.800  -1.329  0.00  0.00    +0.240 C 
ATOM      8  O   UNL     1       3.539   2.676  -1.785  0.00  0.00    -0.274 OA
BRANCH   6   9
ATOM      9  C   UNL     1       4.686   4.831  -3.169  0.00  0.00    +0.064 A 
ATOM     10  C   UNL     1       3.952   5.015  -4.333  0.00  0.00    +0.045 A 
ATOM     11  C   UNL     1       4.583   4.964  -5.562  0.00  0.00    +0.043 A 
ATOM     12  C   UNL     1       5.945   4.730  -5.633  0.00  0.00    +0.021 A 
ATOM     13  C   UNL     1       6.679   4.546  -4.476  0.00  0.00    +0.023 A 
ATOM     14  C   UNL     1       6.055   4.602  -3.244  0.00  0.00    +0.063 A 
ATOM     15 CL   UNL     1       6.978   4.378  -1.791  0.00  0.00    -0.082 Cl
ATOM     16 CL   UNL     1       3.665   5.195  -7.017  0.00  0.00    -0.083 Cl
ENDBRANCH   6   9
ENDBRANCH   1   2
BRANCH   1  18
ATOM     17  N   UNL     1      -0.017   1.397   0.010  0.00  0.00    -0.217 N 
ATOM     18  C   UNL     1       1.166   2.102   0.002  0.00  0.00    +0.146 C 
ATOM     19  N   UNL     1       2.305   1.465  -0.012  0.00  0.00    -0.380 N 
ATOM     20  H   UNL     1      -0.977   1.934   0.022  0.00  0.00    +0.176 HD
ATOM     21  H   UNL     1       3.250   2.027  -0.018  0.00  0.00    +0.158 HD
ATOM     22  H   UNL     1       2.320   0.365  -0.018  0.00  0.00    +0.158 HD
BRANCH  17  24
ATOM     23  C   UNL     1      -1.113  -0.668   0.009  0.00  0.00    +0.138 C 
ATOM     24  N   UNL     1       0.002  -0.004   0.002  0.00  0.00    -0.188 NA
BRANCH  23  30
ATOM     25  C   UNL     1       0.125  -2.828  -0.020  0.00  0.00    +0.011 A 
ATOM     26  C   UNL     1       0.136  -4.207  -0.023  0.00  0.00    +0.020 A 
ATOM     27  C   UNL     1      -1.055  -4.912  -0.015  0.00  0.00    +0.041 A 
ATOM     28  C   UNL     1      -2.265  -4.239   0.001  0.00  0.00    +0.020 A 
ATOM     29  C   UNL     1      -2.291  -2.861   0.009  0.00  0.00    +0.011 A 
ATOM     30  C   UNL     1      -1.093  -2.143   0.001  0.00  0.00    -0.005 A 
ATOM     31 CL   UNL     1      -1.032  -6.648  -0.025  0.00  0.00    -0.084 Cl
ENDBRANCH  23  30
ENDBRANCH  17  24
ENDBRANCH   1  18
TORSDOF 5
