REMARK  Name = ZINC15399137
REMARK  5 active torsions:
REMARK  status: ('A' for Active; 'I' for Inactive)
REMARK    1  A    between atoms: C_1  and  C_2
REMARK    2  A    between atoms: C_2  and  C_21
REMARK    3  A    between atoms: N_5  and  C_9
REMARK    4  A    between atoms: C_9  and  C_10
REMARK    5  A    between atoms: N_12  and  C_13
REMARK                            x       y       z     vdW  Elec       q    Type
REMARK                         _______ _______ _______ _____ _____    ______ ____
ROOT
ATOM      1  C   UNL     1      -0.012   1.515   0.038  0.00  0.00    +0.047 C 
ATOM      2  C   UNL     1       0.014  -0.015   0.034  0.00  0.00    +0.135 C 
ATOM      3  C   UNL     1       0.820  -0.532  -1.141  0.00  0.00    +0.251 C 
ATOM      4  O   UNL     1       0.591  -0.358  -2.319  0.00  0.00    -0.272 OA
ATOM      5  N   UNL     1       1.844  -1.224  -0.605  0.00  0.00    -0.215 N 
ATOM      6  C   UNL     1       1.798  -1.217   0.732  0.00  0.00    +0.310 C 
ATOM      7  O   UNL     1       2.614  -1.774   1.440  0.00  0.00    -0.252 OA
ATOM      8  N   UNL     1       0.746  -0.524   1.206  0.00  0.00    -0.281 N 
ATOM      9  H   UNL     1       0.515  -0.386   2.138  0.00  0.00    +0.152 HD
ENDROOT
BRANCH   2  10
ATOM     10  C   UNL     1      -1.388  -0.568   0.003  0.00  0.00    -0.013 A 
ATOM     11  C   UNL     1      -1.998  -0.836  -1.208  0.00  0.00    +0.009 A 
ATOM     12  C   UNL     1      -3.284  -1.343  -1.238  0.00  0.00    +0.041 A 
ATOM     13  C   UNL     1      -3.961  -1.583  -0.056  0.00  0.00    +0.158 A 
ATOM     14  C   UNL     1      -3.349  -1.314   1.159  0.00  0.00    +0.159 A 
ATOM     15  C   UNL     1      -2.060  -0.811   1.186  0.00  0.00    +0.047 A 
ATOM     16  F   UNL     1      -4.009  -1.546   2.315  0.00  0.00    -0.202 F 
ATOM     17  F   UNL     1      -5.218  -2.078  -0.085  0.00  0.00    -0.202 F 
ENDBRANCH   2  10
BRANCH   5  18
ATOM     18  C   UNL     1       2.880  -1.901  -1.389  0.00  0.00    +0.214 C 
BRANCH  18  19
ATOM     19  C   UNL     1       4.023  -0.952  -1.637  0.00  0.00    +0.235 C 
ATOM     20  O   UNL     1       3.978   0.180  -1.202  0.00  0.00    -0.274 OA
ATOM     21  N   UNL     1       5.097  -1.360  -2.343  0.00  0.00    -0.282 N 
ATOM     22  H   UNL     1       5.163  -2.282  -2.635  0.00  0.00    +0.155 HD
BRANCH  21  23
ATOM     23  C   UNL     1       6.117  -0.451  -2.654  0.00  0.00    +0.069 A 
ATOM     24  C   UNL     1       6.450   0.554  -1.757  0.00  0.00    +0.029 A 
ATOM     25  C   UNL     1       7.457   1.449  -2.065  0.00  0.00    +0.040 A 
ATOM     26  C   UNL     1       8.134   1.345  -3.269  0.00  0.00    +0.126 A 
ATOM     27  C   UNL     1       7.804   0.344  -4.167  0.00  0.00    +0.078 A 
ATOM     28  C   UNL     1       6.801  -0.558  -3.860  0.00  0.00    +0.147 A 
ATOM     29  F   UNL     1       6.483  -1.539  -4.733  0.00  0.00    -0.203 F 
ATOM     30  F   UNL     1       9.117   2.221  -3.567  0.00  0.00    -0.205 F 
ENDBRANCH  21  23
ENDBRANCH  18  19
ENDBRANCH   5  18
TORSDOF 4
