REMARK  Name = ZINC15746722
REMARK  5 active torsions:
REMARK  status: ('A' for Active; 'I' for Inactive)
REMARK    1  A    between atoms: C_1  and  C_2
REMARK    2  A    between atoms: C_2  and  C_26
REMARK    3  A    between atoms: C_3  and  C_19
REMARK    4  A    between atoms: N_7  and  O_8
REMARK    5  A    between atoms: N_14  and  N_15
REMARK                            x       y       z     vdW  Elec       q    Type
REMARK                         _______ _______ _______ _____ _____    ______ ____
ROOT
ATOM      1  C   UNL     1       0.104   1.561   0.013  0.00  0.00    +0.037 C 
ATOM      2  C   UNL     1       0.091   0.032  -0.046  0.00  0.00    +0.088 C 
ATOM      3  C   UNL     1       0.883  -0.458  -1.238  0.00  0.00    +0.089 C 
ATOM      4  N   UNL     1       1.644  -1.438  -0.874  0.00  0.00    -0.138 N 
ATOM      5  O   UNL     1       2.526  -2.139  -1.732  0.00  0.00    -0.167 OA
ATOM      6  C   UNL     1       1.466  -1.720   0.551  0.00  0.00    +0.197 C 
ATOM      7  N   UNL     1       0.796  -0.537   1.130  0.00  0.00    -0.145 NA
ATOM      8  C   UNL     1       2.818  -1.939   1.228  0.00  0.00    +0.056 C 
ATOM      9  C   UNL     1       3.437  -3.244   0.719  0.00  0.00    +0.005 C 
ATOM     10  C   UNL     1       2.545  -4.425   1.105  0.00  0.00    +0.006 C 
ATOM     11  C   UNL     1       1.190  -4.295   0.402  0.00  0.00    +0.056 C 
ATOM     12  C   UNL     1       0.602  -2.942   0.741  0.00  0.00    +0.082 C 
ATOM     13  N   UNL     1      -0.596  -2.837   1.178  0.00  0.00    -0.184 NA
ATOM     14  C   UNL     1      -1.347  -0.486  -0.108  0.00  0.00    +0.037 C 
ENDROOT
BRANCH  13  15
ATOM     15  N   UNL     1      -1.349  -3.989   1.442  0.00  0.00    -0.191 N 
ATOM     16  C   UNL     1      -2.568  -3.883   2.007  0.00  0.00    +0.317 C 
ATOM     17  O   UNL     1      -3.221  -4.883   2.236  0.00  0.00    -0.251 OA
ATOM     18  N   UNL     1      -3.063  -2.668   2.318  0.00  0.00    -0.312 N 
ATOM     19  H   UNL     1      -0.992  -4.863   1.218  0.00  0.00    +0.179 HD
ATOM     20  H   UNL     1      -2.542  -1.871   2.135  0.00  0.00    +0.147 HD
ATOM     21  H   UNL     1      -3.940  -2.592   2.724  0.00  0.00    +0.147 HD
ENDBRANCH  13  15
BRANCH   3  22
ATOM     22  C   UNL     1       0.801   0.096  -2.603  0.00  0.00    -0.001 A 
ATOM     23  C   UNL     1       1.873  -0.049  -3.485  0.00  0.00    +0.011 A 
ATOM     24  C   UNL     1       1.790   0.471  -4.760  0.00  0.00    +0.016 A 
ATOM     25  C   UNL     1       0.646   1.137  -5.165  0.00  0.00    +0.018 A 
ATOM     26  C   UNL     1      -0.422   1.284  -4.296  0.00  0.00    +0.016 A 
ATOM     27  C   UNL     1      -0.353   0.763  -3.021  0.00  0.00    +0.011 A 
ATOM     28 BR   UNL     1       0.540   1.847  -6.915  0.00  0.00    -0.050 Br
ENDBRANCH   3  22
BRANCH   7  29
ATOM     29  O   UNL     1       1.775   0.410   1.664  0.00  0.00    -0.309 OA
ATOM     30  H   UNL     1       1.392   1.249   1.955  0.00  0.00    +0.237 HD
ENDBRANCH   7  29
TORSDOF 3
