REMARK  Name = ZINC59410751
REMARK  13 active torsions:
REMARK  status: ('A' for Active; 'I' for Inactive)
REMARK    1  A    between atoms: C_1  and  C_2
REMARK    2  A    between atoms: C_3  and  C_11
REMARK    3  A    between atoms: C_4  and  C_10
REMARK    4  A    between atoms: C_6  and  S_8
REMARK    5  A    between atoms: S_8  and  C_9
REMARK    6  A    between atoms: C_11  and  C_12
REMARK    7  A    between atoms: C_12  and  C_13
REMARK    8  A    between atoms: N_15  and  C_16
REMARK    9  A    between atoms: C_16  and  C_17
REMARK   10  A    between atoms: C_20  and  C_23
REMARK   11  A    between atoms: C_23  and  N_24
REMARK   12  A    between atoms: C_26  and  C_33
REMARK   13  A    between atoms: C_29  and  C_32
REMARK                            x       y       z     vdW  Elec       q    Type
REMARK                         _______ _______ _______ _____ _____    ______ ____
ROOT
ATOM      1  C   UNL     1       2.553   2.099  -6.153  0.00  0.00    +0.139 C 
ENDROOT
BRANCH   1   2
ATOM      2  C   UNL     1       3.968   2.364  -6.599  0.00  0.00    -0.030 A 
ATOM      3  C   UNL     1       4.607   3.528  -6.214  0.00  0.00    +0.005 A 
ATOM      4  C   UNL     1       5.906   3.771  -6.623  0.00  0.00    +0.002 A 
ATOM      5  C   UNL     1       6.564   2.850  -7.415  0.00  0.00    -0.064 A 
ATOM      6  C   UNL     1       5.926   1.686  -7.799  0.00  0.00    +0.002 A 
ATOM      7  C   UNL     1       4.629   1.441  -7.387  0.00  0.00    +0.005 A 
BRANCH   5   8
ATOM      8  C   UNL     1       7.979   3.115  -7.861  0.00  0.00    -0.043 C 
BRANCH   8   9
ATOM      9  N   UNL     1       8.916   2.566  -6.872  0.00  0.00    +0.383 N 
ATOM     10  C   UNL     1       8.759   3.284  -5.601  0.00  0.00    -0.075 C 
ATOM     11  C   UNL     1       9.675   2.663  -4.544  0.00  0.00    -0.031 C 
ATOM     12  C   UNL     1      11.129   2.764  -5.013  0.00  0.00    +0.003 C 
ATOM     13  C   UNL     1      11.265   2.075  -6.375  0.00  0.00    -0.031 C 
ATOM     14  C   UNL     1      10.290   2.718  -7.364  0.00  0.00    -0.075 C 
ATOM     15  C   UNL     1      10.940   0.588  -6.229  0.00  0.00    +0.005 C 
ATOM     16  C   UNL     1       9.511   3.414  -3.221  0.00  0.00    +0.005 C 
ATOM     17  H   UNL     1       8.717   1.587  -6.729  0.00  0.00    -0.081 HD
ENDBRANCH   8   9
ENDBRANCH   5   8
ENDBRANCH   1   2
BRANCH   1  20
ATOM     18  C   UNL     1       1.409   1.040  -4.280  0.00  0.00    +0.214 C 
ATOM     19  O   UNL     1       0.353   1.321  -4.805  0.00  0.00    -0.276 OA
ATOM     20  N   UNL     1       2.569   1.385  -4.874  0.00  0.00    -0.311 N 
ATOM     21  H   UNL     1       3.414   1.160  -4.455  0.00  0.00    +0.149 HD
BRANCH  18  22
ATOM     22  C   UNL     1       1.426   0.305  -2.965  0.00  0.00    +0.100 C 
BRANCH  22  23
ATOM     23  C   UNL     1      -0.011   0.036  -2.513  0.00  0.00    +0.048 C 
BRANCH  23  26
ATOM     24  C   UNL     1      -0.018   1.503   0.010  0.00  0.00    +0.066 C 
ATOM     25  C   UNL     1       0.002  -0.004   0.002  0.00  0.00    +0.046 A 
ATOM     26  C   UNL     1       0.006  -0.699  -1.198  0.00  0.00    -0.005 A 
ATOM     27  C   UNL     1       0.025  -2.084  -1.161  0.00  0.00    +0.046 A 
ATOM     28  N   UNL     1       0.039  -2.699   0.010  0.00  0.00    -0.227 NA
ATOM     29  C   UNL     1       0.035  -2.005   1.140  0.00  0.00    +0.188 A 
ATOM     30  N   UNL     1       0.022  -0.679   1.139  0.00  0.00    -0.227 NA
ATOM     31  C   UNL     1       0.029  -2.881  -2.440  0.00  0.00    +0.066 C 
BRANCH  29  32
ATOM     32  S   UNL     1       0.053  -2.864   2.678  0.00  0.00    -0.089 S 
ATOM     33  C   UNL     1       0.041  -1.542   3.919  0.00  0.00    +0.093 C 
ENDBRANCH  29  32
ENDBRANCH  23  26
ENDBRANCH  22  23
ENDBRANCH  18  22
ENDBRANCH   1  20
TORSDOF 8
