REMARK  Name = ZINC41585543
REMARK  9 active torsions:
REMARK  status: ('A' for Active; 'I' for Inactive)
REMARK    1  A    between atoms: C_1  and  C_2
REMARK    2  A    between atoms: C_2  and  O_3
REMARK    3  A    between atoms: O_3  and  C_4
REMARK    4  A    between atoms: C_9  and  C_10
REMARK    5  A    between atoms: C_15  and  C_36
REMARK    6  A    between atoms: C_17  and  O_35
REMARK    7  A    between atoms: C_18  and  C_21
REMARK    8  A    between atoms: C_21  and  N_22
REMARK    9  A    between atoms: N_25  and  C_28
REMARK                            x       y       z     vdW  Elec       q    Type
REMARK                         _______ _______ _______ _____ _____    ______ ____
ROOT
ATOM      1  C   UNL     1       2.154  -1.630   3.224  0.00  0.00    +0.061 C 
ATOM      2  C   UNL     1       2.556  -2.023   4.460  0.00  0.00    +0.176 C 
ATOM      3  C   UNL     1       2.820  -1.143   5.607  0.00  0.00    +0.232 C 
ATOM      4  O   UNL     1       2.728   0.071   5.653  0.00  0.00    -0.283 OA
ATOM      5  C   UNL     1       3.222  -2.059   6.691  0.00  0.00    +0.071 A 
ATOM      6  C   UNL     1       3.600  -1.858   8.019  0.00  0.00    -0.033 A 
ATOM      7  C   UNL     1       3.926  -2.929   8.803  0.00  0.00    +0.050 A 
ATOM      8  C   UNL     1       3.883  -4.218   8.279  0.00  0.00    +0.122 A 
ATOM      9  C   UNL     1       3.510  -4.432   6.963  0.00  0.00    +0.020 A 
ATOM     10  C   UNL     1       3.174  -3.354   6.152  0.00  0.00    +0.145 A 
ATOM     11  O   UNL     1       2.780  -3.297   4.861  0.00  0.00    -0.451 OA
ATOM     12  C   UNL     1       3.648  -0.464   8.588  0.00  0.00    +0.045 C 
ENDROOT
BRANCH   1  18
ATOM     13  C   UNL     1       1.666  -2.237   0.858  0.00  0.00    +0.128 A 
ATOM     14  C   UNL     1       1.411  -3.194  -0.111  0.00  0.00    +0.046 A 
ATOM     15  C   UNL     1       1.358  -4.531   0.233  0.00  0.00    +0.004 A 
ATOM     16  C   UNL     1       1.559  -4.928   1.546  0.00  0.00    +0.001 A 
ATOM     17  C   UNL     1       1.815  -3.992   2.523  0.00  0.00    +0.011 A 
ATOM     18  C   UNL     1       1.877  -2.633   2.189  0.00  0.00    +0.020 A 
BRANCH  13  19
ATOM     19  O   UNL     1       1.718  -0.923   0.521  0.00  0.00    -0.492 OA
BRANCH  19  21
ATOM     20  C   UNL     1       1.592   0.920  -1.037  0.00  0.00    +0.048 C 
ATOM     21  C   UNL     1       1.494  -0.596  -0.851  0.00  0.00    +0.226 C 
ENDBRANCH  19  21
ENDBRANCH  13  19
ENDBRANCH   1  18
BRANCH   8  22
ATOM     22  O   UNL     1       4.210  -5.275   9.066  0.00  0.00    -0.506 OA
ATOM     23  H   UNL     1       3.461  -5.655   9.545  0.00  0.00    +0.292 HD
ENDBRANCH   8  22
BRANCH   9  24
ATOM     24  C   UNL     1       3.469  -5.833   6.409  0.00  0.00    -0.035 C 
BRANCH  24  25
ATOM     25  N   UNL     1       2.133  -6.405   6.623  0.00  0.00    +0.385 N 
ATOM     26  C   UNL     1       1.884  -6.538   8.064  0.00  0.00    -0.059 C 
ATOM     27  C   UNL     1       0.450  -7.026   8.290  0.00  0.00    +0.086 C 
ATOM     28  N   UNL     1       0.252  -8.266   7.523  0.00  0.00    -0.333 N 
ATOM     29  C   UNL     1       0.632  -8.269   6.101  0.00  0.00    +0.086 C 
ATOM     30  C   UNL     1       2.058  -7.722   5.978  0.00  0.00    -0.059 C 
ATOM     31  H   UNL     1       1.439  -5.794   6.219  0.00  0.00    -0.081 HD
BRANCH  28  32
ATOM     32  C   UNL     1      -0.281  -9.408   8.127  0.00  0.00    +0.030 A 
ATOM     33  C   UNL     1      -0.517  -9.425   9.496  0.00  0.00    +0.026 A 
ATOM     34  C   UNL     1      -1.044 -10.555  10.090  0.00  0.00    +0.040 A 
ATOM     35  C   UNL     1      -1.339 -11.669   9.323  0.00  0.00    +0.124 A 
ATOM     36  C   UNL     1      -1.105 -11.654   7.959  0.00  0.00    +0.040 A 
ATOM     37  C   UNL     1      -0.582 -10.525   7.359  0.00  0.00    +0.026 A 
ATOM     38  F   UNL     1      -1.854 -12.773   9.907  0.00  0.00    -0.205 F 
ENDBRANCH  28  32
ENDBRANCH  24  25
ENDBRANCH   9  24
TORSDOF 7
