REMARK  Name = ZINC39639409
REMARK  7 active torsions:
REMARK  status: ('A' for Active; 'I' for Inactive)
REMARK    1  A    between atoms: C_1  and  C_2
REMARK    2  A    between atoms: C_5  and  C_8
REMARK    3  A    between atoms: C_8  and  C_10
REMARK    4  A    between atoms: C_8  and  N_11
REMARK    5  A    between atoms: C_12  and  C_14
REMARK    6  A    between atoms: C_25  and  C_27
REMARK    7  A    between atoms: C_30  and  C_32
REMARK                            x       y       z     vdW  Elec       q    Type
REMARK                         _______ _______ _______ _____ _____    ______ ____
ROOT
ATOM      1  C   UNL     1       2.460  -6.468   1.999  0.00  0.00    +0.100 C 
ATOM      2  C   UNL     1       3.759  -5.631   2.021  0.00  0.00    +0.121 C 
ATOM      3  N   UNL     1       4.829  -6.610   2.326  0.00  0.00    -0.294 N 
ATOM      4  C   UNL     1       4.453  -7.820   1.556  0.00  0.00    +0.115 C 
ATOM      5  C   UNL     1       2.920  -7.904   1.693  0.00  0.00    -0.004 C 
ATOM      6  C   UNL     1       2.300  -8.389   0.386  0.00  0.00    -0.010 C 
ATOM      7  C   UNL     1       2.725  -9.838   0.133  0.00  0.00    -0.082 C 
ATOM      8  N   UNL     1       2.284 -10.682   1.250  0.00  0.00    +0.379 N 
ATOM      9  C   UNL     1       2.957 -10.267   2.487  0.00  0.00    -0.082 C 
ATOM     10  C   UNL     1       2.542  -8.836   2.840  0.00  0.00    -0.010 C 
ATOM     11  C   UNL     1       5.902  -6.439   3.124  0.00  0.00    +0.282 C 
ATOM     12  O   UNL     1       6.700  -7.346   3.274  0.00  0.00    -0.267 OA
ATOM     13  H   UNL     1       1.286 -10.592   1.365  0.00  0.00    -0.086 HD
ATOM     14  H   UNL     1       2.512 -11.645   1.052  0.00  0.00    -0.086 HD
ENDROOT
BRANCH  11  15
ATOM     15  C   UNL     1       6.108  -5.161   3.809  0.00  0.00    +0.190 A 
ATOM     16  C   UNL     1       7.160  -4.851   4.644  0.00  0.00    +0.055 A 
ATOM     17  C   UNL     1       6.960  -3.536   5.074  0.00  0.00    +0.051 A 
ATOM     18  C   UNL     1       5.806  -3.094   4.493  0.00  0.00    +0.139 A 
ATOM     19  O   UNL     1       5.305  -4.079   3.729  0.00  0.00    -0.450 OA
BRANCH  18  20
ATOM     20  C   UNL     1       5.211  -1.754   4.669  0.00  0.00    +0.052 A 
ATOM     21  C   UNL     1       5.032  -1.229   5.951  0.00  0.00    +0.014 A 
ATOM     22  C   UNL     1       4.476   0.022   6.109  0.00  0.00    +0.001 A 
ATOM     23  C   UNL     1       4.095   0.760   5.002  0.00  0.00    +0.003 A 
ATOM     24  C   UNL     1       4.267   0.248   3.728  0.00  0.00    +0.039 A 
ATOM     25  C   UNL     1       4.829  -1.003   3.554  0.00  0.00    +0.134 A 
ATOM     26  F   UNL     1       5.003  -1.500   2.310  0.00  0.00    -0.205 F 
ENDBRANCH  18  20
ENDBRANCH  11  15
BRANCH   1  28
ATOM     27  N   UNL     1       0.201  -6.111   1.058  0.00  0.00    -0.308 N 
ATOM     28  C   UNL     1       1.534  -5.972   0.919  0.00  0.00    +0.219 C 
ATOM     29  O   UNL     1       1.989  -5.448  -0.076  0.00  0.00    -0.275 OA
ATOM     30  H   UNL     1      -0.163  -6.530   1.853  0.00  0.00    +0.149 HD
BRANCH  27  31
ATOM     31  C   UNL     1      -0.699  -5.628   0.007  0.00  0.00    +0.100 C 
ATOM     32  C   UNL     1      -0.848  -6.703  -1.071  0.00  0.00    +0.033 C 
BRANCH  31  37
ATOM     33  C   UNL     1      -5.879  -4.466   2.289  0.00  0.00    +0.044 C 
ATOM     34  C   UNL     1      -4.528  -4.769   1.694  0.00  0.00    -0.050 A 
ATOM     35  C   UNL     1      -3.991  -3.929   0.736  0.00  0.00    +0.004 A 
ATOM     36  C   UNL     1      -2.752  -4.207   0.190  0.00  0.00    +0.006 A 
ATOM     37  C   UNL     1      -2.050  -5.324   0.603  0.00  0.00    -0.027 A 
ATOM     38  C   UNL     1      -2.587  -6.163   1.562  0.00  0.00    +0.006 A 
ATOM     39  C   UNL     1      -3.824  -5.883   2.111  0.00  0.00    +0.004 A 
ENDBRANCH  31  37
ENDBRANCH  27  31
ENDBRANCH   1  28
TORSDOF 5
