REMARK  Name = ZINC38003267
REMARK  7 active torsions:
REMARK  status: ('A' for Active; 'I' for Inactive)
REMARK    1  A    between atoms: C_1  and  C_2
REMARK    2  A    between atoms: C_2  and  C_4
REMARK    3  A    between atoms: C_2  and  N_14
REMARK    4  A    between atoms: C_7  and  N_10
REMARK    5  A    between atoms: N_14  and  C_15
REMARK    6  A    between atoms: C_15  and  C_17
REMARK    7  A    between atoms: C_15  and  C_18
REMARK                            x       y       z     vdW  Elec       q    Type
REMARK                         _______ _______ _______ _____ _____    ______ ____
ROOT
ATOM      1  C   UNL     1       0.162   1.539  -0.084  0.00  0.00    -0.009 C 
ATOM      2  C   UNL     1       0.000   0.020   0.013  0.00  0.00    -0.043 C 
ENDROOT
BRANCH   2   3
ATOM      3  C   UNL     1       0.730  -0.485   1.231  0.00  0.00    -0.062 A 
ATOM      4  C   UNL     1       0.143  -0.382   2.479  0.00  0.00    +0.004 A 
ATOM      5  C   UNL     1       0.809  -0.845   3.597  0.00  0.00    +0.023 A 
ATOM      6  C   UNL     1       2.069  -1.414   3.467  0.00  0.00    +0.035 A 
ATOM      7  C   UNL     1       2.655  -1.516   2.213  0.00  0.00    +0.023 A 
ATOM      8  C   UNL     1       1.982  -1.057   1.098  0.00  0.00    +0.004 A 
BRANCH   6   9
ATOM      9  N   UNL     1       2.746  -1.883   4.598  0.00  0.00    -0.270 N 
ATOM     10  C   UNL     1       2.054  -2.412   5.627  0.00  0.00    +0.301 C 
ATOM     11  O   UNL     1       0.853  -2.571   5.534  0.00  0.00    -0.253 OA
ATOM     12  N   UNL     1       2.695  -2.765   6.759  0.00  0.00    -0.313 N 
ATOM     13  H   UNL     1       3.713  -1.827   4.642  0.00  0.00    +0.156 HD
ATOM     14  H   UNL     1       3.654  -2.639   6.833  0.00  0.00    +0.146 HD
ATOM     15  H   UNL     1       2.197  -3.146   7.499  0.00  0.00    +0.146 HD
ENDBRANCH   6   9
ENDBRANCH   2   3
BRANCH   2  16
ATOM     16  N   UNL     1      -1.426  -0.314   0.122  0.00  0.00    +0.388 N 
ATOM     17  H   UNL     1      -1.528  -1.307   0.269  0.00  0.00    -0.084 HD
ATOM     18  H   UNL     1      -1.830   0.184   0.901  0.00  0.00    -0.084 HD
BRANCH  16  19
ATOM     19  C   UNL     1      -2.116   0.072  -1.116  0.00  0.00    -0.036 C 
ATOM     20  C   UNL     1      -1.589  -0.774  -2.277  0.00  0.00    -0.008 C 
BRANCH  19  21
ATOM     21  C   UNL     1      -3.597  -0.158  -0.958  0.00  0.00    -0.023 A 
ATOM     22  C   UNL     1      -4.629   0.608  -1.388  0.00  0.00    +0.010 A 
ATOM     23  C   UNL     1      -5.923   0.197  -1.127  0.00  0.00    +0.023 A 
ATOM     24  C   UNL     1      -6.120  -0.961  -0.449  0.00  0.00    +0.055 A 
ATOM     25  S   UNL     1      -4.446  -1.512  -0.163  0.00  0.00    -0.088 S 
ATOM     26 BR   UNL     1      -7.747  -1.782   0.058  0.00  0.00    -0.043 Br
ENDBRANCH  19  21
ENDBRANCH  16  19
ENDBRANCH   2  16
TORSDOF 5
