REMARK  Name = ZINC36157053
REMARK  10 active torsions:
REMARK  status: ('A' for Active; 'I' for Inactive)
REMARK    1  A    between atoms: C_2  and  C_3
REMARK    2  A    between atoms: C_3  and  O_4
REMARK    3  A    between atoms: O_4  and  C_5
REMARK    4  A    between atoms: C_5  and  C_6
REMARK    5  A    between atoms: C_6  and  C_8
REMARK    6  A    between atoms: C_6  and  O_32
REMARK    7  A    between atoms: C_8  and  N_9
REMARK    8  A    between atoms: N_9  and  C_10
REMARK    9  A    between atoms: N_9  and  C_26
REMARK   10  A    between atoms: C_10  and  C_11
REMARK                            x       y       z     vdW  Elec       q    Type
REMARK                         _______ _______ _______ _____ _____    ______ ____
ROOT
ATOM      1  N   UNL     1       4.438   5.712   0.293  0.00  0.00    +0.388 N 
ATOM      2  H   UNL     1       5.039   5.324  -0.419  0.00  0.00    -0.081 HD
ENDROOT
BRANCH   1   3
ATOM      3  C   UNL     1       4.833   5.185   1.606  0.00  0.00    -0.068 C 
ATOM      4  C   UNL     1       6.300   5.530   1.874  0.00  0.00    -0.015 C 
ATOM      5  C   UNL     1       6.712   4.982   3.241  0.00  0.00    -0.002 C 
ATOM      6  C   UNL     1       5.834   5.609   4.327  0.00  0.00    -0.000 C 
ATOM      7  C   UNL     1       4.368   5.264   4.060  0.00  0.00    -0.002 C 
ATOM      8  C   UNL     1       3.956   5.812   2.692  0.00  0.00    -0.015 C 
ENDBRANCH   1   3
BRANCH   1   9
ATOM      9  C   UNL     1       3.045   5.338   0.015  0.00  0.00    -0.044 C 
BRANCH   9  10
ATOM     10  C   UNL     1       2.943   3.818  -0.125  0.00  0.00    +0.124 C 
BRANCH  10  11
ATOM     11  O   UNL     1       3.700   3.392  -1.260  0.00  0.00    -0.391 OA
ATOM     12  H   UNL     1       3.404   3.776  -2.097  0.00  0.00    +0.210 HD
ENDBRANCH  10  11
BRANCH  10  13
ATOM     13  C   UNL     1       1.477   3.421  -0.312  0.00  0.00    +0.190 C 
BRANCH  13  14
ATOM     14  O   UNL     1       1.368   1.996  -0.326  0.00  0.00    -0.365 OA
BRANCH  14  15
ATOM     15  C   UNL     1       0.033   1.517  -0.495  0.00  0.00    +0.248 C 
BRANCH  15  17
ATOM     16  C   UNL     1       0.038  -1.129  -0.495  0.00  0.00    +0.006 C 
ATOM     17  C   UNL     1       0.036   0.045  -0.495  0.00  0.00    -0.077 C 
ENDBRANCH  15  17
ENDBRANCH  14  15
ENDBRANCH  13  14
ENDBRANCH  10  13
ENDBRANCH   9  10
ENDBRANCH   1   9
BRANCH   1  18
ATOM     18  C   UNL     1       4.562   7.176   0.295  0.00  0.00    -0.003 C 
BRANCH  18  19
ATOM     19  C   UNL     1       6.000   7.559   0.056  0.00  0.00    +0.094 A 
ATOM     20  N   UNL     1       6.372   8.859   0.175  0.00  0.00    -0.312 N 
ATOM     21  H   UNL     1       5.706   9.524   0.412  0.00  0.00    +0.170 HD
ATOM     22  C   UNL     1       7.645   9.245  -0.029  0.00  0.00    +0.260 A 
ATOM     23  O   UNL     1       7.963  10.416   0.082  0.00  0.00    -0.267 OA
ATOM     24  C   UNL     1       8.621   8.255  -0.379  0.00  0.00    +0.075 A 
ATOM     25  C   UNL     1      10.047   8.439  -0.646  0.00  0.00    -0.023 A 
ATOM     26  C   UNL     1      10.759   7.336  -0.958  0.00  0.00    -0.004 A 
ATOM     27  S   UNL     1       9.588   6.006  -0.915  0.00  0.00    -0.073 S 
ATOM     28  C   UNL     1       8.142   6.939  -0.478  0.00  0.00    +0.116 A 
ATOM     29  N   UNL     1       6.867   6.633  -0.256  0.00  0.00    -0.229 NA
ATOM     30  C   UNL     1      12.221   7.258  -1.273  0.00  0.00    +0.043 C 
ATOM     31  C   UNL     1      12.732   8.678  -1.555  0.00  0.00    +0.005 C 
ATOM     32  C   UNL     1      12.230   9.609  -0.448  0.00  0.00    +0.005 C 
ATOM     33  C   UNL     1      10.719   9.808  -0.581  0.00  0.00    +0.037 C 
ENDBRANCH  18  19
ENDBRANCH   1  18
TORSDOF 10
