REMARK  Name = ZINC36290127
REMARK  4 active torsions:
REMARK  status: ('A' for Active; 'I' for Inactive)
REMARK    1  A    between atoms: C_1  and  C_2
REMARK    2  A    between atoms: C_3  and  N_22
REMARK    3  A    between atoms: C_5  and  C_11
REMARK    4  A    between atoms: C_6  and  C_10
REMARK                            x       y       z     vdW  Elec       q    Type
REMARK                         _______ _______ _______ _____ _____    ______ ____
ROOT
ATOM      1  C   UNL     1      -0.018   1.503   0.010  0.00  0.00    +0.069 C 
ATOM      2  C   UNL     1       0.002  -0.004   0.002  0.00  0.00    +0.079 A 
ATOM      3  C   UNL     1       0.008  -0.787  -1.095  0.00  0.00    +0.124 A 
ATOM      4  N   UNL     1       0.028  -2.112  -0.667  0.00  0.00    -0.274 N 
ATOM      5  C   UNL     1       0.042  -3.379  -1.228  0.00  0.00    +0.067 A 
ATOM      6  C   UNL     1       0.061  -4.470  -0.439  0.00  0.00    +0.015 A 
ATOM      7  S   UNL     1       0.058  -3.748   1.194  0.00  0.00    -0.054 S 
ATOM      8  C   UNL     1       0.033  -2.040   0.704  0.00  0.00    +0.180 A 
ATOM      9  N   UNL     1       0.024  -0.798   1.089  0.00  0.00    -0.225 NA
ATOM     10  C   UNL     1       0.078  -5.924  -0.833  0.00  0.00    +0.054 C 
ENDROOT
BRANCH   5  11
ATOM     11  C   UNL     1       0.037  -3.534  -2.698  0.00  0.00    +0.003 A 
ATOM     12  C   UNL     1       1.127  -3.089  -3.451  0.00  0.00    +0.012 A 
ATOM     13  C   UNL     1       1.123  -3.233  -4.822  0.00  0.00    +0.030 A 
ATOM     14  C   UNL     1       0.037  -3.820  -5.456  0.00  0.00    +0.087 A 
ATOM     15  C   UNL     1      -1.055  -4.268  -4.710  0.00  0.00    +0.157 A 
ATOM     16  C   UNL     1      -1.052  -4.130  -3.333  0.00  0.00    +0.058 A 
ATOM     17  O   UNL     1      -1.952  -4.789  -5.583  0.00  0.00    -0.408 OA
ATOM     18  C   UNL     1      -1.466  -4.684  -6.830  0.00  0.00    +0.419 A 
ATOM     19  O   UNL     1      -2.033  -5.060  -7.838  0.00  0.00    -0.223 OA
ATOM     20  N   UNL     1      -0.254  -4.098  -6.792  0.00  0.00    -0.288 N 
ATOM     21  H   UNL     1       0.314  -3.903  -7.555  0.00  0.00    +0.172 HD
ENDBRANCH   5  11
BRANCH   3  22
ATOM     22  N   UNL     1      -0.004  -0.348  -2.426  0.00  0.00    -0.343 N 
ATOM     23  H   UNL     1      -0.018   0.602  -2.623  0.00  0.00    +0.144 HD
ATOM     24  H   UNL     1       0.001  -0.993  -3.151  0.00  0.00    +0.144 HD
ENDBRANCH   3  22
TORSDOF 2
