REMARK  Name = ZINC43216391
REMARK  11 active torsions:
REMARK  status: ('A' for Active; 'I' for Inactive)
REMARK    1  A    between atoms: C_1  and  C_2
REMARK    2  A    between atoms: C_2  and  C_3
REMARK    3  A    between atoms: C_2  and  C_4
REMARK    4  A    between atoms: C_14  and  C_32
REMARK    5  A    between atoms: C_18  and  C_19
REMARK    6  A    between atoms: C_18  and  C_20
REMARK    7  A    between atoms: C_20  and  N_21
REMARK    8  A    between atoms: C_22  and  C_24
REMARK    9  A    between atoms: C_27  and  C_29
REMARK   10  A    between atoms: C_29  and  C_30
REMARK   11  A    between atoms: C_30  and  N_31
REMARK                            x       y       z     vdW  Elec       q    Type
REMARK                         _______ _______ _______ _____ _____    ______ ____
ROOT
ATOM      1  C   UNL     1      -1.317  -0.483   0.035  0.00  0.00    -0.045 A 
ATOM      2  C   UNL     1      -2.168  -0.169   1.078  0.00  0.00    +0.004 A 
ATOM      3  C   UNL     1      -3.458  -0.658   1.081  0.00  0.00    +0.005 A 
ATOM      4  C   UNL     1      -3.906  -1.465   0.044  0.00  0.00    -0.038 A 
ATOM      5  C   UNL     1      -3.059  -1.785  -0.992  0.00  0.00    -0.043 A 
ATOM      6  C   UNL     1      -1.763  -1.282  -0.997  0.00  0.00    +0.007 A 
ATOM      7  C   UNL     1      -3.468  -2.671  -2.140  0.00  0.00    +0.036 C 
ATOM      8  C   UNL     1      -4.989  -2.809  -2.204  0.00  0.00    +0.009 C 
ATOM      9  C   UNL     1      -5.495  -3.171  -0.806  0.00  0.00    +0.007 C 
ATOM     10  C   UNL     1      -5.332  -1.957   0.103  0.00  0.00    -0.003 C 
ATOM     11  C   UNL     1      -6.254  -0.827  -0.364  0.00  0.00    +0.011 C 
ATOM     12  C   UNL     1      -7.705  -1.306  -0.368  0.00  0.00    +0.001 C 
ATOM     13  C   UNL     1      -7.842  -2.484  -1.337  0.00  0.00    +0.008 C 
ATOM     14  C   UNL     1      -6.952  -3.613  -0.858  0.00  0.00    -0.013 C 
ATOM     15  C   UNL     1      -7.092  -4.785  -1.831  0.00  0.00    +0.013 C 
ATOM     16  C   UNL     1      -5.681  -2.346   1.541  0.00  0.00    +0.016 C 
ENDROOT
BRANCH   1  18
ATOM     17  C   UNL     1       0.058   1.581   0.028  0.00  0.00    +0.012 C 
ATOM     18  C   UNL     1       0.092   0.051   0.021  0.00  0.00    +0.013 C 
ATOM     19  C   UNL     1       0.838  -0.447   1.261  0.00  0.00    +0.012 C 
ENDBRANCH   1  18
BRANCH  14  20
ATOM     20  C   UNL     1      -7.396  -4.058   0.536  0.00  0.00    +0.111 C 
BRANCH  20  21
ATOM     21  N   UNL     1      -8.739  -4.638   0.459  0.00  0.00    -0.309 N 
ATOM     22  C   UNL     1      -9.339  -5.102   1.573  0.00  0.00    +0.266 C 
ATOM     23  O   UNL     1      -8.765  -5.039   2.643  0.00  0.00    -0.268 OA
ATOM     24  H   UNL     1      -9.197  -4.689  -0.395  0.00  0.00    +0.149 HD
BRANCH  22  25
ATOM     25  C   UNL     1     -10.690  -5.686   1.494  0.00  0.00    +0.163 A 
ATOM     26  C   UNL     1     -11.416  -6.186   2.531  0.00  0.00    +0.230 A 
ATOM     27  O   UNL     1     -12.583  -6.613   2.022  0.00  0.00    -0.447 OA
ATOM     28  C   UNL     1     -12.574  -6.381   0.702  0.00  0.00    +0.194 A 
ATOM     29  N   UNL     1     -11.448  -5.822   0.373  0.00  0.00    -0.209 NA
BRANCH  28  30
ATOM     30  C   UNL     1     -13.694  -6.713  -0.250  0.00  0.00    +0.076 C 
BRANCH  30  31
ATOM     31  C   UNL     1     -13.497  -8.128  -0.796  0.00  0.00    -0.077 C 
BRANCH  31  32
ATOM     32  N   UNL     1     -14.590  -8.452  -1.724  0.00  0.00    +0.378 N 
ATOM     33  H   UNL     1     -15.472  -8.399  -1.236  0.00  0.00    -0.090 HD
ATOM     34  H   UNL     1     -14.588  -7.793  -2.488  0.00  0.00    -0.090 HD
ATOM     35  H   UNL     1     -14.460  -9.385  -2.084  0.00  0.00    -0.090 HD
ENDBRANCH  31  32
ENDBRANCH  30  31
ENDBRANCH  28  30
ENDBRANCH  22  25
ENDBRANCH  20  21
ENDBRANCH  14  20
TORSDOF 7
