REMARK  Name = ZINC38002503
REMARK  6 active torsions:
REMARK  status: ('A' for Active; 'I' for Inactive)
REMARK    1  A    between atoms: C_1  and  C_2
REMARK    2  A    between atoms: C_4  and  C_7
REMARK    3  A    between atoms: C_12  and  N_13
REMARK    4  A    between atoms: N_13  and  C_14
REMARK    5  A    between atoms: C_14  and  C_16
REMARK    6  A    between atoms: C_14  and  C_17
REMARK                            x       y       z     vdW  Elec       q    Type
REMARK                         _______ _______ _______ _____ _____    ______ ____
ROOT
ATOM      1  C   UNL     1      -0.185  -3.227  -1.658  0.00  0.00    +0.060 A 
ATOM      2  C   UNL     1      -0.292  -3.019  -3.035  0.00  0.00    +0.015 A 
ATOM      3  C   UNL     1      -0.060  -4.061  -3.907  0.00  0.00    +0.001 A 
ATOM      4  C   UNL     1       0.278  -5.315  -3.425  0.00  0.00    +0.002 A 
ATOM      5  C   UNL     1       0.387  -5.535  -2.066  0.00  0.00    +0.024 A 
ATOM      6  C   UNL     1       0.163  -4.496  -1.173  0.00  0.00    +0.040 A 
ENDROOT
BRANCH   1  10
ATOM      7  C   UNL     1      -2.342   0.697   0.535  0.00  0.00    +0.091 C 
ATOM      8  C   UNL     1      -1.358  -0.407   0.247  0.00  0.00    +0.169 A 
ATOM      9  N   UNL     1      -1.453  -1.288  -0.751  0.00  0.00    -0.192 NA
ATOM     10  C   UNL     1      -0.431  -2.115  -0.719  0.00  0.00    +0.260 A 
ATOM     11  O   UNL     1       0.349  -1.771   0.320  0.00  0.00    -0.333 OA
ATOM     12  N   UNL     1      -0.275  -0.650   0.929  0.00  0.00    -0.061 NA
ENDBRANCH   1  10
BRANCH   6  13
ATOM     13  N   UNL     1       0.278  -4.714   0.196  0.00  0.00    -0.336 N 
ATOM     14  H   UNL     1       0.198  -3.971   0.814  0.00  0.00    +0.147 HD
BRANCH  13  15
ATOM     15  C   UNL     1       0.518  -6.067   0.705  0.00  0.00    +0.104 C 
ATOM     16  C   UNL     1       2.020  -6.361   0.681  0.00  0.00    +0.033 C 
BRANCH  15  17
ATOM     17  C   UNL     1       0.009  -6.170   2.119  0.00  0.00    +0.011 A 
ATOM     18  C   UNL     1      -0.643  -7.195   2.719  0.00  0.00    +0.014 A 
ATOM     19  C   UNL     1      -1.020  -7.067   4.043  0.00  0.00    +0.023 A 
ATOM     20  C   UNL     1      -0.727  -5.919   4.702  0.00  0.00    +0.055 A 
ATOM     21  S   UNL     1       0.114  -4.975   3.441  0.00  0.00    -0.085 S 
ATOM     22 BR   UNL     1      -1.104  -5.444   6.493  0.00  0.00    -0.043 Br
ENDBRANCH  15  17
ENDBRANCH  13  15
ENDBRANCH   6  13
TORSDOF 4
