REMARK  Name = ZINC20739148
REMARK  8 active torsions:
REMARK  status: ('A' for Active; 'I' for Inactive)
REMARK    1  A    between atoms: C_4  and  C_7
REMARK    2  A    between atoms: C_7  and  C_8
REMARK    3  A    between atoms: C_7  and  C_33
REMARK    4  A    between atoms: C_8  and  C_9
REMARK    5  A    between atoms: C_9  and  N_10
REMARK    6  A    between atoms: N_10  and  C_11
REMARK    7  A    between atoms: C_14  and  N_20
REMARK    8  A    between atoms: C_16  and  N_17
REMARK                            x       y       z     vdW  Elec       q    Type
REMARK                         _______ _______ _______ _____ _____    ______ ____
ROOT
ATOM      1  C   UNL     1       5.581  -3.953   3.279  0.00  0.00    +0.058 A 
ATOM      2  C   UNL     1       6.795  -4.034   2.610  0.00  0.00    +0.027 A 
ATOM      3  C   UNL     1       7.805  -4.833   3.107  0.00  0.00    +0.026 A 
ATOM      4  C   UNL     1       7.607  -5.556   4.276  0.00  0.00    +0.046 A 
ATOM      5  C   UNL     1       6.394  -5.475   4.945  0.00  0.00    +0.058 A 
ATOM      6  C   UNL     1       5.385  -4.671   4.452  0.00  0.00    +0.149 A 
ENDROOT
BRANCH   4   7
ATOM      7  N   UNL     1       8.634  -6.369   4.780  0.00  0.00    -0.210 N 
ATOM      8  C   UNL     1       8.510  -7.108   5.913  0.00  0.00    +0.230 C 
ATOM      9  O   UNL     1       7.487  -7.345   6.519  0.00  0.00    -0.274 OA
ATOM     10  C   UNL     1       9.891  -7.571   6.265  0.00  0.00    +0.092 C 
ATOM     11  C   UNL     1      10.051  -8.938   6.896  0.00  0.00    +0.040 C 
ATOM     12  C   UNL     1      11.522  -9.289   6.818  0.00  0.00    -0.030 C 
ATOM     13  C   UNL     1      12.372  -8.714   6.022  0.00  0.00    -0.030 C 
ATOM     14  C   UNL     1      12.015  -7.623   5.035  0.00  0.00    +0.040 C 
ATOM     15  C   UNL     1      10.521  -7.660   4.840  0.00  0.00    +0.092 C 
ATOM     16  C   UNL     1       9.845  -6.498   4.179  0.00  0.00    +0.230 C 
ATOM     17  O   UNL     1      10.292  -5.809   3.287  0.00  0.00    -0.274 OA
ENDBRANCH   4   7
BRANCH   6  18
ATOM     18  N   UNL     1       4.094  -4.579   5.169  0.00  0.00    +0.058 N 
ATOM     19  O   UNL     1       3.508  -3.523   5.228  0.00  0.00    -0.126 OA
ATOM     20  O   UNL     1       3.624  -5.561   5.696  0.00  0.00    -0.126 OA
ENDBRANCH   6  18
BRANCH   1  21
ATOM     21  N   UNL     1       4.558  -3.143   2.776  0.00  0.00    -0.342 N 
ATOM     22  H   UNL     1       3.685  -3.145   3.199  0.00  0.00    +0.146 HD
BRANCH  21  23
ATOM     23  C   UNL     1       4.804  -2.292   1.609  0.00  0.00    +0.102 C 
BRANCH  23  24
ATOM     24  C   UNL     1       3.531  -1.515   1.267  0.00  0.00    +0.031 C 
BRANCH  24  25
ATOM     25  C   UNL     1       3.788  -0.626   0.049  0.00  0.00    +0.050 C 
BRANCH  25  29
ATOM     26  C   UNL     1       0.350   1.797  -0.699  0.00  0.00    +0.000 A 
ATOM     27  C   UNL     1       1.597   2.383  -0.586  0.00  0.00    +0.000 A 
ATOM     28  C   UNL     1       2.710   1.598  -0.344  0.00  0.00    +0.004 A 
ATOM     29  C   UNL     1       2.575   0.229  -0.214  0.00  0.00    -0.040 A 
ATOM     30  C   UNL     1       1.327  -0.357  -0.326  0.00  0.00    +0.004 A 
ATOM     31  C   UNL     1       0.215   0.427  -0.569  0.00  0.00    +0.000 A 
ENDBRANCH  25  29
BRANCH  25  32
ATOM     32  C   UNL     1       4.063  -1.491  -1.155  0.00  0.00    -0.040 A 
ATOM     33  C   UNL     1       3.182  -2.498  -1.498  0.00  0.00    +0.004 A 
ATOM     34  C   UNL     1       3.434  -3.291  -2.602  0.00  0.00    +0.000 A 
ATOM     35  C   UNL     1       4.569  -3.076  -3.363  0.00  0.00    +0.000 A 
ATOM     36  C   UNL     1       5.450  -2.067  -3.020  0.00  0.00    +0.000 A 
ATOM     37  C   UNL     1       5.195  -1.272  -1.918  0.00  0.00    +0.004 A 
ENDBRANCH  25  32
ENDBRANCH  24  25
ENDBRANCH  23  24
ENDBRANCH  21  23
ENDBRANCH   1  21
TORSDOF 8
