REMARK  Name = ZINC01274570
REMARK  8 active torsions:
REMARK  status: ('A' for Active; 'I' for Inactive)
REMARK    1  A    between atoms: C_1  and  O_2
REMARK    2  A    between atoms: O_2  and  C_3
REMARK    3  A    between atoms: C_6  and  C_10
REMARK    4  A    between atoms: N_15  and  C_16
REMARK    5  A    between atoms: C_16  and  N_18
REMARK    6  A    between atoms: C_19  and  C_21
REMARK    7  A    between atoms: C_24  and  O_28
REMARK    8  A    between atoms: O_28  and  C_29
REMARK                            x       y       z     vdW  Elec       q    Type
REMARK                         _______ _______ _______ _____ _____    ______ ____
ROOT
ATOM      1  C   UNL     1       2.495  -2.494  -4.367  0.00  0.00    +0.080 A 
ATOM      2  C   UNL     1       2.543  -3.857  -4.449  0.00  0.00    +0.076 A 
ATOM      3  S   UNL     1       3.422  -4.066  -5.992  0.00  0.00    -0.060 S 
ATOM      4  C   UNL     1       3.633  -2.330  -6.365  0.00  0.00    +0.164 A 
ATOM      5  N   UNL     1       3.037  -1.765  -5.331  0.00  0.00    -0.225 NA
ATOM      6  N   UNL     1       4.254  -1.735  -7.455  0.00  0.00    -0.276 N 
ATOM      7  H   UNL     1       4.292  -0.768  -7.523  0.00  0.00    +0.156 HD
ENDROOT
BRANCH   1  11
ATOM      8  C   UNL     1       0.606  -0.607  -1.055  0.00  0.00    +0.134 A 
ATOM      9  C   UNL     1       1.172   0.164  -2.061  0.00  0.00    +0.047 A 
ATOM     10  C   UNL     1       1.786  -0.445  -3.136  0.00  0.00    +0.013 A 
ATOM     11  C   UNL     1       1.836  -1.836  -3.212  0.00  0.00    +0.002 A 
ATOM     12  C   UNL     1       1.267  -2.608  -2.201  0.00  0.00    +0.029 A 
ATOM     13  C   UNL     1       0.659  -1.993  -1.125  0.00  0.00    +0.060 A 
ATOM     14 BR   UNL     1      -0.107  -3.038   0.252  0.00  0.00    -0.046 Br
BRANCH   8  16
ATOM     15  C   UNL     1      -0.017   1.425   0.010  0.00  0.00    +0.277 C 
ATOM     16  O   UNL     1       0.002  -0.004   0.002  0.00  0.00    -0.494 OA
ENDBRANCH   8  16
ENDBRANCH   1  11
BRANCH   6  17
ATOM     17  C   UNL     1       4.804  -2.500  -8.418  0.00  0.00    +0.143 C 
ATOM     18  S   UNL     1       4.737  -4.207  -8.298  0.00  0.00    -0.018 S 
BRANCH  17  19
ATOM     19  N   UNL     1       5.406  -1.922  -9.476  0.00  0.00    -0.264 N 
ATOM     20  C   UNL     1       5.956  -2.688 -10.440  0.00  0.00    +0.250 C 
ATOM     21  O   UNL     1       5.908  -3.900 -10.355  0.00  0.00    -0.270 OA
ATOM     22  H   UNL     1       5.444  -0.956  -9.544  0.00  0.00    +0.157 HD
BRANCH  20  23
ATOM     23  C   UNL     1       6.615  -2.055 -11.598  0.00  0.00    +0.038 A 
ATOM     24  C   UNL     1       6.676  -0.662 -11.695  0.00  0.00    +0.017 A 
ATOM     25  C   UNL     1       7.293  -0.075 -12.777  0.00  0.00    +0.047 A 
ATOM     26  C   UNL     1       7.855  -0.866 -13.773  0.00  0.00    +0.134 A 
ATOM     27  C   UNL     1       7.797  -2.252 -13.681  0.00  0.00    +0.060 A 
ATOM     28  C   UNL     1       7.186  -2.847 -12.598  0.00  0.00    +0.032 A 
ATOM     29 BR   UNL     1       8.562  -3.322 -15.039  0.00  0.00    -0.046 Br
BRANCH  26  30
ATOM     30  O   UNL     1       8.462  -0.283 -14.839  0.00  0.00    -0.494 OA
ATOM     31  C   UNL     1       8.485   1.145 -14.871  0.00  0.00    +0.277 C 
ENDBRANCH  26  30
ENDBRANCH  20  23
ENDBRANCH  17  19
ENDBRANCH   6  17
TORSDOF 6
