REMARK  Name = ZINC63663824
REMARK  11 active torsions:
REMARK  status: ('A' for Active; 'I' for Inactive)
REMARK    1  A    between atoms: C_1  and  C_2
REMARK    2  A    between atoms: C_2  and  C_4
REMARK    3  A    between atoms: C_2  and  N_24
REMARK    4  A    between atoms: C_4  and  C_6
REMARK    5  A    between atoms: C_4  and  N_11
REMARK    6  A    between atoms: N_14  and  C_17
REMARK    7  A    between atoms: C_17  and  C_18
REMARK    8  A    between atoms: C_25  and  C_27
REMARK    9  A    between atoms: N_29  and  C_30
REMARK   10  A    between atoms: C_30  and  C_31
REMARK   11  A    between atoms: C_31  and  C_32
REMARK                            x       y       z     vdW  Elec       q    Type
REMARK                         _______ _______ _______ _____ _____    ______ ____
ROOT
ATOM      1  C   UNL     1       0.733  -0.592  -1.206  0.00  0.00    +0.030 C 
ATOM      2  C   UNL     1      -0.011   0.042  -0.029  0.00  0.00    +0.092 C 
ENDROOT
BRANCH   2   3
ATOM      3  N   UNL     1       0.624  -0.365   1.226  0.00  0.00    -0.303 N 
ATOM      4  C   UNL     1       1.685   0.320   1.697  0.00  0.00    +0.299 C 
ATOM      5  O   UNL     1       2.115   1.273   1.081  0.00  0.00    -0.265 OA
ATOM      6  H   UNL     1       0.281  -1.126   1.719  0.00  0.00    +0.149 HD
BRANCH   4   7
ATOM      7  C   UNL     1       2.334  -0.095   2.978  0.00  0.00    +0.299 C 
ATOM      8  O   UNL     1       1.904  -1.048   3.595  0.00  0.00    -0.265 OA
ATOM      9  N   UNL     1       3.395   0.590   3.449  0.00  0.00    -0.307 N 
ATOM     10  H   UNL     1       3.738   1.351   2.956  0.00  0.00    +0.149 HD
BRANCH   9  11
ATOM     11  C   UNL     1       4.031   0.183   4.705  0.00  0.00    +0.109 C 
BRANCH  11  12
ATOM     12  C   UNL     1       5.202   1.118   5.010  0.00  0.00    +0.052 C 
BRANCH  12  13
ATOM     13  C   UNL     1       5.856   0.700   6.301  0.00  0.00    -0.040 C 
ATOM     14  C   UNL     1       6.936  -0.102   6.444  0.00  0.00    -0.001 A 
ATOM     15  C   UNL     1       7.791  -0.799   5.476  0.00  0.00    +0.010 A 
ATOM     16  C   UNL     1       8.822  -1.547   5.932  0.00  0.00    +0.001 A 
ATOM     17  C   UNL     1       9.092  -1.674   7.301  0.00  0.00    +0.002 A 
ATOM     18  C   UNL     1       8.351  -1.063   8.250  0.00  0.00    +0.026 A 
ATOM     19  C   UNL     1       7.243  -0.251   7.885  0.00  0.00    +0.043 A 
ATOM     20  N   UNL     1       6.386   0.432   8.604  0.00  0.00    -0.380 N 
ATOM     21  C   UNL     1       5.441   1.098   7.700  0.00  0.00    +0.144 C 
ATOM     22  H   UNL     1       6.380   0.491   9.573  0.00  0.00    +0.160 HD
ENDBRANCH  12  13
ENDBRANCH  11  12
ENDBRANCH   9  11
ENDBRANCH   4   7
ENDBRANCH   2   3
BRANCH   2  23
ATOM     23  C   UNL     1      -1.469  -0.424  -0.038  0.00  0.00    +0.114 C 
BRANCH  23  24
ATOM     24  N   UNL     1      -2.174   0.155   1.113  0.00  0.00    -0.291 NA
ATOM     25  C   UNL     1      -2.127   1.623   1.076  0.00  0.00    +0.100 C 
ATOM     26  C   UNL     1      -2.802   2.185   2.329  0.00  0.00    +0.100 C 
ATOM     27  N   UNL     1      -4.191   1.707   2.390  0.00  0.00    -0.296 NA
ATOM     28  C   UNL     1      -4.238   0.239   2.428  0.00  0.00    +0.100 C 
ATOM     29  C   UNL     1      -3.563  -0.323   1.174  0.00  0.00    +0.100 C 
BRANCH  27  30
ATOM     30  C   UNL     1      -4.896   2.286   3.541  0.00  0.00    +0.119 C 
BRANCH  30  31
ATOM     31  C   UNL     1      -6.367   1.976   3.437  0.00  0.00    -0.033 A 
ATOM     32  C   UNL     1      -7.211   2.844   2.770  0.00  0.00    +0.005 A 
ATOM     33  C   UNL     1      -8.561   2.559   2.674  0.00  0.00    +0.000 A 
ATOM     34  C   UNL     1      -9.066   1.405   3.245  0.00  0.00    +0.000 A 
ATOM     35  C   UNL     1      -8.222   0.537   3.911  0.00  0.00    +0.000 A 
ATOM     36  C   UNL     1      -6.872   0.820   4.003  0.00  0.00    +0.005 A 
ENDBRANCH  30  31
ENDBRANCH  27  30
ENDBRANCH  23  24
BRANCH  23  37
ATOM     37  C   UNL     1      -1.516  -1.928   0.049  0.00  0.00    +0.009 A 
ATOM     38  C   UNL     1      -1.694  -2.835  -0.943  0.00  0.00    +0.013 A 
ATOM     39  C   UNL     1      -1.702  -4.180  -0.627  0.00  0.00    +0.008 A 
ATOM     40  C   UNL     1      -1.530  -4.553   0.665  0.00  0.00    +0.045 A 
ATOM     41  S   UNL     1      -1.343  -2.977   1.482  0.00  0.00    -0.100 S 
ENDBRANCH  23  37
ENDBRANCH   2  23
TORSDOF 10
