REMARK  Name = ZINC09884368
REMARK  11 active torsions:
REMARK  status: ('A' for Active; 'I' for Inactive)
REMARK    1  A    between atoms: C_1  and  N_2
REMARK    2  A    between atoms: N_2  and  C_3
REMARK    3  A    between atoms: N_2  and  C_4
REMARK    4  A    between atoms: C_4  and  C_6
REMARK    5  A    between atoms: C_4  and  C_29
REMARK    6  A    between atoms: C_6  and  N_7
REMARK    7  A    between atoms: C_8  and  C_10
REMARK    8  A    between atoms: C_12  and  S_17
REMARK    9  A    between atoms: S_17  and  N_20
REMARK   10  A    between atoms: N_20  and  C_21
REMARK   11  A    between atoms: N_20  and  C_22
REMARK                            x       y       z     vdW  Elec       q    Type
REMARK                         _______ _______ _______ _____ _____    ______ ____
ROOT
ATOM      1  C   UNL     1      -1.215  -5.332   2.082  0.00  0.00    +0.057 A 
ATOM      2  C   UNL     1      -0.283  -4.566   2.785  0.00  0.00    +0.043 A 
ATOM      3  C   UNL     1       0.569  -5.175   3.682  0.00  0.00    +0.110 A 
ATOM      4  C   UNL     1       0.502  -6.543   3.886  0.00  0.00    +0.030 A 
ATOM      5  C   UNL     1      -0.418  -7.308   3.194  0.00  0.00    +0.022 A 
ATOM      6  C   UNL     1      -1.282  -6.710   2.296  0.00  0.00    +0.053 A 
ATOM      7 CL   UNL     1      -2.441  -7.671   1.433  0.00  0.00    -0.083 Cl
ENDROOT
BRANCH   1   9
ATOM      8  N   UNL     1      -2.065  -3.355   0.914  0.00  0.00    -0.312 N 
ATOM      9  C   UNL     1      -2.132  -4.686   1.119  0.00  0.00    +0.246 C 
ATOM     10  O   UNL     1      -2.946  -5.354   0.512  0.00  0.00    -0.270 OA
ATOM     11  H   UNL     1      -1.416  -2.822   1.399  0.00  0.00    +0.149 HD
BRANCH   8  12
ATOM     12  C   UNL     1      -2.974  -2.715  -0.040  0.00  0.00    +0.097 C 
BRANCH  12  13
ATOM     13  C   UNL     1      -2.786  -1.197   0.018  0.00  0.00    +0.016 C 
BRANCH  13  14
ATOM     14  C   UNL     1      -1.402  -0.843  -0.462  0.00  0.00    +0.093 A 
ATOM     15  C   UNL     1      -1.087  -0.386  -1.687  0.00  0.00    +0.043 A 
ATOM     16  C   UNL     1       0.313  -0.187  -1.702  0.00  0.00    +0.041 A 
ATOM     17  C   UNL     1       0.769  -0.534  -0.485  0.00  0.00    +0.195 A 
ATOM     18  O   UNL     1      -0.275  -0.925   0.264  0.00  0.00    -0.469 OA
ENDBRANCH  13  14
BRANCH  13  20
ATOM     19  C   UNL     1      -2.733   0.716   1.464  0.00  0.00    -0.096 C 
ATOM     20  N   UNL     1      -2.959  -0.735   1.401  0.00  0.00    +0.384 N 
ATOM     21  C   UNL     1      -4.324  -1.038   1.852  0.00  0.00    -0.096 C 
ATOM     22  H   UNL     1      -2.295  -1.205   1.998  0.00  0.00    -0.082 HD
ENDBRANCH  13  20
ENDBRANCH  12  13
ENDBRANCH   8  12
ENDBRANCH   1   9
BRANCH   3  23
ATOM     23  S   UNL     1       1.745  -4.210   4.570  0.00  0.00    +0.074 S 
ATOM     24  O   UNL     1       2.794  -5.093   4.946  0.00  0.00    -0.150 OA
ATOM     25  O   UNL     1       1.975  -3.039   3.799  0.00  0.00    -0.150 OA
BRANCH  23  26
ATOM     26  N   UNL     1       1.016  -3.718   5.973  0.00  0.00    -0.206 N 
ATOM     27  C   UNL     1       1.171  -4.509   7.196  0.00  0.00    +0.157 C 
BRANCH  26  28
ATOM     28  C   UNL     1       0.252  -2.547   5.989  0.00  0.00    +0.051 A 
ATOM     29  C   UNL     1      -1.102  -2.604   6.293  0.00  0.00    +0.027 A 
ATOM     30  C   UNL     1      -1.855  -1.446   6.309  0.00  0.00    +0.040 A 
ATOM     31  C   UNL     1      -1.260  -0.229   6.023  0.00  0.00    +0.124 A 
ATOM     32  C   UNL     1       0.089  -0.169   5.720  0.00  0.00    +0.040 A 
ATOM     33  C   UNL     1       0.847  -1.324   5.708  0.00  0.00    +0.027 A 
ATOM     34  F   UNL     1      -1.999   0.903   6.040  0.00  0.00    -0.205 F 
ENDBRANCH  26  28
ENDBRANCH  23  26
ENDBRANCH   3  23
TORSDOF 8
