REMARK  Name = ZINC17206530
REMARK  7 active torsions:
REMARK  status: ('A' for Active; 'I' for Inactive)
REMARK    1  A    between atoms: C_4  and  C_7
REMARK    2  A    between atoms: C_9  and  C_27
REMARK    3  A    between atoms: C_10  and  C_21
REMARK    4  A    between atoms: C_12  and  C_13
REMARK    5  A    between atoms: N_29  and  N_30
REMARK    6  A    between atoms: C_31  and  C_32
REMARK    7  A    between atoms: C_37  and  N_38
REMARK                            x       y       z     vdW  Elec       q    Type
REMARK                         _______ _______ _______ _____ _____    ______ ____
ROOT
ATOM      1  C   UNL     1       3.887  -0.762   0.048  0.00  0.00    +0.044 C 
ATOM      2  C   UNL     1       3.845  -2.000  -0.864  0.00  0.00    +0.093 C 
ATOM      3  C   UNL     1       4.678  -2.721   0.208  0.00  0.00    +0.044 C 
ATOM      4  C   UNL     1       4.082  -1.731   1.226  0.00  0.00    +0.091 C 
ENDROOT
BRANCH   4   5
ATOM      5  C   UNL     1       5.075  -1.245   2.250  0.00  0.00    +0.220 C 
ATOM      6  O   UNL     1       5.632  -0.178   2.096  0.00  0.00    -0.275 OA
ATOM      7  N   UNL     1       5.345  -1.995   3.337  0.00  0.00    -0.297 N 
ATOM      8  C   UNL     1       4.686  -3.295   3.542  0.00  0.00    +0.136 C 
ATOM      9  C   UNL     1       5.766  -4.341   3.844  0.00  0.00    +0.179 C 
ATOM     10  O   UNL     1       6.591  -3.871   4.912  0.00  0.00    -0.377 OA
ATOM     11  C   UNL     1       7.307  -2.670   4.615  0.00  0.00    +0.179 C 
ATOM     12  C   UNL     1       6.311  -1.541   4.350  0.00  0.00    +0.136 C 
ENDBRANCH   4   5
BRANCH   1  16
ATOM     13  C   UNL     1       0.196   1.384   0.189  0.00  0.00    +0.000 A 
ATOM     14  C   UNL     1       1.395   2.071   0.170  0.00  0.00    +0.000 A 
ATOM     15  C   UNL     1       2.590   1.377   0.125  0.00  0.00    +0.004 A 
ATOM     16  C   UNL     1       2.585  -0.005   0.099  0.00  0.00    -0.043 A 
ATOM     17  C   UNL     1       1.386  -0.693   0.118  0.00  0.00    +0.004 A 
ATOM     18  C   UNL     1       0.192   0.002   0.162  0.00  0.00    +0.000 A 
ENDBRANCH   1  16
BRANCH   3  19
ATOM     19  C   UNL     1       4.261  -4.151   0.436  0.00  0.00    -0.043 A 
ATOM     20  C   UNL     1       2.920  -4.486   0.449  0.00  0.00    +0.004 A 
ATOM     21  C   UNL     1       2.536  -5.797   0.658  0.00  0.00    +0.000 A 
ATOM     22  C   UNL     1       3.494  -6.774   0.854  0.00  0.00    +0.000 A 
ATOM     23  C   UNL     1       4.836  -6.440   0.841  0.00  0.00    +0.000 A 
ATOM     24  C   UNL     1       5.219  -5.129   0.627  0.00  0.00    +0.004 A 
ENDBRANCH   3  19
BRANCH   2  25
ATOM     25  C   UNL     1       4.574  -1.812  -2.170  0.00  0.00    +0.236 C 
ATOM     26  O   UNL     1       5.121  -0.757  -2.413  0.00  0.00    -0.274 OA
ATOM     27  N   UNL     1       4.618  -2.817  -3.067  0.00  0.00    -0.207 N 
ATOM     28  H   UNL     1       4.181  -3.660  -2.873  0.00  0.00    +0.177 HD
BRANCH  27  29
ATOM     29  N   UNL     1       5.296  -2.642  -4.281  0.00  0.00    -0.188 NA
ATOM     30  C   UNL     1       5.339  -3.610  -5.145  0.00  0.00    +0.140 C 
BRANCH  30  31
ATOM     31  C   UNL     1       6.052  -3.426  -6.423  0.00  0.00    +0.025 A 
ATOM     32  C   UNL     1       6.578  -2.176  -6.760  0.00  0.00    +0.012 A 
ATOM     33  C   UNL     1       7.244  -2.012  -7.956  0.00  0.00    +0.001 A 
ATOM     34  C   UNL     1       7.391  -3.081  -8.822  0.00  0.00    +0.002 A 
ATOM     35  C   UNL     1       6.872  -4.322  -8.495  0.00  0.00    +0.033 A 
ATOM     36  C   UNL     1       6.210  -4.502  -7.299  0.00  0.00    +0.135 A 
BRANCH  36  37
ATOM     37  N   UNL     1       5.662  -5.832  -6.947  0.00  0.00    +0.057 N 
ATOM     38  O   UNL     1       5.892  -6.786  -7.653  0.00  0.00    -0.126 OA
ATOM     39  O   UNL     1       4.984  -5.963  -5.955  0.00  0.00    -0.126 OA
ENDBRANCH  36  37
ENDBRANCH  30  31
ENDBRANCH  27  29
ENDBRANCH   2  25
TORSDOF 7
