REMARK  Name = ZINC00975059
REMARK  13 active torsions:
REMARK  status: ('A' for Active; 'I' for Inactive)
REMARK    1  A    between atoms: C_1  and  C_2
REMARK    2  A    between atoms: C_2  and  O_3
REMARK    3  A    between atoms: O_3  and  C_4
REMARK    4  A    between atoms: C_4  and  C_6
REMARK    5  A    between atoms: C_8  and  C_23
REMARK    6  A    between atoms: C_10  and  C_18
REMARK    7  A    between atoms: C_12  and  C_16
REMARK    8  A    between atoms: C_12  and  O_17
REMARK    9  A    between atoms: C_18  and  O_20
REMARK   10  A    between atoms: O_20  and  C_21
REMARK   11  A    between atoms: C_21  and  C_22
REMARK   12  A    between atoms: C_26  and  O_30
REMARK   13  A    between atoms: O_30  and  C_31
REMARK                            x       y       z     vdW  Elec       q    Type
REMARK                         _______ _______ _______ _____ _____    ______ ____
ROOT
ATOM      1  C   UNL     1       1.304   2.244   0.002  0.00  0.00    +0.172 C 
ATOM      2  C   UNL     1       2.181   1.681   1.125  0.00  0.00    +0.056 C 
ATOM      3  C   UNL     1       2.302   0.165   0.964  0.00  0.00    +0.138 C 
ATOM      4  C   UNL     1       0.927  -0.485   1.125  0.00  0.00    +0.083 C 
ATOM      5  C   UNL     1       0.002  -0.004   0.002  0.00  0.00    +0.110 C 
ATOM      6  C   UNL     1      -0.018   1.508   0.010  0.00  0.00    +0.150 C 
ATOM      7  O   UNL     1      -1.063   2.114   0.019  0.00  0.00    -0.296 OA
ATOM      8  C   UNL     1       1.069  -2.006   1.052  0.00  0.00    +0.042 C 
ENDROOT
BRANCH   2   9
ATOM      9  C   UNL     1       3.551   2.305   1.053  0.00  0.00    -0.041 A 
ATOM     10  C   UNL     1       4.324   2.145  -0.082  0.00  0.00    +0.007 A 
ATOM     11  C   UNL     1       5.578   2.720  -0.153  0.00  0.00    +0.047 A 
ATOM     12  C   UNL     1       6.067   3.450   0.920  0.00  0.00    +0.134 A 
ATOM     13  C   UNL     1       5.292   3.605   2.061  0.00  0.00    +0.060 A 
ATOM     14  C   UNL     1       4.035   3.032   2.125  0.00  0.00    +0.023 A 
ATOM     15 BR   UNL     1       5.953   4.600   3.527  0.00  0.00    -0.047 Br
BRANCH  12  16
ATOM     16  O   UNL     1       7.303   4.011   0.856  0.00  0.00    -0.494 OA
ATOM     17  C   UNL     1       8.044   3.810  -0.349  0.00  0.00    +0.277 C 
ENDBRANCH  12  16
ENDBRANCH   2   9
BRANCH   1  18
ATOM     18  C   UNL     1       1.067   3.714   0.232  0.00  0.00    +0.318 C 
ATOM     19  O   UNL     1       1.563   4.263   1.187  0.00  0.00    -0.250 OA
BRANCH  18  20
ATOM     20  O   UNL     1       0.304   4.413  -0.623  0.00  0.00    -0.464 OA
BRANCH  20  22
ATOM     21  C   UNL     1      -0.773   6.449  -1.413  0.00  0.00    +0.048 C 
ATOM     22  C   UNL     1       0.119   5.825  -0.338  0.00  0.00    +0.229 C 
ENDBRANCH  20  22
ENDBRANCH  18  20
ENDBRANCH   1  18
BRANCH   4  23
ATOM     23  O   UNL     1       0.371  -0.118   2.390  0.00  0.00    -0.388 OA
ATOM     24  H   UNL     1      -0.503  -0.495   2.559  0.00  0.00    +0.210 HD
ENDBRANCH   4  23
BRANCH   3  25
ATOM     25  C   UNL     1       3.238  -0.377   2.014  0.00  0.00    +0.314 C 
ATOM     26  O   UNL     1       3.749   0.373   2.812  0.00  0.00    -0.250 OA
BRANCH  25  27
ATOM     27  O   UNL     1       3.503  -1.692   2.063  0.00  0.00    -0.465 OA
BRANCH  27  28
ATOM     28  C   UNL     1       4.414  -2.143   3.100  0.00  0.00    +0.229 C 
ATOM     29  C   UNL     1       4.593  -3.659   2.998  0.00  0.00    +0.048 C 
ENDBRANCH  27  28
ENDBRANCH  25  27
ENDBRANCH   3  25
TORSDOF 9
