REMARK  Name = ZINC16922683
REMARK  8 active torsions:
REMARK  status: ('A' for Active; 'I' for Inactive)
REMARK    1  A    between atoms: C_4  and  O_28
REMARK    2  A    between atoms: C_5  and  C_7
REMARK    3  A    between atoms: N_11  and  C_15
REMARK    4  A    between atoms: C_15  and  C_16
REMARK    5  A    between atoms: C_16  and  C_17
REMARK    6  A    between atoms: C_22  and  C_25
REMARK    7  A    between atoms: C_25  and  C_26
REMARK    8  A    between atoms: O_28  and  C_29
REMARK                            x       y       z     vdW  Elec       q    Type
REMARK                         _______ _______ _______ _____ _____    ______ ____
ROOT
ATOM      1  C   UNL     1      11.233  -0.400  -2.202  0.00  0.00    +0.031 C 
ATOM      2  C   UNL     1      10.425   0.039  -1.202  0.00  0.00    +0.077 C 
ATOM      3  C   UNL     1       9.067   0.612  -1.273  0.00  0.00    +0.258 C 
ATOM      4  O   UNL     1       8.489   0.759  -2.334  0.00  0.00    -0.269 OA
ATOM      5  N   UNL     1       8.509   0.958  -0.125  0.00  0.00    -0.255 N 
ATOM      6  C   UNL     1       9.154   0.798   1.048  0.00  0.00    +0.121 C 
ATOM      7  S   UNL     1       8.608   1.187   2.624  0.00  0.00    -0.027 S 
ATOM      8  S   UNL     1      10.715   0.081   0.561  0.00  0.00    -0.061 S 
ENDROOT
BRANCH   1  13
ATOM      9  C   UNL     1      14.535  -0.728  -0.460  0.00  0.00    +0.001 A 
ATOM     10  C   UNL     1      15.238  -1.514  -1.358  0.00  0.00    +0.004 A 
ATOM     11  C   UNL     1      14.644  -1.940  -2.530  0.00  0.00    +0.046 A 
ATOM     12  C   UNL     1      13.335  -1.587  -2.814  0.00  0.00    +0.134 A 
ATOM     13  C   UNL     1      12.619  -0.785  -1.910  0.00  0.00    +0.018 A 
ATOM     14  C   UNL     1      13.234  -0.361  -0.726  0.00  0.00    +0.011 A 
BRANCH  12  15
ATOM     15  O   UNL     1      12.748  -2.010  -3.963  0.00  0.00    -0.434 OA
BRANCH  15  16
ATOM     16  C   UNL     1      13.538  -2.822  -4.834  0.00  0.00    +0.541 C 
ATOM     17  F   UNL     1      14.675  -2.110  -5.232  0.00  0.00    -0.166 F 
ATOM     18  F   UNL     1      13.928  -3.985  -4.161  0.00  0.00    -0.166 F 
ENDBRANCH  15  16
ENDBRANCH  12  15
ENDBRANCH   1  13
BRANCH   5  19
ATOM     19  C   UNL     1       7.161   1.533  -0.128  0.00  0.00    +0.124 C 
BRANCH  19  20
ATOM     20  C   UNL     1       6.128   0.411  -0.005  0.00  0.00    +0.115 C 
BRANCH  20  21
ATOM     21  C   UNL     1       4.742   1.003  -0.009  0.00  0.00    +0.220 C 
ATOM     22  O   UNL     1       4.595   2.204  -0.100  0.00  0.00    -0.275 OA
ATOM     23  N   UNL     1       3.665   0.198   0.090  0.00  0.00    -0.265 N 
ATOM     24  C   UNL     1       2.387   0.744   0.087  0.00  0.00    +0.165 A 
ATOM     25  N   UNL     1       1.223   0.129   0.173  0.00  0.00    -0.229 NA
ATOM     26  C   UNL     1       0.091   0.804   0.154  0.00  0.00    +0.061 A 
ATOM     27  C   UNL     1       0.145   2.154   0.044  0.00  0.00    +0.072 A 
ATOM     28  S   UNL     1       1.912   2.410  -0.032  0.00  0.00    -0.060 S 
ATOM     29  H   UNL     1       3.783  -0.762   0.163  0.00  0.00    +0.157 HD
BRANCH  26  30
ATOM     30  C   UNL     1      -1.233   0.092   0.254  0.00  0.00    +0.181 C 
BRANCH  30  31
ATOM     31  C   UNL     1      -1.323  -0.954  -0.827  0.00  0.00    +0.362 C 
ATOM     32  O   UNL     1      -0.406  -1.106  -1.599  0.00  0.00    -0.246 OA
ATOM     33  O   UNL     1      -2.422  -1.718  -0.932  0.00  0.00    -0.246 OA
ENDBRANCH  30  31
ENDBRANCH  26  30
ENDBRANCH  20  21
ENDBRANCH  19  20
ENDBRANCH   5  19
TORSDOF 8
