REMARK  Name = ZINC61859512
REMARK  5 active torsions:
REMARK  status: ('A' for Active; 'I' for Inactive)
REMARK    1  A    between atoms: C_1  and  C_2
REMARK    2  A    between atoms: N_8  and  C_9
REMARK    3  A    between atoms: C_9  and  C_17
REMARK    4  A    between atoms: C_13  and  C_16
REMARK    5  A    between atoms: C_17  and  O_18
REMARK                            x       y       z     vdW  Elec       q    Type
REMARK                         _______ _______ _______ _____ _____    ______ ____
ROOT
ATOM      1  C   UNL     1      -0.210  -3.937   2.518  0.00  0.00    +0.058 C 
ATOM      2  C   UNL     1       0.947  -4.723   1.898  0.00  0.00    +0.028 C 
ATOM      3  C   UNL     1       2.269  -4.248   2.504  0.00  0.00    +0.002 C 
ATOM      4  C   UNL     1       2.249  -4.480   4.016  0.00  0.00    +0.003 C 
ATOM      5  C   UNL     1       1.092  -3.694   4.637  0.00  0.00    -0.012 C 
ATOM      6  C   UNL     1      -0.230  -4.168   4.031  0.00  0.00    +0.031 C 
ATOM      7  C   UNL     1       1.278  -2.202   4.351  0.00  0.00    +0.007 C 
ENDROOT
BRANCH   1  15
ATOM      8  C   UNL     1      -1.455   2.055   2.577  0.00  0.00    +0.066 C 
ATOM      9  C   UNL     1      -1.684   0.588   2.835  0.00  0.00    +0.043 A 
ATOM     10  C   UNL     1      -2.831   0.160   3.485  0.00  0.00    +0.043 A 
ATOM     11  C   UNL     1      -3.003  -1.198   3.702  0.00  0.00    +0.116 A 
ATOM     12  N   UNL     1      -2.072  -2.041   3.285  0.00  0.00    -0.223 NA
ATOM     13  C   UNL     1      -0.986  -1.599   2.667  0.00  0.00    +0.216 A 
ATOM     14  N   UNL     1      -0.794  -0.308   2.440  0.00  0.00    -0.220 NA
ATOM     15  N   UNL     1      -0.032  -2.509   2.245  0.00  0.00    -0.306 N 
ATOM     16  H   UNL     1       0.754  -2.200   1.768  0.00  0.00    +0.150 HD
ENDBRANCH   1  15
BRANCH   1  17
ATOM     17  C   UNL     1      -1.532  -4.411   1.912  0.00  0.00    +0.181 C 
BRANCH  17  18
ATOM     18  O   UNL     1      -1.567  -4.077   0.523  0.00  0.00    -0.393 OA
ATOM     19  H   UNL     1      -2.378  -4.349   0.073  0.00  0.00    +0.209 HD
ENDBRANCH  17  18
ENDBRANCH   1  17
TORSDOF 3
