REMARK  Name = ZINC03183979
REMARK  8 active torsions:
REMARK  status: ('A' for Active; 'I' for Inactive)
REMARK    1  A    between atoms: C_4  and  N_27
REMARK    2  A    between atoms: C_5  and  C_7
REMARK    3  A    between atoms: N_9  and  C_10
REMARK    4  A    between atoms: C_10  and  C_12
REMARK    5  A    between atoms: C_10  and  N_16
REMARK    6  A    between atoms: N_16  and  C_17
REMARK    7  A    between atoms: C_20  and  S_23
REMARK    8  A    between atoms: S_23  and  N_26
REMARK                            x       y       z     vdW  Elec       q    Type
REMARK                         _______ _______ _______ _____ _____    ______ ____
ROOT
ATOM      1  C   UNL     1       0.668   2.491   0.623  0.00  0.00    +0.210 C 
ENDROOT
BRANCH   1   4
ATOM      2  C   UNL     1      -1.554   1.758  -0.057  0.00  0.00    +0.248 C 
ATOM      3  O   UNL     1      -1.815   2.911  -0.341  0.00  0.00    -0.270 OA
ATOM      4  N   UNL     1      -0.340   1.444   0.436  0.00  0.00    -0.289 N 
ATOM      5  H   UNL     1      -0.131   0.524   0.663  0.00  0.00    +0.151 HD
BRANCH   2  10
ATOM      6  C   UNL     1      -3.867  -1.122   0.621  0.00  0.00    +0.001 A 
ATOM      7  C   UNL     1      -4.470  -1.280  -0.615  0.00  0.00    +0.002 A 
ATOM      8  C   UNL     1      -4.126  -0.453  -1.669  0.00  0.00    +0.033 A 
ATOM      9  C   UNL     1      -3.180   0.536  -1.495  0.00  0.00    +0.138 A 
ATOM     10  C   UNL     1      -2.569   0.701  -0.251  0.00  0.00    +0.067 A 
ATOM     11  C   UNL     1      -2.916  -0.140   0.808  0.00  0.00    +0.015 A 
BRANCH   9  12
ATOM     12  N   UNL     1      -2.813   1.420  -2.624  0.00  0.00    +0.057 N 
ATOM     13  O   UNL     1      -3.430   1.356  -3.672  0.00  0.00    -0.126 OA
ATOM     14  O   UNL     1      -1.895   2.211  -2.505  0.00  0.00    -0.126 OA
ENDBRANCH   9  12
ENDBRANCH   2  10
ENDBRANCH   1   4
BRANCH   1  15
ATOM     15  C   UNL     1       1.338   2.317   1.988  0.00  0.00    +0.225 C 
ATOM     16 CL   UNL     1       2.130   0.699   2.066  0.00  0.00    -0.080 Cl
ATOM     17 CL   UNL     1       2.578   3.605   2.218  0.00  0.00    -0.080 Cl
ATOM     18 CL   UNL     1       0.094   2.441   3.287  0.00  0.00    -0.080 Cl
ENDBRANCH   1  15
BRANCH   1  19
ATOM     19  N   UNL     1       1.679   2.390  -0.433  0.00  0.00    -0.323 N 
ATOM     20  H   UNL     1       2.342   1.683  -0.404  0.00  0.00    +0.148 HD
BRANCH  19  21
ATOM     21  C   UNL     1       1.687   3.312  -1.482  0.00  0.00    +0.029 A 
ATOM     22  C   UNL     1       2.564   3.148  -2.546  0.00  0.00    +0.025 A 
ATOM     23  C   UNL     1       2.567   4.059  -3.584  0.00  0.00    +0.030 A 
ATOM     24  C   UNL     1       1.705   5.140  -3.559  0.00  0.00    +0.105 A 
ATOM     25  C   UNL     1       0.834   5.310  -2.498  0.00  0.00    +0.030 A 
ATOM     26  C   UNL     1       0.823   4.400  -1.460  0.00  0.00    +0.025 A 
BRANCH  24  27
ATOM     27  S   UNL     1       1.716   6.304  -4.882  0.00  0.00    +0.056 S 
ATOM     28  O   UNL     1       2.238   5.625  -6.016  0.00  0.00    -0.153 OA
ATOM     29  O   UNL     1       0.438   6.924  -4.888  0.00  0.00    -0.153 OA
BRANCH  27  30
ATOM     30  N   UNL     1       2.812   7.482  -4.489  0.00  0.00    -0.204 NA
ATOM     31  H   UNL     1       3.299   7.431  -3.652  0.00  0.00    +0.144 HD
ATOM     32  H   UNL     1       2.966   8.222  -5.096  0.00  0.00    +0.144 HD
ENDBRANCH  27  30
ENDBRANCH  24  27
ENDBRANCH  19  21
ENDBRANCH   1  19
TORSDOF 8
