REMARK  Name = ZINC52907489
REMARK  11 active torsions:
REMARK  status: ('A' for Active; 'I' for Inactive)
REMARK    1  A    between atoms: C_1  and  C_2
REMARK    2  A    between atoms: C_2  and  N_3
REMARK    3  A    between atoms: C_4  and  N_27
REMARK    4  A    between atoms: C_5  and  C_12
REMARK    5  A    between atoms: C_12  and  C_14
REMARK    6  A    between atoms: C_14  and  N_15
REMARK    7  A    between atoms: N_15  and  C_16
REMARK    8  A    between atoms: N_15  and  C_17
REMARK    9  A    between atoms: C_17  and  C_19
REMARK   10  A    between atoms: C_17  and  C_20
REMARK   11  A    between atoms: C_23  and  C_26
REMARK                            x       y       z     vdW  Elec       q    Type
REMARK                         _______ _______ _______ _____ _____    ______ ____
ROOT
ATOM      1  C   UNL     1      -0.266  -1.345  -4.576  0.00  0.00    +0.155 C 
ATOM      2  O   UNL     1      -1.445  -1.053  -4.555  0.00  0.00    -0.294 OA
ENDROOT
BRANCH   1   5
ATOM      3  N   UNL     1       0.787  -0.489  -1.149  0.00  0.00    -0.282 N 
ATOM      4  C   UNL     1      -0.029  -0.686  -2.225  0.00  0.00    +0.116 A 
ATOM      5  C   UNL     1       0.535  -1.126  -3.435  0.00  0.00    +0.118 A 
ATOM      6  C   UNL     1       1.986  -1.352  -3.473  0.00  0.00    +0.266 A 
ATOM      7  O   UNL     1       2.529  -1.732  -4.494  0.00  0.00    -0.267 OA
ATOM      8  N   UNL     1       2.704  -1.127  -2.354  0.00  0.00    -0.274 N 
ATOM      9  H   UNL     1       3.664  -1.272  -2.364  0.00  0.00    +0.173 HD
ATOM     10  C   UNL     1       2.110  -0.702  -1.228  0.00  0.00    +0.331 A 
ATOM     11  O   UNL     1       2.794  -0.507  -0.242  0.00  0.00    -0.246 OA
BRANCH   4  12
ATOM     12  N   UNL     1      -1.368  -0.461  -2.129  0.00  0.00    -0.344 N 
ATOM     13  H   UNL     1      -1.761  -0.234  -1.272  0.00  0.00    +0.144 HD
ATOM     14  H   UNL     1      -1.929  -0.527  -2.917  0.00  0.00    +0.144 HD
ENDBRANCH   4  12
BRANCH   3  16
ATOM     15  C   UNL     1       0.203   1.500   0.150  0.00  0.00    +0.027 C 
ATOM     16  C   UNL     1       0.208  -0.030   0.117  0.00  0.00    +0.125 C 
ENDBRANCH   3  16
ENDBRANCH   1   5
BRANCH   1  17
ATOM     17  C   UNL     1       0.341  -1.942  -5.820  0.00  0.00    +0.003 C 
BRANCH  17  18
ATOM     18  N   UNL     1      -0.692  -2.067  -6.857  0.00  0.00    +0.387 N 
ATOM     19  C   UNL     1      -1.710  -3.032  -6.420  0.00  0.00    -0.095 C 
ATOM     20  H   UNL     1      -1.125  -1.169  -7.011  0.00  0.00    -0.081 HD
BRANCH  18  21
ATOM     21  C   UNL     1      -0.078  -2.535  -8.106  0.00  0.00    -0.041 C 
ATOM     22  C   UNL     1       0.983  -1.530  -8.561  0.00  0.00    -0.008 C 
BRANCH  21  23
ATOM     23  C   UNL     1      -1.137  -2.664  -9.170  0.00  0.00    -0.061 A 
ATOM     24  C   UNL     1      -2.130  -1.708  -9.275  0.00  0.00    +0.002 A 
ATOM     25  C   UNL     1      -3.102  -1.826 -10.251  0.00  0.00    +0.003 A 
ATOM     26  C   UNL     1      -3.081  -2.900 -11.122  0.00  0.00    -0.050 A 
ATOM     27  C   UNL     1      -2.087  -3.855 -11.017  0.00  0.00    +0.003 A 
ATOM     28  C   UNL     1      -1.113  -3.735 -10.044  0.00  0.00    +0.002 A 
ATOM     29  C   UNL     1      -4.141  -3.029 -12.185  0.00  0.00    +0.044 C 
ENDBRANCH  21  23
ENDBRANCH  18  21
ENDBRANCH  17  18
ENDBRANCH   1  17
TORSDOF 7
