REMARK  Name = ZINC20479315
REMARK  6 active torsions:
REMARK  status: ('A' for Active; 'I' for Inactive)
REMARK    1  A    between atoms: C_1  and  C_2
REMARK    2  A    between atoms: C_5  and  N_9
REMARK    3  A    between atoms: C_10  and  C_34
REMARK    4  A    between atoms: C_12  and  C_15
REMARK    5  A    between atoms: C_13  and  C_14
REMARK    6  A    between atoms: C_25  and  C_27
REMARK                            x       y       z     vdW  Elec       q    Type
REMARK                         _______ _______ _______ _____ _____    ______ ____
ROOT
ATOM      1  C   UNL     1       1.473  -7.391   0.625  0.00  0.00    +0.026 C 
ATOM      2  C   UNL     1       1.298  -8.587  -0.042  0.00  0.00    +0.079 C 
ATOM      3  C   UNL     1       0.386  -8.706  -1.213  0.00  0.00    +0.132 C 
ATOM      4  N   UNL     1       0.184  -7.737  -2.067  0.00  0.00    -0.385 N 
ATOM      5  N   UNL     1      -0.239  -9.967  -1.310  0.00  0.00    -0.153 N 
ATOM      6  C   UNL     1       0.382 -11.034  -0.697  0.00  0.00    +0.181 C 
ATOM      7  N   UNL     1       1.451 -11.008   0.059  0.00  0.00    -0.152 NA
ATOM      8  C   UNL     1       2.014  -9.819   0.364  0.00  0.00    +0.273 C 
ATOM      9  O   UNL     1       3.078  -9.761   0.960  0.00  0.00    -0.268 OA
ATOM     10  S   UNL     1      -0.646 -12.396  -1.181  0.00  0.00    -0.033 S 
ATOM     11  C   UNL     1      -1.877 -11.456  -2.073  0.00  0.00    +0.133 C 
ATOM     12  N   UNL     1      -1.417 -10.232  -1.976  0.00  0.00    -0.164 NA
ATOM     13  H   UNL     1       0.702  -6.919  -2.004  0.00  0.00    +0.157 HD
ATOM     14  H   UNL     1      -0.484  -7.835  -2.764  0.00  0.00    +0.157 HD
ENDROOT
BRANCH   1  18
ATOM     15  N   UNL     1      -0.121  -4.220   0.081  0.00  0.00    -0.317 N 
ATOM     16  C   UNL     1      -1.125  -5.048  -0.339  0.00  0.00    +0.022 A 
ATOM     17  C   UNL     1      -0.727  -6.324  -0.216  0.00  0.00    +0.031 A 
ATOM     18  C   UNL     1       0.639  -6.284   0.326  0.00  0.00    -0.003 A 
ATOM     19  C   UNL     1       0.947  -4.942   0.478  0.00  0.00    +0.028 A 
ATOM     20  C   UNL     1       2.247  -4.386   0.999  0.00  0.00    +0.064 C 
ATOM     21  C   UNL     1      -2.467  -4.598  -0.857  0.00  0.00    +0.064 C 
BRANCH  15  26
ATOM     22  C   UNL     1      -0.397   1.449   0.122  0.00  0.00    +0.045 C 
ATOM     23  C   UNL     1      -0.324  -0.056   0.111  0.00  0.00    -0.032 A 
ATOM     24  C   UNL     1      -0.367  -0.741  -1.089  0.00  0.00    +0.007 A 
ATOM     25  C   UNL     1      -0.300  -2.120  -1.102  0.00  0.00    +0.026 A 
ATOM     26  C   UNL     1      -0.189  -2.821   0.092  0.00  0.00    +0.048 A 
ATOM     27  C   UNL     1      -0.145  -2.131   1.296  0.00  0.00    +0.046 A 
ATOM     28  C   UNL     1      -0.208  -0.750   1.303  0.00  0.00    +0.046 A 
ATOM     29 CL   UNL     1      -0.147   0.113   2.807  0.00  0.00    -0.083 Cl
ENDBRANCH  15  26
ENDBRANCH   1  18
BRANCH  11  30
ATOM     30  C   UNL     1      -3.103 -11.937  -2.747  0.00  0.00    +0.044 A 
ATOM     31  C   UNL     1      -3.426 -13.294  -2.731  0.00  0.00    +0.013 A 
ATOM     32  C   UNL     1      -4.570 -13.736  -3.361  0.00  0.00    +0.001 A 
ATOM     33  C   UNL     1      -5.399 -12.837  -4.009  0.00  0.00    +0.003 A 
ATOM     34  C   UNL     1      -5.088 -11.490  -4.030  0.00  0.00    +0.039 A 
ATOM     35  C   UNL     1      -3.947 -11.033  -3.397  0.00  0.00    +0.133 A 
ATOM     36  F   UNL     1      -3.645  -9.716  -3.413  0.00  0.00    -0.205 F 
ENDBRANCH  11  30
TORSDOF 3
