REMARK  Name = ZINC36354883
REMARK  4 active torsions:
REMARK  status: ('A' for Active; 'I' for Inactive)
REMARK    1  A    between atoms: C_5  and  C_7
REMARK    2  A    between atoms: C_11  and  C_12
REMARK    3  A    between atoms: N_26  and  C_29
REMARK    4  A    between atoms: C_29  and  C_30
REMARK                            x       y       z     vdW  Elec       q    Type
REMARK                         _______ _______ _______ _____ _____    ______ ____
ROOT
ATOM      1  C   UNL     1       1.248  -2.162  -0.022  0.00  0.00    +0.026 A 
ATOM      2  C   UNL     1       1.268  -2.908   1.155  0.00  0.00    +0.054 A 
ATOM      3  C   UNL     1       1.295  -4.272   1.023  0.00  0.00    +0.032 A 
ATOM      4  S   UNL     1       1.288  -4.577  -0.613  0.00  0.00    -0.083 S 
ATOM      5  C   UNL     1       1.249  -2.898  -1.214  0.00  0.00    +0.110 A 
ATOM      6  C   UNL     1       1.327  -5.233   2.169  0.00  0.00    +0.115 C 
ATOM      7  C   UNL     1       2.008  -4.566   3.364  0.00  0.00    +0.122 C 
ATOM      8  C   UNL     1       1.550  -3.143   3.513  0.00  0.00    +0.219 C 
ATOM      9  O   UNL     1       1.438  -2.686   4.631  0.00  0.00    -0.275 OA
ATOM     10  N   UNL     1       1.260  -2.351   2.466  0.00  0.00    -0.284 N 
ATOM     11  C   UNL     1      -0.045  -5.707   2.530  0.00  0.00    -0.006 A 
ATOM     12  C   UNL     1      -1.165  -5.027   2.957  0.00  0.00    +0.007 A 
ATOM     13  C   UNL     1      -2.304  -5.783   3.214  0.00  0.00    +0.000 A 
ATOM     14  C   UNL     1      -2.309  -7.153   3.048  0.00  0.00    +0.002 A 
ATOM     15  C   UNL     1      -1.187  -7.844   2.619  0.00  0.00    +0.024 A 
ATOM     16  C   UNL     1      -0.037  -7.097   2.357  0.00  0.00    +0.041 A 
ATOM     17  N   UNL     1       1.207  -7.520   1.925  0.00  0.00    -0.261 N 
ATOM     18  C   UNL     1       2.071  -6.494   1.786  0.00  0.00    +0.236 C 
ATOM     19  O   UNL     1       3.227  -6.567   1.423  0.00  0.00    -0.274 OA
ATOM     20  H   UNL     1       1.048  -1.414   2.602  0.00  0.00    +0.155 HD
ENDROOT
BRANCH   1  25
ATOM     21  C   UNL     1      -0.017   1.375   0.010  0.00  0.00    +0.001 A 
ATOM     22  C   UNL     1       1.170   2.087   0.002  0.00  0.00    +0.001 A 
ATOM     23  C   UNL     1       2.382   1.421  -0.013  0.00  0.00    +0.020 A 
ATOM     24  C   UNL     1       2.415   0.041  -0.021  0.00  0.00    +0.049 A 
ATOM     25  C   UNL     1       1.221  -0.682  -0.013  0.00  0.00    +0.004 A 
ATOM     26  C   UNL     1       0.002  -0.004   0.002  0.00  0.00    +0.010 A 
ATOM     27 CL   UNL     1       3.938  -0.793  -0.042  0.00  0.00    -0.083 Cl
ENDBRANCH   1  25
BRANCH   5  28
ATOM     28  C   UNL     1       1.227  -2.431  -2.548  0.00  0.00    +0.394 C 
ATOM     29  O   UNL     1       1.203  -1.226  -2.775  0.00  0.00    -0.240 OA
ATOM     30  O   UNL     1       1.232  -3.229  -3.477  0.00  0.00    -0.240 OA
ENDBRANCH   5  28
BRANCH  17  31
ATOM     31  C   UNL     1       1.546  -8.919   1.649  0.00  0.00    +0.209 C 
BRANCH  31  32
ATOM     32  C   UNL     1       1.248  -9.233   0.206  0.00  0.00    +0.228 C 
ATOM     33  O   UNL     1       0.798  -8.373  -0.522  0.00  0.00    -0.274 OA
ATOM     34  N   UNL     1       1.483 -10.469  -0.277  0.00  0.00    -0.328 N 
ATOM     35  H   UNL     1       1.843 -11.157   0.305  0.00  0.00    +0.145 HD
ATOM     36  H   UNL     1       1.292 -10.671  -1.206  0.00  0.00    +0.145 HD
ENDBRANCH  31  32
ENDBRANCH  17  31
TORSDOF 4
