REMARK  Name = ZINC30619622
REMARK  9 active torsions:
REMARK  status: ('A' for Active; 'I' for Inactive)
REMARK    1  A    between atoms: C_1  and  C_2
REMARK    2  A    between atoms: C_8  and  C_16
REMARK    3  A    between atoms: C_16  and  O_18
REMARK    4  A    between atoms: O_18  and  C_19
REMARK    5  A    between atoms: C_19  and  C_20
REMARK    6  A    between atoms: C_23  and  C_25
REMARK    7  A    between atoms: C_25  and  C_26
REMARK    8  A    between atoms: N_28  and  C_29
REMARK    9  A    between atoms: C_34  and  C_35
REMARK                            x       y       z     vdW  Elec       q    Type
REMARK                         _______ _______ _______ _____ _____    ______ ____
ROOT
ATOM      1  O   UNL     1       0.122   7.933   1.627  0.00  0.00    -0.455 OA
ENDROOT
BRANCH   1   2
ATOM      2  C   UNL     1      -0.062   8.873   2.574  0.00  0.00    +0.341 C 
ATOM      3  O   UNL     1       0.002   8.572   3.749  0.00  0.00    -0.245 OA
BRANCH   2  11
ATOM      4  C   UNL     1      -5.207   9.410   2.135  0.00  0.00    +0.044 C 
ATOM      5  C   UNL     1      -4.029  10.334   1.958  0.00  0.00    -0.050 A 
ATOM      6  C   UNL     1      -4.245  11.662   1.595  0.00  0.00    +0.005 A 
ATOM      7  C   UNL     1      -3.204  12.525   1.437  0.00  0.00    +0.028 A 
ATOM      8  C   UNL     1      -1.886  12.070   1.625  0.00  0.00    +0.072 A 
ATOM      9  C   UNL     1      -1.672  10.717   1.989  0.00  0.00    +0.015 A 
ATOM     10  C   UNL     1      -2.767   9.860   2.154  0.00  0.00    +0.014 A 
ATOM     11  C   UNL     1      -0.343  10.270   2.183  0.00  0.00    +0.073 A 
ATOM     12  C   UNL     1       0.696  11.181   1.990  0.00  0.00    -0.012 A 
ATOM     13  C   UNL     1       0.403  12.488   1.624  0.00  0.00    +0.046 A 
ATOM     14  N   UNL     1      -0.845  12.884   1.460  0.00  0.00    -0.251 NA
ATOM     15  C   UNL     1       1.484  13.515   1.393  0.00  0.00    +0.056 C 
ATOM     16  C   UNL     1       2.798  13.065   2.027  0.00  0.00    +0.006 C 
ATOM     17  C   UNL     1       3.106  11.642   1.548  0.00  0.00    +0.005 C 
ATOM     18  C   UNL     1       2.104  10.689   2.197  0.00  0.00    +0.038 C 
ENDBRANCH   2  11
ENDBRANCH   1   2
BRANCH   1  19
ATOM     19  C   UNL     1       0.394   6.581   2.083  0.00  0.00    +0.288 C 
BRANCH  19  20
ATOM     20  C   UNL     1       0.571   5.675   0.893  0.00  0.00    +0.086 A 
ATOM     21  C   UNL     1       0.470   6.159  -0.371  0.00  0.00    +0.073 A 
ATOM     22  S   UNL     1       0.763   4.672  -1.317  0.00  0.00    -0.080 S 
ATOM     23  C   UNL     1       0.984   3.592   0.025  0.00  0.00    +0.087 A 
ATOM     24  N   UNL     1       0.822   4.392   1.053  0.00  0.00    -0.245 NA
BRANCH  23  25
ATOM     25  C   UNL     1       1.279   2.114   0.012  0.00  0.00    +0.159 C 
BRANCH  25  26
ATOM     26  C   UNL     1      -0.016   1.343   0.012  0.00  0.00    +0.224 C 
ATOM     27  O   UNL     1      -1.074   1.936   0.017  0.00  0.00    -0.275 OA
ATOM     28  N   UNL     1       0.002  -0.004   0.002  0.00  0.00    -0.285 N 
ATOM     29  H   UNL     1       0.957  -0.541  -0.095  0.00  0.00    +0.155 HD
BRANCH  28  30
ATOM     30  C   UNL     1      -1.194  -0.721   0.115  0.00  0.00    +0.036 A 
ATOM     31  C   UNL     1      -2.295  -0.143   0.735  0.00  0.00    +0.023 A 
ATOM     32  C   UNL     1      -3.476  -0.851   0.840  0.00  0.00    +0.002 A 
ATOM     33  C   UNL     1      -3.560  -2.138   0.339  0.00  0.00    +0.000 A 
ATOM     34  C   UNL     1      -2.465  -2.717  -0.273  0.00  0.00    +0.005 A 
ATOM     35  C   UNL     1      -1.282  -2.012  -0.387  0.00  0.00    -0.029 A 
ATOM     36  C   UNL     1      -0.088  -2.645  -1.054  0.00  0.00    +0.045 C 
ENDBRANCH  28  30
ENDBRANCH  25  26
ENDBRANCH  23  25
ENDBRANCH  19  20
ENDBRANCH   1  19
TORSDOF 7
