REMARK  Name = ZINC40043428
REMARK  9 active torsions:
REMARK  status: ('A' for Active; 'I' for Inactive)
REMARK    1  A    between atoms: C_1  and  C_2
REMARK    2  A    between atoms: C_2  and  O_3
REMARK    3  A    between atoms: O_3  and  C_4
REMARK    4  A    between atoms: C_6  and  C_11
REMARK    5  A    between atoms: C_9  and  O_10
REMARK    6  A    between atoms: C_18  and  C_38
REMARK    7  A    between atoms: C_20  and  C_37
REMARK    8  A    between atoms: N_26  and  C_27
REMARK    9  A    between atoms: C_27  and  C_28
REMARK                            x       y       z     vdW  Elec       q    Type
REMARK                         _______ _______ _______ _____ _____    ______ ____
ROOT
ATOM      1  C   UNL     1      -0.217  -4.963  -0.535  0.00  0.00    +0.145 C 
ATOM      2  C   UNL     1       0.860  -5.496  -1.422  0.00  0.00    +0.072 A 
ATOM      3  C   UNL     1       1.796  -4.814  -2.323  0.00  0.00    +0.199 A 
ATOM      4  O   UNL     1       1.937  -3.604  -2.347  0.00  0.00    -0.287 OA
ATOM      5  C   UNL     1       2.555  -5.739  -3.201  0.00  0.00    +0.065 A 
ATOM      6  C   UNL     1       3.335  -5.241  -4.245  0.00  0.00    +0.018 A 
ATOM      7  C   UNL     1       4.024  -6.106  -5.048  0.00  0.00    -0.049 A 
ATOM      8  C   UNL     1       3.950  -7.474  -4.828  0.00  0.00    +0.010 A 
ATOM      9  C   UNL     1       3.187  -7.983  -3.801  0.00  0.00    -0.007 A 
ATOM     10  C   UNL     1       2.476  -7.121  -2.966  0.00  0.00    +0.142 A 
ATOM     11  O   UNL     1       1.741  -7.642  -1.957  0.00  0.00    -0.449 OA
ATOM     12  C   UNL     1       0.874  -6.855  -1.289  0.00  0.00    +0.199 A 
ATOM     13  C   UNL     1      -0.180  -7.237  -0.333  0.00  0.00    +0.283 C 
ATOM     14  O   UNL     1      -0.433  -8.377   0.005  0.00  0.00    -0.267 OA
ATOM     15  N   UNL     1      -0.823  -6.137   0.114  0.00  0.00    -0.279 N 
ATOM     16  C   UNL     1       3.119  -9.472  -3.580  0.00  0.00    +0.047 C 
ATOM     17  C   UNL     1       4.868  -5.572  -6.178  0.00  0.00    +0.044 C 
ENDROOT
BRANCH   1  20
ATOM     18  C   UNL     1       0.802  -1.825   1.306  0.00  0.00    +0.162 A 
ATOM     19  C   UNL     1       0.261  -2.673   0.353  0.00  0.00    +0.055 A 
ATOM     20  C   UNL     1       0.372  -4.043   0.502  0.00  0.00    -0.019 A 
ATOM     21  C   UNL     1       1.024  -4.570   1.602  0.00  0.00    +0.009 A 
ATOM     22  C   UNL     1       1.566  -3.730   2.557  0.00  0.00    +0.049 A 
ATOM     23  C   UNL     1       1.462  -2.356   2.410  0.00  0.00    +0.158 A 
BRANCH  23  24
ATOM     24  O   UNL     1       2.000  -1.528   3.345  0.00  0.00    -0.503 OA
ATOM     25  H   UNL     1       1.395  -1.301   4.064  0.00  0.00    +0.292 HD
ENDBRANCH  23  24
BRANCH  18  26
ATOM     26  O   UNL     1       0.693  -0.477   1.160  0.00  0.00    -0.489 OA
BRANCH  26  28
ATOM     27  C   UNL     1      -0.019   1.526   0.010  0.00  0.00    +0.048 C 
ATOM     28  C   UNL     1       0.002  -0.004   0.002  0.00  0.00    +0.226 C 
ENDBRANCH  26  28
ENDBRANCH  18  26
ENDBRANCH   1  20
BRANCH  15  29
ATOM     29  C   UNL     1      -1.929  -6.115   1.074  0.00  0.00    +0.144 C 
BRANCH  29  30
ATOM     30  C   UNL     1      -3.238  -6.217   0.336  0.00  0.00    -0.026 A 
ATOM     31  C   UNL     1      -3.882  -5.070  -0.089  0.00  0.00    +0.009 A 
ATOM     32  C   UNL     1      -5.083  -5.158  -0.768  0.00  0.00    +0.050 A 
ATOM     33  C   UNL     1      -5.645  -6.399  -1.023  0.00  0.00    +0.166 A 
ATOM     34  C   UNL     1      -4.997  -7.554  -0.595  0.00  0.00    +0.167 A 
ATOM     35  C   UNL     1      -3.791  -7.458   0.079  0.00  0.00    +0.054 A 
ATOM     36  O   UNL     1      -5.744  -8.636  -0.964  0.00  0.00    -0.453 OA
ATOM     37  C   UNL     1      -7.054  -8.115  -1.260  0.00  0.00    +0.466 C 
ATOM     38  O   UNL     1      -6.799  -6.755  -1.660  0.00  0.00    -0.453 OA
ENDBRANCH  29  30
ENDBRANCH  15  29
TORSDOF 6
