REMARK  Name = ZINC16804321
REMARK  7 active torsions:
REMARK  status: ('A' for Active; 'I' for Inactive)
REMARK    1  A    between atoms: C_4  and  C_7
REMARK    2  A    between atoms: C_8  and  C_29
REMARK    3  A    between atoms: C_10  and  S_12
REMARK    4  A    between atoms: S_12  and  C_13
REMARK    5  A    between atoms: C_13  and  C_14
REMARK    6  A    between atoms: C_23  and  S_25
REMARK    7  A    between atoms: S_25  and  N_28
REMARK                            x       y       z     vdW  Elec       q    Type
REMARK                         _______ _______ _______ _____ _____    ______ ____
ROOT
ATOM      1  S   UNL     1       4.328   7.083  -0.189  0.00  0.00    -0.058 S 
ENDROOT
BRANCH   1   5
ATOM      2  C   UNL     1       7.939   8.454   0.135  0.00  0.00    +0.118 A 
ATOM      3  C   UNL     1       8.218   7.120  -0.070  0.00  0.00    +0.164 A 
ATOM      4  O   UNL     1       7.028   6.489  -0.200  0.00  0.00    -0.430 OA
ATOM      5  C   UNL     1       6.056   7.409  -0.087  0.00  0.00    +0.258 A 
ATOM      6  N   UNL     1       6.595   8.586   0.117  0.00  0.00    -0.203 NA
BRANCH   2  10
ATOM      7  C   UNL     1      10.773  11.568   0.715  0.00  0.00    +0.000 A 
ATOM      8  C   UNL     1       9.673  11.780  -0.097  0.00  0.00    +0.001 A 
ATOM      9  C   UNL     1       8.749  10.773  -0.289  0.00  0.00    +0.010 A 
ATOM     10  C   UNL     1       8.927   9.539   0.337  0.00  0.00    +0.004 A 
ATOM     11  C   UNL     1      10.036   9.333   1.157  0.00  0.00    +0.010 A 
ATOM     12  C   UNL     1      10.955  10.346   1.337  0.00  0.00    +0.001 A 
ENDBRANCH   2  10
BRANCH   3  13
ATOM     13  C   UNL     1       9.555   6.500  -0.131  0.00  0.00    +0.020 A 
ATOM     14  C   UNL     1      10.558   7.069  -0.921  0.00  0.00    +0.011 A 
ATOM     15  C   UNL     1      11.807   6.486  -0.969  0.00  0.00    +0.001 A 
ATOM     16  C   UNL     1      12.065   5.334  -0.246  0.00  0.00    +0.000 A 
ATOM     17  C   UNL     1      11.075   4.762   0.535  0.00  0.00    +0.001 A 
ATOM     18  C   UNL     1       9.823   5.337   0.597  0.00  0.00    +0.011 A 
ENDBRANCH   3  13
ENDBRANCH   1   5
BRANCH   1  19
ATOM     19  C   UNL     1       4.361   5.296  -0.473  0.00  0.00    +0.175 C 
BRANCH  19  20
ATOM     20  C   UNL     1       2.950   4.780  -0.597  0.00  0.00    +0.230 C 
ATOM     21  O   UNL     1       2.015   5.546  -0.501  0.00  0.00    -0.274 OA
ATOM     22  N   UNL     1       2.729   3.469  -0.813  0.00  0.00    -0.270 N 
ATOM     23  C   UNL     1       3.774   2.450  -0.945  0.00  0.00    +0.118 C 
ATOM     24  C   UNL     1       3.024   1.129  -1.178  0.00  0.00    +0.056 C 
ATOM     25  C   UNL     1       1.561   1.514  -1.159  0.00  0.00    -0.023 A 
ATOM     26  C   UNL     1       1.467   2.880  -0.944  0.00  0.00    +0.040 A 
ATOM     27  C   UNL     1       0.204   3.471  -0.885  0.00  0.00    +0.026 A 
ATOM     28  C   UNL     1      -0.931   2.704  -1.040  0.00  0.00    +0.030 A 
ATOM     29  C   UNL     1      -0.826   1.343  -1.260  0.00  0.00    +0.105 A 
ATOM     30  C   UNL     1       0.421   0.749  -1.313  0.00  0.00    +0.034 A 
BRANCH  29  31
ATOM     31  S   UNL     1      -2.279   0.367  -1.466  0.00  0.00    +0.056 S 
ATOM     32  O   UNL     1      -3.299   1.247  -1.917  0.00  0.00    -0.153 OA
ATOM     33  O   UNL     1      -1.891  -0.789  -2.196  0.00  0.00    -0.153 OA
BRANCH  31  34
ATOM     34  N   UNL     1      -2.735  -0.154   0.038  0.00  0.00    -0.204 NA
ATOM     35  H   UNL     1      -3.672  -0.315   0.233  0.00  0.00    +0.144 HD
ATOM     36  H   UNL     1      -2.066  -0.300   0.725  0.00  0.00    +0.144 HD
ENDBRANCH  31  34
ENDBRANCH  29  31
ENDBRANCH  19  20
ENDBRANCH   1  19
TORSDOF 7
