REMARK  Name = ZINC04268180
REMARK  16 active torsions:
REMARK  status: ('A' for Active; 'I' for Inactive)
REMARK    1  A    between atoms: C_1  and  C_2
REMARK    2  A    between atoms: C_2  and  O_4
REMARK    3  A    between atoms: O_4  and  C_5
REMARK    4  A    between atoms: C_9  and  C_43
REMARK    5  A    between atoms: C_9  and  C_44
REMARK    6  A    between atoms: C_12  and  C_42
REMARK    7  A    between atoms: C_15  and  O_38
REMARK    8  A    between atoms: C_18  and  O_37
REMARK    9  A    between atoms: C_19  and  O_33
REMARK   10  A    between atoms: C_22  and  O_25
REMARK   11  A    between atoms: O_25  and  C_26
REMARK   12  A    between atoms: C_26  and  C_28
REMARK   13  A    between atoms: O_33  and  C_34
REMARK   14  A    between atoms: C_34  and  C_36
REMARK   15  A    between atoms: O_38  and  C_39
REMARK   16  A    between atoms: C_39  and  C_41
REMARK                            x       y       z     vdW  Elec       q    Type
REMARK                         _______ _______ _______ _____ _____    ______ ____
ROOT
ATOM      1  C   UNL     1      -0.539   1.045   2.090  0.00  0.00    +0.183 C 
ATOM      2  C   UNL     1       0.969   1.248   2.257  0.00  0.00    +0.046 C 
ATOM      3  C   UNL     1       1.218   2.691   2.682  0.00  0.00    +0.010 C 
ATOM      4  C   UNL     1       0.725   3.667   1.618  0.00  0.00    -0.031 C 
ATOM      5  C   UNL     1      -0.722   3.421   1.215  0.00  0.00    +0.008 C 
ATOM      6  C   UNL     1      -1.089   1.960   1.005  0.00  0.00    +0.016 C 
ATOM      7  C   UNL     1      -2.578   1.711   0.789  0.00  0.00    +0.060 C 
ATOM      8  C   UNL     1      -2.955   0.245   1.040  0.00  0.00    +0.184 C 
ATOM      9  C   UNL     1      -4.430   0.026   0.681  0.00  0.00    +0.088 C 
ATOM     10  C   UNL     1      -5.315   1.033   1.426  0.00  0.00    +0.135 C 
ATOM     11  C   UNL     1      -4.932   2.454   0.922  0.00  0.00    +0.230 C 
ATOM     12  C   UNL     1      -3.530   2.587   1.583  0.00  0.00    +0.117 C 
ATOM     13  C   UNL     1      -3.105   4.036   1.621  0.00  0.00    +0.194 C 
ATOM     14  C   UNL     1      -1.678   4.116   2.182  0.00  0.00    +0.050 C 
ATOM     15  C   UNL     1      -3.773   2.045   2.974  0.00  0.00    +0.175 C 
ATOM     16  O   UNL     1      -3.217   2.383   3.999  0.00  0.00    -0.291 OA
ATOM     17  C   UNL     1      -4.861   1.057   2.879  0.00  0.00    +0.024 C 
ATOM     18  C   UNL     1      -5.358   0.325   3.877  0.00  0.00    +0.019 C 
ATOM     19  C   UNL     1      -0.437   1.518  -0.339  0.00  0.00    +0.015 C 
ATOM     20  C   UNL     1       0.892   5.088   2.199  0.00  0.00    +0.011 C 
ATOM     21  C   UNL     1       1.664   3.612   0.402  0.00  0.00    +0.011 C 
ENDROOT
BRANCH  10  22
ATOM     22  O   UNL     1      -6.710   0.755   1.289  0.00  0.00    -0.380 OA
ATOM     23  H   UNL     1      -6.975  -0.108   1.635  0.00  0.00    +0.211 HD
ENDBRANCH  10  22
BRANCH   1  24
ATOM     24  O   UNL     1      -1.181   1.294   3.365  0.00  0.00    -0.461 OA
BRANCH  24  26
ATOM     25  C   UNL     1      -1.944   0.437   5.552  0.00  0.00    +0.136 C 
ATOM     26  C   UNL     1      -1.288   0.254   4.207  0.00  0.00    +0.304 C 
ATOM     27  O   UNL     1      -0.859  -0.829   3.887  0.00  0.00    -0.251 OA
ENDBRANCH  24  26
ENDBRANCH   1  24
BRANCH  13  28
ATOM     28  O   UNL     1      -3.134   4.598   0.287  0.00  0.00    -0.460 OA
BRANCH  28  29
ATOM     29  C   UNL     1      -3.387   5.912   0.185  0.00  0.00    +0.304 C 
ATOM     30  O   UNL     1      -3.578   6.570   1.181  0.00  0.00    -0.251 OA
ATOM     31  C   UNL     1      -3.433   6.568  -1.171  0.00  0.00    +0.136 C 
ENDBRANCH  28  29
ENDBRANCH  13  28
BRANCH  11  32
ATOM     32  O   UNL     1      -4.867   2.517  -0.523  0.00  0.00    -0.457 OA
BRANCH  32  33
ATOM     33  C   UNL     1      -5.934   3.023  -1.159  0.00  0.00    +0.304 C 
ATOM     34  O   UNL     1      -6.892   3.401  -0.527  0.00  0.00    -0.251 OA
ATOM     35  C   UNL     1      -5.938   3.120  -2.663  0.00  0.00    +0.136 C 
ENDBRANCH  32  33
ENDBRANCH  11  32
BRANCH   8  36
ATOM     36  O   UNL     1      -2.167  -0.645   0.207  0.00  0.00    -0.461 OA
BRANCH  36  37
ATOM     37  C   UNL     1      -1.913  -1.870   0.694  0.00  0.00    +0.304 C 
ATOM     38  O   UNL     1      -2.335  -2.187   1.780  0.00  0.00    -0.251 OA
ATOM     39  C   UNL     1      -1.101  -2.849  -0.115  0.00  0.00    +0.136 C 
ENDBRANCH  36  37
ENDBRANCH   8  36
TORSDOF 9
