REMARK  Name = ZINC03841486
REMARK  6 active torsions:
REMARK  status: ('A' for Active; 'I' for Inactive)
REMARK    1  A    between atoms: C_1  and  N_2
REMARK    2  A    between atoms: C_4  and  C_11
REMARK    3  A    between atoms: C_11  and  N_63
REMARK    4  A    between atoms: C_22  and  N_27
REMARK    5  A    between atoms: N_27  and  S_28
REMARK    6  A    between atoms: S_28  and  C_31
REMARK                            x       y       z     vdW  Elec       q    Type
REMARK                         _______ _______ _______ _____ _____    ______ ____
ROOT
ATOM      1  C   UNL     1      -0.951  -0.149  -0.819  0.00  0.00    -0.073 C 
ATOM      2  C   UNL     1      -0.568  -1.617  -0.931  0.00  0.00    -0.007 C 
ATOM      3  C   UNL     1       0.215  -2.072   0.303  0.00  0.00    +0.011 C 
ATOM      4  C   UNL     1       1.439  -1.158   0.437  0.00  0.00    +0.020 C 
ATOM      5  C   UNL     1       0.938   0.282   0.636  0.00  0.00    -0.069 C 
ATOM      6  C   UNL     1       2.234  -1.201  -0.848  0.00  0.00    +0.023 A 
ATOM      7  C   UNL     1       3.568  -0.959  -0.766  0.00  0.00    +0.023 A 
ATOM      8  C   UNL     1       4.360  -0.921  -1.920  0.00  0.00    +0.031 A 
ATOM      9  C   UNL     1       3.763  -1.111  -3.136  0.00  0.00    +0.112 A 
ATOM     10  C   UNL     1       2.377  -1.357  -3.186  0.00  0.00    +0.274 A 
ATOM     11  O   UNL     1       1.822  -1.471  -4.267  0.00  0.00    -0.266 OA
ATOM     12  N   UNL     1       1.653  -1.469  -2.044  0.00  0.00    -0.310 N 
ATOM     13  C   UNL     1       0.252  -1.895  -2.180  0.00  0.00    +0.127 C 
ATOM     14  N   UNL     1       0.248   0.687  -0.610  0.00  0.00    +0.383 N 
ATOM     15  H   UNL     1       0.888   0.556  -1.402  0.00  0.00    -0.081 HD
ENDROOT
BRANCH   9  16
ATOM     16  N   UNL     1       4.518  -1.060  -4.314  0.00  0.00    -0.211 N 
ATOM     17  H   UNL     1       4.078  -1.124  -5.176  0.00  0.00    +0.174 HD
BRANCH  16  18
ATOM     18  S   UNL     1       6.164  -0.891  -4.235  0.00  0.00    +0.073 S 
ATOM     19  O   UNL     1       6.639  -0.919  -5.574  0.00  0.00    -0.150 OA
ATOM     20  O   UNL     1       6.419   0.199  -3.359  0.00  0.00    -0.150 OA
BRANCH  18  21
ATOM     21  C   UNL     1       6.799  -2.332  -3.445  0.00  0.00    +0.111 A 
ATOM     22  C   UNL     1       7.036  -3.477  -4.183  0.00  0.00    +0.029 A 
ATOM     23  C   UNL     1       7.534  -4.608  -3.564  0.00  0.00    +0.005 A 
ATOM     24  C   UNL     1       7.795  -4.596  -2.207  0.00  0.00    +0.038 A 
ATOM     25  C   UNL     1       7.558  -3.450  -1.467  0.00  0.00    +0.125 A 
ATOM     26  C   UNL     1       7.065  -2.316  -2.089  0.00  0.00    +0.067 A 
ATOM     27  F   UNL     1       7.814  -3.437  -0.141  0.00  0.00    -0.205 F 
ENDBRANCH  18  21
ENDBRANCH  16  18
ENDBRANCH   9  16
BRANCH  14  28
ATOM     28  C   UNL     1      -0.137   2.111  -0.535  0.00  0.00    -0.041 C 
BRANCH  28  32
ATOM     29  C   UNL     1       2.963   4.710   2.448  0.00  0.00    +0.149 C 
ATOM     30  N   UNL     1       2.424   4.066   1.248  0.00  0.00    -0.349 N 
ATOM     31  C   UNL     1       1.242   3.379   1.188  0.00  0.00    +0.088 A 
ATOM     32  C   UNL     1       1.044   2.916  -0.056  0.00  0.00    -0.039 A 
ATOM     33  C   UNL     1       2.195   3.337  -0.858  0.00  0.00    +0.001 A 
ATOM     34  C   UNL     1       3.030   4.063   0.011  0.00  0.00    +0.049 A 
ATOM     35  C   UNL     1       4.217   4.600  -0.475  0.00  0.00    +0.026 A 
ATOM     36  C   UNL     1       4.559   4.420  -1.798  0.00  0.00    +0.002 A 
ATOM     37  C   UNL     1       3.729   3.709  -2.652  0.00  0.00    +0.001 A 
ATOM     38  C   UNL     1       2.557   3.173  -2.196  0.00  0.00    +0.010 A 
ENDBRANCH  28  32
ENDBRANCH  14  28
TORSDOF 5
