REMARK  Name = ZINC46841562
REMARK  13 active torsions:
REMARK  status: ('A' for Active; 'I' for Inactive)
REMARK    1  A    between atoms: C_1  and  C_2
REMARK    2  A    between atoms: C_2  and  N_3
REMARK    3  A    between atoms: N_3  and  C_4
REMARK    4  A    between atoms: N_3  and  S_6
REMARK    5  A    between atoms: C_4  and  C_5
REMARK    6  A    between atoms: S_6  and  C_9
REMARK    7  A    between atoms: C_12  and  O_35
REMARK    8  A    between atoms: C_13  and  C_15
REMARK    9  A    between atoms: N_17  and  C_18
REMARK   10  A    between atoms: C_18  and  C_19
REMARK   11  A    between atoms: C_27  and  C_34
REMARK   12  A    between atoms: C_30  and  C_33
REMARK   13  A    between atoms: O_35  and  C_36
REMARK                            x       y       z     vdW  Elec       q    Type
REMARK                         _______ _______ _______ _____ _____    ______ ____
ROOT
ATOM      1  C   UNL     1       4.682   2.314   4.492  0.00  0.00    +0.248 C 
ATOM      2  O   UNL     1       5.285   3.336   4.759  0.00  0.00    -0.270 OA
ATOM      3  N   UNL     1       4.337   1.459   5.475  0.00  0.00    -0.307 N 
ATOM      4  H   UNL     1       3.856   0.644   5.262  0.00  0.00    +0.149 HD
ENDROOT
BRANCH   1   9
ATOM      5  C   UNL     1       3.307   0.562   1.472  0.00  0.00    +0.106 A 
ATOM      6  C   UNL     1       3.662   1.441   0.461  0.00  0.00    +0.032 A 
ATOM      7  C   UNL     1       4.346   2.603   0.755  0.00  0.00    +0.048 A 
ATOM      8  C   UNL     1       4.685   2.898   2.067  0.00  0.00    +0.132 A 
ATOM      9  C   UNL     1       4.328   2.012   3.092  0.00  0.00    +0.080 A 
ATOM     10  C   UNL     1       3.631   0.842   2.781  0.00  0.00    +0.045 A 
BRANCH   5  11
ATOM     11  S   UNL     1       2.433  -0.917   1.080  0.00  0.00    +0.061 S 
ATOM     12  O   UNL     1       2.692  -1.833   2.135  0.00  0.00    -0.153 OA
ATOM     13  O   UNL     1       2.728  -1.216  -0.277  0.00  0.00    -0.153 OA
BRANCH  11  14
ATOM     14  N   UNL     1       0.817  -0.563   1.147  0.00  0.00    -0.177 NA
BRANCH  14  16
ATOM     15  C   UNL     1       0.082   1.438  -0.052  0.00  0.00    +0.022 C 
ATOM     16  C   UNL     1       0.120  -0.092  -0.052  0.00  0.00    +0.106 C 
ENDBRANCH  14  16
BRANCH  14  17
ATOM     17  C   UNL     1       0.084  -0.721   2.406  0.00  0.00    +0.106 C 
ATOM     18  C   UNL     1      -0.589  -2.095   2.436  0.00  0.00    +0.022 C 
ENDBRANCH  14  17
ENDBRANCH  11  14
ENDBRANCH   5  11
BRANCH   8  19
ATOM     19  O   UNL     1       5.358   4.040   2.358  0.00  0.00    -0.494 OA
ATOM     20  C   UNL     1       5.688   4.895   1.261  0.00  0.00    +0.277 C 
ENDBRANCH   8  19
ENDBRANCH   1   9
BRANCH   3  21
ATOM     21  C   UNL     1       4.689   1.760   6.865  0.00  0.00    +0.141 C 
BRANCH  21  22
ATOM     22  C   UNL     1       4.192   0.653   7.759  0.00  0.00    -0.014 A 
ATOM     23  C   UNL     1       2.919   0.714   8.309  0.00  0.00    +0.010 A 
ATOM     24  C   UNL     1       2.502  -0.323   9.125  0.00  0.00    +0.042 A 
ATOM     25  C   UNL     1       3.368  -1.385   9.365  0.00  0.00    +0.099 A 
ATOM     26  N   UNL     1       4.575  -1.406   8.822  0.00  0.00    -0.349 N 
ATOM     27  C   UNL     1       4.997  -0.434   8.036  0.00  0.00    +0.089 A 
ATOM     28  N   UNL     1       2.962  -2.433  10.183  0.00  0.00    -0.312 N 
ATOM     29  C   UNL     1       3.803  -3.628  10.356  0.00  0.00    +0.137 C 
ATOM     30  C   UNL     1       3.958  -3.897  11.857  0.00  0.00    +0.133 C 
ATOM     31  O   UNL     1       2.664  -3.938  12.464  0.00  0.00    -0.371 OA
ATOM     32  C   UNL     1       1.938  -2.709  12.377  0.00  0.00    +0.133 C 
ATOM     33  C   UNL     1       1.682  -2.377  10.907  0.00  0.00    +0.137 C 
ATOM     34  C   UNL     1       0.604  -2.851  13.112  0.00  0.00    +0.039 C 
ATOM     35  C   UNL     1       4.787  -2.780  12.494  0.00  0.00    +0.039 C 
ATOM     36  H   UNL     1       5.162  -2.156   9.004  0.00  0.00    +0.167 HD
ENDBRANCH  21  22
ENDBRANCH   3  21
TORSDOF 8
