REMARK  Name = ZINC17129714
REMARK  11 active torsions:
REMARK  status: ('A' for Active; 'I' for Inactive)
REMARK    1  A    between atoms: C_2  and  C_3
REMARK    2  A    between atoms: C_3  and  N_4
REMARK    3  A    between atoms: C_16  and  C_18
REMARK    4  A    between atoms: C_18  and  N_19
REMARK    5  A    between atoms: N_19  and  C_20
REMARK    6  A    between atoms: C_23  and  C_26
REMARK    7  A    between atoms: N_28  and  CA_29
REMARK    8  A    between atoms: CA_29  and  CB_31
REMARK    9  A    between atoms: CA_29  and  C_36
REMARK   10  A    between atoms: CB_31  and  CG_32
REMARK   11  A    between atoms: CG_32  and  CD_33
REMARK                            x       y       z     vdW  Elec       q    Type
REMARK                         _______ _______ _______ _____ _____    ______ ____
ROOT
ATOM      1  N   UNK A   0      -7.174   5.028   1.160  0.00  0.00    -0.342 N 
ATOM      2  H   UNK A   0      -6.908   4.172   1.797  0.00  0.00    +0.146 HD
ENDROOT
BRANCH   1   3
ATOM      3  C   UNK A   0      -8.496   5.452   1.082  0.00  0.00    +0.027 A 
ATOM      4  C   UNK A   0      -8.830   6.539   0.279  0.00  0.00    +0.023 A 
ATOM      5  C   UNK A   0     -10.139   6.958   0.195  0.00  0.00    +0.015 A 
ATOM      6  C   UNK A   0     -11.130   6.298   0.926  0.00  0.00    +0.037 A 
ATOM      7  C   UNK A   0     -10.791   5.210   1.736  0.00  0.00    +0.015 A 
ATOM      8  C   UNK A   0      -9.482   4.792   1.811  0.00  0.00    +0.023 A 
BRANCH   6   9
ATOM      9  C   UNK A   0     -12.533   6.748   0.843  0.00  0.00    +0.245 C 
ATOM     10  O   UNK A   0     -13.395   6.173   1.480  0.00  0.00    -0.270 OA
ATOM     11  N   GLU A   1     -12.859   7.797   0.062  0.00  0.00    -0.298 N 
ATOM     12  H   GLU A   1     -12.079   8.317  -0.514  0.00  0.00    +0.150 HD
BRANCH  11  13
ATOM     13  CA  GLU A   1     -14.251   8.244  -0.020  0.00  0.00    +0.187 C 
BRANCH  13  14
ATOM     14  C   GLU A   1     -14.980   7.430  -1.057  0.00  0.00    +0.376 C 
ATOM     15  O   GLU A   1     -14.397   6.565  -1.666  0.00  0.00    -0.244 OA
ATOM     16  OXT GLU A   1     -16.278   7.666  -1.306  0.00  0.00    -0.244 OA
ENDBRANCH  13  14
BRANCH  13  17
ATOM     17  CB  GLU A   1     -14.290   9.723  -0.412  0.00  0.00    +0.045 C 
BRANCH  17  18
ATOM     18  CG  GLU A   1     -13.660  10.562   0.701  0.00  0.00    +0.127 C 
BRANCH  18  19
ATOM     19  CD  GLU A   1     -13.698  12.018   0.314  0.00  0.00    +0.356 C 
ATOM     20  OE1 GLU A   1     -14.179  12.351  -0.743  0.00  0.00    -0.246 OA
ATOM     21  OE2 GLU A   1     -13.197  12.947   1.144  0.00  0.00    -0.246 OA
ENDBRANCH  18  19
ENDBRANCH  17  18
ENDBRANCH  13  17
ENDBRANCH  11  13
ENDBRANCH   6   9
ENDBRANCH   1   3
BRANCH   1  22
ATOM     22  C   UNK A   0      -6.136   5.721   0.393  0.00  0.00    +0.125 C 
BRANCH  22  35
ATOM     23  N   UNK A   0      -4.499   4.836   1.985  0.00  0.00    -0.306 N 
ATOM     24  C   UNK A   0      -3.383   4.013   2.220  0.00  0.00    +0.136 A 
ATOM     25  C   UNK A   0      -2.954   3.090   1.314  0.00  0.00    +0.126 A 
ATOM     26  N   UNK A   0      -1.864   2.310   1.609  0.00  0.00    -0.315 N 
ATOM     27  H   UNK A   0      -1.509   1.564   0.883  0.00  0.00    +0.170 HD
ATOM     28  C   UNK A   0      -1.221   2.458   2.798  0.00  0.00    +0.195 A 
ATOM     29  N   UNK A   0      -1.620   3.348   3.681  0.00  0.00    -0.176 NA
ATOM     30  C   UNK A   0      -2.679   4.136   3.442  0.00  0.00    +0.298 A 
ATOM     31  O   UNK A   0      -3.035   4.957   4.276  0.00  0.00    -0.264 OA
ATOM     32  N   UNK A   0      -0.135   1.669   3.080  0.00  0.00    -0.329 N 
ATOM     33  N   UNK A   0      -3.598   2.936   0.099  0.00  0.00    -0.327 N 
ATOM     34  C   UNK A   0      -4.904   3.592  -0.078  0.00  0.00    +0.127 C 
ATOM     35  C   UNK A   0      -4.804   4.986   0.558  0.00  0.00    +0.109 C 
ATOM     36  H   UNK A   0       0.392   1.781   4.039  0.00  0.00    +0.145 HD
ATOM     37  H   UNK A   0       0.209   0.925   2.347  0.00  0.00    +0.145 HD
ATOM     38  H   UNK A   0      -3.163   2.346  -0.721  0.00  0.00    +0.148 HD
BRANCH  23  39
ATOM     39  C   UNK A   0      -4.332   6.146   2.628  0.00  0.00    +0.194 C 
BRANCH  39  41
ATOM     40  C   UNK A   0      -2.022   7.203   1.890  0.00  0.00    +0.005 C 
ATOM     41  C   UNK A   0      -3.047   6.734   2.217  0.00  0.00    -0.086 C 
ENDBRANCH  39  41
ENDBRANCH  23  39
ENDBRANCH  22  35
ENDBRANCH   1  22
TORSDOF 11
