REMARK  Name = ZINC05595844
REMARK  13 active torsions:
REMARK  status: ('A' for Active; 'I' for Inactive)
REMARK    1  A    between atoms: C_1  and  C_2
REMARK    2  A    between atoms: C_5  and  C_7
REMARK    3  A    between atoms: C_10  and  C_11
REMARK    4  A    between atoms: C_10  and  O_21
REMARK    5  A    between atoms: C_14  and  O_17
REMARK    6  A    between atoms: O_17  and  C_18
REMARK    7  A    between atoms: C_18  and  C_19
REMARK    8  A    between atoms: C_18  and  C_20
REMARK    9  A    between atoms: N_26  and  C_27
REMARK   10  A    between atoms: C_27  and  C_28
REMARK   11  A    between atoms: C_28  and  N_58
REMARK   12  A    between atoms: C_29  and  N_58
REMARK   13  A    between atoms: C_30  and  N_58
REMARK                            x       y       z     vdW  Elec       q    Type
REMARK                         _______ _______ _______ _____ _____    ______ ____
ROOT
ATOM      1  C   UNL     1      -2.519  -0.074   0.024  0.00  0.00    +0.180 C 
ATOM      2  C   UNL     1      -1.247   0.740  -0.033  0.00  0.00    +0.074 C 
ATOM      3  C   UNL     1       0.036   0.264  -0.217  0.00  0.00    +0.133 C 
ATOM      4  C   UNL     1      -1.632   2.078   0.144  0.00  0.00    +0.249 C 
ATOM      5  O   UNL     1      -0.885   3.039   0.164  0.00  0.00    -0.282 OA
ATOM      6  C   UNL     1      -3.111   2.118   0.300  0.00  0.00    +0.288 C 
ATOM      7  O   UNL     1      -3.766   3.127   0.469  0.00  0.00    -0.266 OA
ATOM      8  N   UNL     1      -3.616   0.875   0.234  0.00  0.00    -0.282 N 
ENDROOT
BRANCH   1  13
ATOM      9  C   UNL     1      -3.695  -1.039  -4.785  0.00  0.00    +0.086 C 
ATOM     10  C   UNL     1      -3.229  -1.233  -3.365  0.00  0.00    +0.102 A 
ATOM     11  C   UNL     1      -2.784  -2.386  -2.834  0.00  0.00    +0.045 A 
ATOM     12  C   UNL     1      -2.454  -2.116  -1.486  0.00  0.00    +0.047 A 
ATOM     13  C   UNL     1      -2.717  -0.814  -1.274  0.00  0.00    +0.130 A 
ATOM     14  O   UNL     1      -3.191  -0.285  -2.414  0.00  0.00    -0.463 OA
ENDBRANCH   1  13
BRANCH   3  15
ATOM     15  C   UNL     1       1.151   1.205  -0.404  0.00  0.00    +0.017 A 
ATOM     16  C   UNL     1       2.306   1.090   0.379  0.00  0.00    +0.015 A 
ATOM     17  C   UNL     1       3.348   1.970   0.197  0.00  0.00    +0.046 A 
ATOM     18  C   UNL     1       3.251   2.979  -0.756  0.00  0.00    +0.121 A 
ATOM     19  C   UNL     1       2.103   3.101  -1.531  0.00  0.00    +0.046 A 
ATOM     20  C   UNL     1       1.058   2.223  -1.361  0.00  0.00    +0.015 A 
BRANCH  18  21
ATOM     21  O   UNL     1       4.279   3.848  -0.928  0.00  0.00    -0.489 OA
BRANCH  21  22
ATOM     22  C   UNL     1       4.066   4.934  -1.832  0.00  0.00    +0.167 C 
ATOM     23  C   UNL     1       4.981   6.100  -1.452  0.00  0.00    +0.051 C 
ATOM     24  C   UNL     1       4.385   4.480  -3.258  0.00  0.00    +0.051 C 
ENDBRANCH  21  22
ENDBRANCH  18  21
ENDBRANCH   3  15
BRANCH   3  25
ATOM     25  O   UNL     1       0.267  -1.067  -0.231  0.00  0.00    -0.506 OA
ATOM     26  H   UNL     1       1.242  -1.234  -0.374  0.00  0.00    +0.292 HD
ENDBRANCH   3  25
BRANCH   8  27
ATOM     27  C   UNL     1      -5.034   0.524   0.352  0.00  0.00    +0.091 C 
BRANCH  27  28
ATOM     28  C   UNL     1      -5.374   0.263   1.820  0.00  0.00    -0.060 C 
BRANCH  28  31
ATOM     29  C   UNL     1      -7.107  -0.574   3.289  0.00  0.00    -0.097 C 
ATOM     30  C   UNL     1      -7.651   1.050   1.578  0.00  0.00    -0.097 C 
ATOM     31  N   UNL     1      -6.801  -0.109   1.920  0.00  0.00    +0.377 N 
ATOM     32  H   UNL     1      -6.994  -0.871   1.259  0.00  0.00    -0.083 HD
ENDBRANCH  28  31
ENDBRANCH  27  28
ENDBRANCH   8  27
TORSDOF 8
