REMARK  Name = ZINC21253315
REMARK  13 active torsions:
REMARK  status: ('A' for Active; 'I' for Inactive)
REMARK    1  A    between atoms: C_1  and  C_2
REMARK    2  A    between atoms: C_2  and  C_3
REMARK    3  A    between atoms: C_2  and  C_4
REMARK    4  A    between atoms: C_4  and  O_5
REMARK    5  A    between atoms: O_5  and  C_6
REMARK    6  A    between atoms: C_9  and  C_12
REMARK    7  A    between atoms: C_17  and  C_22
REMARK    8  A    between atoms: C_24  and  O_32
REMARK    9  A    between atoms: C_25  and  O_30
REMARK   10  A    between atoms: C_26  and  O_28
REMARK   11  A    between atoms: O_28  and  C_29
REMARK   12  A    between atoms: O_30  and  C_31
REMARK   13  A    between atoms: O_32  and  C_33
REMARK                            x       y       z     vdW  Elec       q    Type
REMARK                         _______ _______ _______ _____ _____    ______ ____
ROOT
ATOM      1  C   UNL     1       1.297  -6.056   1.665  0.00  0.00    +0.136 C 
ATOM      2  C   UNL     1       0.172  -6.552   2.543  0.00  0.00    +0.036 C 
ATOM      3  C   UNL     1      -0.875  -7.289   2.142  0.00  0.00    +0.017 C 
ATOM      4  C   UNL     1      -1.959  -7.687   3.131  0.00  0.00    +0.059 C 
ATOM      5  C   UNL     1      -1.347  -7.897   4.515  0.00  0.00    +0.032 C 
ATOM      6  C   UNL     1      -0.698  -6.576   4.944  0.00  0.00    +0.088 C 
ATOM      7  C   UNL     1       0.300  -6.172   3.901  0.00  0.00    +0.163 C 
ATOM      8  O   UNL     1       1.252  -5.494   4.232  0.00  0.00    -0.292 OA
ATOM      9  N   UNL     1      -1.079  -7.724   0.873  0.00  0.00    -0.316 N 
ATOM     10  C   UNL     1      -0.960  -6.933  -0.265  0.00  0.00    +0.052 A 
ATOM     11  C   UNL     1      -2.028  -6.692  -1.111  0.00  0.00    +0.025 A 
ATOM     12  C   UNL     1      -1.819  -5.986  -2.283  0.00  0.00    +0.002 A 
ATOM     13  C   UNL     1      -0.555  -5.526  -2.605  0.00  0.00    +0.002 A 
ATOM     14  C   UNL     1       0.510  -5.750  -1.750  0.00  0.00    +0.025 A 
ATOM     15  C   UNL     1       0.301  -6.441  -0.567  0.00  0.00    +0.049 A 
ATOM     16  N   UNL     1       1.332  -6.652   0.346  0.00  0.00    -0.331 N 
ATOM     17  H   UNL     1      -1.360  -8.772   0.689  0.00  0.00    +0.152 HD
ATOM     18  H   UNL     1       2.184  -7.282   0.050  0.00  0.00    +0.147 HD
ENDROOT
BRANCH   1  22
ATOM     19  C   UNL     1       0.913  -1.822   1.233  0.00  0.00    +0.121 A 
ATOM     20  C   UNL     1       2.009  -2.357   1.897  0.00  0.00    +0.046 A 
ATOM     21  C   UNL     1       2.127  -3.726   2.039  0.00  0.00    +0.009 A 
ATOM     22  C   UNL     1       1.161  -4.563   1.513  0.00  0.00    -0.023 A 
ATOM     23  C   UNL     1       0.072  -4.033   0.846  0.00  0.00    +0.009 A 
ATOM     24  C   UNL     1      -0.054  -2.665   0.705  0.00  0.00    +0.046 A 
BRANCH  19  25
ATOM     25  O   UNL     1       0.792  -0.476   1.096  0.00  0.00    -0.492 OA
BRANCH  25  26
ATOM     26  C   UNL     1       1.825   0.331   1.664  0.00  0.00    +0.232 C 
BRANCH  26  28
ATOM     27  C   UNL     1       2.556   2.675   2.126  0.00  0.00    +0.010 C 
ATOM     28  C   UNL     1       1.518   1.808   1.411  0.00  0.00    +0.020 C 
ATOM     29  C   UNL     1       1.566   2.088  -0.092  0.00  0.00    +0.010 C 
ENDBRANCH  26  28
ENDBRANCH  25  26
ENDBRANCH  19  25
ENDBRANCH   1  22
BRANCH   5  30
ATOM     30  C   UNL     1      -2.425  -8.279   5.497  0.00  0.00    -0.036 A 
ATOM     31  C   UNL     1      -3.478  -7.416   5.734  0.00  0.00    +0.053 A 
ATOM     32  C   UNL     1      -4.475  -7.766   6.633  0.00  0.00    +0.165 A 
ATOM     33  C   UNL     1      -4.407  -8.982   7.303  0.00  0.00    +0.204 A 
ATOM     34  C   UNL     1      -3.344  -9.844   7.066  0.00  0.00    +0.165 A 
ATOM     35  C   UNL     1      -2.354  -9.489   6.162  0.00  0.00    +0.053 A 
BRANCH  34  36
ATOM     36  O   UNL     1      -3.273 -11.035   7.719  0.00  0.00    -0.491 OA
ATOM     37  C   UNL     1      -2.152 -11.871   7.426  0.00  0.00    +0.277 C 
ENDBRANCH  34  36
BRANCH  33  38
ATOM     38  O   UNL     1      -5.381  -9.327   8.189  0.00  0.00    -0.488 OA
ATOM     39  C   UNL     1      -5.187  -8.938   9.550  0.00  0.00    +0.277 C 
ENDBRANCH  33  38
BRANCH  32  40
ATOM     40  O   UNL     1      -5.514  -6.919   6.861  0.00  0.00    -0.491 OA
ATOM     41  C   UNL     1      -5.518  -5.688   6.137  0.00  0.00    +0.277 C 
ENDBRANCH  32  40
ENDBRANCH   5  30
TORSDOF 8
