REMARK  Name = ZINC63349945
REMARK  8 active torsions:
REMARK  status: ('A' for Active; 'I' for Inactive)
REMARK    1  A    between atoms: C_1  and  O_2
REMARK    2  A    between atoms: O_2  and  C_3
REMARK    3  A    between atoms: C_6  and  C_19
REMARK    4  A    between atoms: C_8  and  C_9
REMARK    5  A    between atoms: C_9  and  N_10
REMARK    6  A    between atoms: C_32  and  C_35
REMARK    7  A    between atoms: C_35  and  O_37
REMARK    8  A    between atoms: O_37  and  C_38
REMARK                            x       y       z     vdW  Elec       q    Type
REMARK                         _______ _______ _______ _____ _____    ______ ____
ROOT
ATOM      1  C   UNL     1      -4.981  -2.629   0.034  0.00  0.00    +0.111 C 
ATOM      2  C   UNL     1      -5.492  -2.748   1.472  0.00  0.00    +0.128 C 
ATOM      3  C   UNL     1      -5.772  -1.326   1.944  0.00  0.00    -0.035 C 
ATOM      4  C   UNL     1      -5.096  -1.166   3.073  0.00  0.00    -0.001 A 
ATOM      5  C   UNL     1      -5.035  -0.050   4.031  0.00  0.00    +0.010 A 
ATOM      6  C   UNL     1      -4.209  -0.219   5.097  0.00  0.00    +0.001 A 
ATOM      7  C   UNL     1      -3.446  -1.373   5.303  0.00  0.00    +0.002 A 
ATOM      8  C   UNL     1      -3.444  -2.449   4.478  0.00  0.00    +0.026 A 
ATOM      9  C   UNL     1      -4.279  -2.393   3.324  0.00  0.00    +0.043 A 
ATOM     10  N   UNL     1      -4.487  -3.293   2.383  0.00  0.00    -0.376 N 
ATOM     11  C   UNL     1      -6.598  -0.367   1.122  0.00  0.00    +0.063 C 
ATOM     12  C   UNL     1      -6.049  -0.449  -0.314  0.00  0.00    +0.168 C 
ATOM     13  N   UNL     1      -5.958  -1.848  -0.742  0.00  0.00    -0.295 NA
ATOM     14  H   UNL     1      -5.769  -1.914  -1.731  0.00  0.00    +0.123 HD
ATOM     15  H   UNL     1      -4.055  -4.158   2.300  0.00  0.00    +0.160 HD
ENDROOT
BRANCH   1  19
ATOM     16  C   UNL     1      -1.200  -0.637   0.010  0.00  0.00    +0.125 A 
ATOM     17  C   UNL     1      -2.292  -0.049   0.632  0.00  0.00    +0.046 A 
ATOM     18  C   UNL     1      -3.513  -0.695   0.639  0.00  0.00    +0.009 A 
ATOM     19  C   UNL     1      -3.648  -1.927   0.026  0.00  0.00    -0.028 A 
ATOM     20  C   UNL     1      -2.562  -2.515  -0.595  0.00  0.00    +0.014 A 
ATOM     21  C   UNL     1      -1.340  -1.871  -0.609  0.00  0.00    +0.016 A 
BRANCH  16  23
ATOM     22  C   UNL     1       0.072   1.263   0.659  0.00  0.00    +0.277 C 
ATOM     23  O   UNL     1       0.002  -0.004   0.002  0.00  0.00    -0.495 OA
ENDBRANCH  16  23
BRANCH  21  24
ATOM     24  C   UNL     1      -0.158  -2.510  -1.291  0.00  0.00    +0.184 C 
BRANCH  24  25
ATOM     25  N   UNL     1       0.027  -1.909  -2.614  0.00  0.00    -0.239 N 
ATOM     26  C   UNL     1      -0.538  -2.328  -3.794  0.00  0.00    +0.089 A 
ATOM     27  C   UNL     1      -1.400  -3.364  -4.139  0.00  0.00    +0.029 A 
ATOM     28  C   UNL     1      -1.788  -3.520  -5.440  0.00  0.00    +0.002 A 
ATOM     29  C   UNL     1      -1.329  -2.653  -6.423  0.00  0.00    +0.002 A 
ATOM     30  C   UNL     1      -0.484  -1.629  -6.111  0.00  0.00    +0.032 A 
ATOM     31  C   UNL     1      -0.071  -1.447  -4.785  0.00  0.00    +0.113 A 
ATOM     32  N   UNL     1       0.738  -0.550  -4.186  0.00  0.00    -0.129 NA
ATOM     33  N   UNL     1       0.811  -0.787  -2.924  0.00  0.00    -0.064 NA
ENDBRANCH  24  25
ENDBRANCH  21  24
ENDBRANCH   1  19
BRANCH  12  34
ATOM     34  C   UNL     1      -6.972   0.295  -1.245  0.00  0.00    +0.324 C 
ATOM     35  O   UNL     1      -7.773  -0.312  -1.915  0.00  0.00    -0.249 OA
BRANCH  34  36
ATOM     36  O   UNL     1      -6.904   1.633  -1.329  0.00  0.00    -0.467 OA
ATOM     37  C   UNL     1      -7.809   2.273  -2.232  0.00  0.00    +0.280 C 
ENDBRANCH  34  36
ENDBRANCH  12  34
TORSDOF 6
