REMARK  Name = ZINC09488018
REMARK  12 active torsions:
REMARK  status: ('A' for Active; 'I' for Inactive)
REMARK    1  A    between atoms: C_1  and  O_2
REMARK    2  A    between atoms: O_2  and  C_3
REMARK    3  A    between atoms: C_5  and  C_14
REMARK    4  A    between atoms: C_6  and  N_11
REMARK    5  A    between atoms: C_8  and  O_9
REMARK    6  A    between atoms: O_9  and  C_10
REMARK    7  A    between atoms: C_14  and  O_16
REMARK    8  A    between atoms: O_16  and  C_17
REMARK    9  A    between atoms: C_17  and  C_18
REMARK   10  A    between atoms: N_20  and  C_21
REMARK   11  A    between atoms: C_26  and  S_27
REMARK   12  A    between atoms: S_27  and  C_28
REMARK                            x       y       z     vdW  Elec       q    Type
REMARK                         _______ _______ _______ _____ _____    ______ ____
ROOT
ATOM      1  C   UNL     1      -0.338  11.004  -0.555  0.00  0.00    +0.328 C 
ENDROOT
BRANCH   1   2
ATOM      2  C   UNL     1      -1.099   9.715  -0.729  0.00  0.00    +0.255 C 
ATOM      3  O   UNL     1      -2.312   9.718  -0.701  0.00  0.00    -0.272 OA
ATOM      4  N   UNL     1      -0.432   8.558  -0.917  0.00  0.00    -0.282 N 
ATOM      5  H   UNL     1       0.537   8.558  -0.958  0.00  0.00    +0.155 HD
BRANCH   4   6
ATOM      6  C   UNL     1      -1.139   7.356  -1.052  0.00  0.00    +0.047 A 
ATOM      7  C   UNL     1      -2.476   7.373  -1.422  0.00  0.00    +0.024 A 
ATOM      8  C   UNL     1      -3.171   6.186  -1.554  0.00  0.00    +0.002 A 
ATOM      9  C   UNL     1      -2.539   4.979  -1.318  0.00  0.00    +0.001 A 
ATOM     10  C   UNL     1      -1.206   4.951  -0.953  0.00  0.00    +0.017 A 
ATOM     11  C   UNL     1      -0.501   6.139  -0.813  0.00  0.00    +0.034 A 
BRANCH  11  12
ATOM     12  S   UNL     1       1.197   6.108  -0.343  0.00  0.00    -0.088 S 
BRANCH  12  13
ATOM     13  C   UNL     1       1.190   6.700   1.317  0.00  0.00    +0.013 A 
ATOM     14  C   UNL     1       2.390   6.925   1.981  0.00  0.00    +0.015 A 
ATOM     15  C   UNL     1       2.381   7.388   3.281  0.00  0.00    +0.001 A 
ATOM     16  C   UNL     1       1.179   7.627   3.924  0.00  0.00    +0.000 A 
ATOM     17  C   UNL     1      -0.017   7.399   3.268  0.00  0.00    +0.001 A 
ATOM     18  C   UNL     1      -0.015   6.941   1.965  0.00  0.00    +0.015 A 
ENDBRANCH  12  13
ENDBRANCH  11  12
ENDBRANCH   4   6
ENDBRANCH   1   2
BRANCH   1  19
ATOM     19  O   UNL     1      -1.274  12.098  -0.371  0.00  0.00    -0.452 OA
BRANCH  19  20
ATOM     20  C   UNL     1      -0.752  13.328  -0.200  0.00  0.00    +0.342 C 
ATOM     21  O   UNL     1       0.454  13.482  -0.204  0.00  0.00    -0.245 OA
BRANCH  20  24
ATOM     22  C   UNL     1      -3.447  15.877  -0.778  0.00  0.00    +0.162 A 
ATOM     23  C   UNL     1      -2.615  14.790  -0.964  0.00  0.00    +0.066 A 
ATOM     24  C   UNL     1      -1.643  14.487  -0.007  0.00  0.00    +0.093 A 
ATOM     25  C   UNL     1      -1.520  15.282   1.137  0.00  0.00    +0.144 A 
ATOM     26  C   UNL     1      -2.350  16.368   1.313  0.00  0.00    +0.083 A 
ATOM     27  C   UNL     1      -3.316  16.669   0.362  0.00  0.00    +0.164 A 
BRANCH  25  28
ATOM     28  N   UNL     1      -0.496  14.960   2.156  0.00  0.00    +0.057 N 
ATOM     29  O   UNL     1      -0.308  15.717   3.091  0.00  0.00    -0.126 OA
ATOM     30  O   UNL     1       0.159  13.937   2.059  0.00  0.00    -0.126 OA
ENDBRANCH  25  28
BRANCH  22  32
ATOM     31  C   UNL     1      -4.472  15.322  -2.851  0.00  0.00    +0.277 C 
ATOM     32  O   UNL     1      -4.394  16.175  -1.708  0.00  0.00    -0.491 OA
ENDBRANCH  22  32
BRANCH  27  33
ATOM     33  O   UNL     1      -4.134  17.737   0.542  0.00  0.00    -0.491 OA
ATOM     34  C   UNL     1      -3.945  18.505   1.733  0.00  0.00    +0.277 C 
ENDBRANCH  27  33
ENDBRANCH  20  24
ENDBRANCH  19  20
ENDBRANCH   1  19
TORSDOF 10
