REMARK  Name = ZINC40037963
REMARK  8 active torsions:
REMARK  status: ('A' for Active; 'I' for Inactive)
REMARK    1  A    between atoms: C_1  and  C_2
REMARK    2  A    between atoms: C_2  and  N_3
REMARK    3  A    between atoms: N_3  and  C_4
REMARK    4  A    between atoms: N_3  and  S_10
REMARK    5  A    between atoms: S_10  and  C_13
REMARK    6  A    between atoms: C_16  and  N_19
REMARK    7  A    between atoms: C_20  and  C_22
REMARK    8  A    between atoms: C_23  and  C_32
REMARK                            x       y       z     vdW  Elec       q    Type
REMARK                         _______ _______ _______ _____ _____    ______ ____
ROOT
ATOM      1  C   UNL     1      -2.885   0.253   2.204  0.00  0.00    +0.109 A 
ATOM      2  C   UNL     1      -2.228   0.992   3.171  0.00  0.00    +0.030 A 
ATOM      3  C   UNL     1      -2.891   2.004   3.837  0.00  0.00    +0.025 A 
ATOM      4  C   UNL     1      -4.218   2.279   3.535  0.00  0.00    +0.034 A 
ATOM      5  C   UNL     1      -4.875   1.535   2.564  0.00  0.00    +0.025 A 
ATOM      6  C   UNL     1      -4.205   0.528   1.897  0.00  0.00    +0.030 A 
ENDROOT
BRANCH   4   7
ATOM      7  N   UNL     1      -4.892   3.303   4.209  0.00  0.00    -0.279 N 
ATOM      8  C   UNL     1      -6.209   3.186   4.468  0.00  0.00    +0.284 C 
ATOM      9  O   UNL     1      -6.792   2.151   4.202  0.00  0.00    -0.266 OA
ATOM     10  H   UNL     1      -4.411   4.098   4.489  0.00  0.00    +0.155 HD
BRANCH   8  11
ATOM     11  C   UNL     1      -6.941   4.307   5.073  0.00  0.00    +0.194 A 
ATOM     12  C   UNL     1      -8.264   4.300   5.383  0.00  0.00    +0.008 A 
ATOM     13  C   UNL     1      -8.552   5.614   5.957  0.00  0.00    +0.025 A 
ATOM     14  C   UNL     1      -9.702   6.225   6.464  0.00  0.00    +0.027 A 
ATOM     15  C   UNL     1      -9.636   7.504   6.940  0.00  0.00    +0.019 A 
ATOM     16  C   UNL     1      -8.434   8.200   6.924  0.00  0.00    +0.019 A 
ATOM     17  C   UNL     1      -7.289   7.615   6.428  0.00  0.00    +0.048 A 
ATOM     18  C   UNL     1      -7.331   6.314   5.939  0.00  0.00    +0.136 A 
ATOM     19  O   UNL     1      -6.400   5.496   5.410  0.00  0.00    -0.450 OA
ATOM     20 BR   UNL     1     -11.191   8.333   7.625  0.00  0.00    -0.050 Br
ATOM     21  C   UNL     1      -9.238   3.169   5.177  0.00  0.00    +0.048 C 
ENDBRANCH   8  11
ENDBRANCH   4   7
BRANCH   1  22
ATOM     22  S   UNL     1      -2.036  -1.037   1.355  0.00  0.00    +0.075 S 
ATOM     23  O   UNL     1      -3.033  -1.853   0.756  0.00  0.00    -0.150 OA
ATOM     24  O   UNL     1      -1.073  -1.554   2.263  0.00  0.00    -0.150 OA
BRANCH  22  25
ATOM     25  N   UNL     1      -1.191  -0.335   0.116  0.00  0.00    -0.203 N 
BRANCH  25  26
ATOM     26  C   UNL     1      -1.786  -0.186  -1.139  0.00  0.00    +0.051 A 
ATOM     27  C   UNL     1      -3.168  -0.095  -1.247  0.00  0.00    +0.025 A 
ATOM     28  C   UNL     1      -3.753   0.053  -2.490  0.00  0.00    +0.002 A 
ATOM     29  C   UNL     1      -2.965   0.109  -3.624  0.00  0.00    +0.000 A 
ATOM     30  C   UNL     1      -1.589   0.019  -3.520  0.00  0.00    +0.002 A 
ATOM     31  C   UNL     1      -0.997  -0.123  -2.280  0.00  0.00    +0.025 A 
ENDBRANCH  25  26
BRANCH  25  33
ATOM     32  C   UNL     1       0.164   1.620   0.683  0.00  0.00    +0.026 C 
ATOM     33  C   UNL     1       0.180   0.130   0.337  0.00  0.00    +0.128 C 
ENDBRANCH  25  33
ENDBRANCH  22  25
ENDBRANCH   1  22
TORSDOF 6
