REMARK  Name = ZINC43213437
REMARK  11 active torsions:
REMARK  status: ('A' for Active; 'I' for Inactive)
REMARK    1  A    between atoms: C_1  and  C_2
REMARK    2  A    between atoms: C_2  and  C_4
REMARK    3  A    between atoms: C_2  and  N_33
REMARK    4  A    between atoms: C_6  and  C_9
REMARK    5  A    between atoms: N_11  and  C_12
REMARK    6  A    between atoms: C_12  and  C_13
REMARK    7  A    between atoms: C_13  and  C_32
REMARK    8  A    between atoms: C_17  and  C_31
REMARK    9  A    between atoms: C_26  and  C_28
REMARK   10  A    between atoms: C_28  and  C_29
REMARK   11  A    between atoms: C_28  and  C_30
REMARK                            x       y       z     vdW  Elec       q    Type
REMARK                         _______ _______ _______ _____ _____    ______ ____
ROOT
ATOM      1  C   UNL     1      -1.988  -3.483  -6.637  0.00  0.00    -0.013 C 
ATOM      2  C   UNL     1      -2.679  -2.258  -6.034  0.00  0.00    +0.008 C 
ATOM      3  C   UNL     1      -2.557  -1.035  -6.934  0.00  0.00    +0.001 C 
ATOM      4  C   UNL     1      -3.168  -1.332  -8.306  0.00  0.00    +0.011 C 
ATOM      5  C   UNL     1      -2.407  -2.480  -8.962  0.00  0.00    -0.003 C 
ATOM      6  C   UNL     1      -2.413  -3.707  -8.070  0.00  0.00    +0.007 C 
ATOM      7  C   UNL     1      -1.659  -4.841  -8.762  0.00  0.00    +0.009 C 
ATOM      8  C   UNL     1      -2.501  -5.309  -9.951  0.00  0.00    +0.036 C 
ATOM      9  C   UNL     1      -3.084  -4.155 -10.720  0.00  0.00    -0.043 A 
ATOM     10  C   UNL     1      -3.055  -2.850 -10.280  0.00  0.00    -0.038 A 
ATOM     11  C   UNL     1      -3.616  -1.843 -11.047  0.00  0.00    +0.005 A 
ATOM     12  C   UNL     1      -4.214  -2.136 -12.257  0.00  0.00    +0.004 A 
ATOM     13  C   UNL     1      -4.248  -3.443 -12.704  0.00  0.00    -0.045 A 
ATOM     14  C   UNL     1      -3.686  -4.445 -11.941  0.00  0.00    +0.007 A 
ATOM     15  C   UNL     1      -0.991  -2.008  -9.290  0.00  0.00    +0.016 C 
ATOM     16  C   UNL     1      -2.442  -4.704  -5.800  0.00  0.00    +0.013 C 
ENDROOT
BRANCH  13  17
ATOM     17  C   UNL     1      -4.900  -3.774 -14.022  0.00  0.00    +0.013 C 
ATOM     18  C   UNL     1      -6.372  -3.359 -13.982  0.00  0.00    +0.012 C 
ATOM     19  C   UNL     1      -4.188  -3.019 -15.146  0.00  0.00    +0.012 C 
ENDBRANCH  13  17
BRANCH   1  20
ATOM     20  C   UNL     1      -0.473  -3.364  -6.482  0.00  0.00    +0.111 C 
BRANCH  20  23
ATOM     21  C   UNL     1       1.155  -3.160  -4.681  0.00  0.00    +0.266 C 
ATOM     22  O   UNL     1       2.036  -3.133  -5.520  0.00  0.00    -0.268 OA
ATOM     23  N   UNL     1      -0.133  -3.273  -5.060  0.00  0.00    -0.309 N 
ATOM     24  H   UNL     1      -0.835  -3.295  -4.391  0.00  0.00    +0.149 HD
BRANCH  21  27
ATOM     25  C   UNL     1       1.299  -2.985  -1.102  0.00  0.00    +0.181 A 
ATOM     26  N   UNL     1       0.623  -3.086  -2.208  0.00  0.00    -0.210 NA
ATOM     27  C   UNL     1       1.497  -3.068  -3.250  0.00  0.00    +0.163 A 
ATOM     28  C   UNL     1       2.747  -2.952  -2.723  0.00  0.00    +0.230 A 
ATOM     29  O   UNL     1       2.605  -2.896  -1.389  0.00  0.00    -0.449 OA
BRANCH  25  31
ATOM     30  C   UNL     1       0.740  -1.537   0.832  0.00  0.00    -0.005 C 
ATOM     31  C   UNL     1       0.707  -2.965   0.284  0.00  0.00    +0.010 C 
BRANCH  31  32
ATOM     32  N   UNL     1       1.488  -3.845   1.163  0.00  0.00    +0.386 N 
ATOM     33  H   UNL     1       1.092  -3.832   2.090  0.00  0.00    -0.089 HD
ATOM     34  H   UNL     1       1.466  -4.787   0.801  0.00  0.00    -0.089 HD
ATOM     35  H   UNL     1       2.443  -3.521   1.200  0.00  0.00    -0.089 HD
ENDBRANCH  31  32
ENDBRANCH  25  31
ENDBRANCH  21  27
ENDBRANCH  20  23
ENDBRANCH   1  20
TORSDOF 6
