REMARK  Name = ZINC63681106
REMARK  9 active torsions:
REMARK  status: ('A' for Active; 'I' for Inactive)
REMARK    1  A    between atoms: C_1  and  C_2
REMARK    2  A    between atoms: C_4  and  S_9
REMARK    3  A    between atoms: S_9  and  N_12
REMARK    4  A    between atoms: C_17  and  C_19
REMARK    5  A    between atoms: C_19  and  N_20
REMARK    6  A    between atoms: C_21  and  C_23
REMARK    7  A    between atoms: N_25  and  C_26
REMARK    8  A    between atoms: C_26  and  C_27
REMARK    9  A    between atoms: C_27  and  C_28
REMARK                            x       y       z     vdW  Elec       q    Type
REMARK                         _______ _______ _______ _____ _____    ______ ____
ROOT
ATOM      1  N   UNL     1       0.498  -5.845  -2.883  0.00  0.00    -0.304 N 
ATOM      2  C   UNL     1      -0.429  -6.729  -2.463  0.00  0.00    +0.299 C 
ATOM      3  O   UNL     1      -0.478  -7.048  -1.293  0.00  0.00    -0.265 OA
ATOM      4  H   UNL     1       0.537  -5.591  -3.818  0.00  0.00    +0.149 HD
ENDROOT
BRANCH   2   5
ATOM      5  C   UNL     1      -1.397  -7.317  -3.438  0.00  0.00    +0.299 C 
ATOM      6  O   UNL     1      -1.348  -6.998  -4.608  0.00  0.00    -0.265 OA
ATOM      7  N   UNL     1      -2.324  -8.201  -3.019  0.00  0.00    -0.307 N 
ATOM      8  H   UNL     1      -2.362  -8.455  -2.084  0.00  0.00    +0.149 HD
BRANCH   7   9
ATOM      9  C   UNL     1      -3.272  -8.777  -3.975  0.00  0.00    +0.109 C 
BRANCH   9  10
ATOM     10  C   UNL     1      -4.209  -9.742  -3.246  0.00  0.00    +0.052 C 
BRANCH  10  11
ATOM     11  C   UNL     1      -5.185 -10.335  -4.229  0.00  0.00    -0.040 C 
ATOM     12  C   UNL     1      -5.069 -11.516  -4.878  0.00  0.00    -0.001 A 
ATOM     13  C   UNL     1      -4.039 -12.562  -4.864  0.00  0.00    +0.010 A 
ATOM     14  C   UNL     1      -4.205 -13.656  -5.641  0.00  0.00    +0.001 A 
ATOM     15  C   UNL     1      -5.333 -13.817  -6.457  0.00  0.00    +0.002 A 
ATOM     16  C   UNL     1      -6.322 -12.900  -6.523  0.00  0.00    +0.026 A 
ATOM     17  C   UNL     1      -6.251 -11.710  -5.748  0.00  0.00    +0.043 A 
ATOM     18  N   UNL     1      -7.066 -10.688  -5.641  0.00  0.00    -0.380 N 
ATOM     19  C   UNL     1      -6.495  -9.733  -4.686  0.00  0.00    +0.144 C 
ATOM     20  H   UNL     1      -7.907 -10.584  -6.112  0.00  0.00    +0.160 HD
ENDBRANCH  10  11
ENDBRANCH   9  10
ENDBRANCH   7   9
ENDBRANCH   2   5
BRANCH   1  21
ATOM     21  C   UNL     1       1.447  -5.269  -1.927  0.00  0.00    +0.154 C 
BRANCH  21  27
ATOM     22  N   UNL     1       1.649  -3.081  -3.015  0.00  0.00    -0.147 NA
ATOM     23  C   UNL     1       2.308  -2.107  -3.899  0.00  0.00    +0.114 C 
ATOM     24  C   UNL     1       2.832  -2.857  -5.131  0.00  0.00    +0.045 C 
ATOM     25  C   UNL     1       3.669  -4.052  -4.668  0.00  0.00    +0.163 C 
ATOM     26  O   UNL     1       2.863  -4.916  -3.862  0.00  0.00    -0.358 OA
ATOM     27  C   UNL     1       2.383  -4.304  -2.656  0.00  0.00    +0.226 C 
BRANCH  22  28
ATOM     28  S   UNL     1       0.124  -2.804  -2.433  0.00  0.00    +0.063 S 
ATOM     29  O   UNL     1      -0.484  -4.078  -2.264  0.00  0.00    -0.153 OA
ATOM     30  O   UNL     1      -0.445  -1.792  -3.252  0.00  0.00    -0.153 OA
BRANCH  28  34
ATOM     31  C   UNL     1       0.616   1.298   0.767  0.00  0.00    +0.047 C 
ATOM     32  C   UNL     1       0.521  -0.196   0.597  0.00  0.00    -0.013 A 
ATOM     33  C   UNL     1       0.385  -0.741  -0.666  0.00  0.00    +0.034 A 
ATOM     34  C   UNL     1       0.298  -2.111  -0.823  0.00  0.00    +0.106 A 
ATOM     35  C   UNL     1       0.347  -2.939   0.284  0.00  0.00    +0.031 A 
ATOM     36  C   UNL     1       0.484  -2.397   1.548  0.00  0.00    +0.040 A 
ATOM     37  C   UNL     1       0.577  -1.024   1.705  0.00  0.00    +0.126 A 
ATOM     38  F   UNL     1       0.715  -0.493   2.939  0.00  0.00    -0.205 F 
ENDBRANCH  28  34
ENDBRANCH  22  28
ENDBRANCH  21  27
ENDBRANCH   1  21
TORSDOF 8
