REMARK  Name = ZINC12769439
REMARK  2 active torsions:
REMARK  status: ('A' for Active; 'I' for Inactive)
REMARK    1  A    between atoms: C_3  and  C_14
REMARK    2  A    between atoms: C_11  and  C_12
REMARK                            x       y       z     vdW  Elec       q    Type
REMARK                         _______ _______ _______ _____ _____    ______ ____
ROOT
ATOM      1  C   UNL     1      -2.587   3.405   0.045  0.00  0.00    +0.067 A 
ATOM      2  C   UNL     1      -1.226   3.020   0.030  0.00  0.00    +0.051 A 
ATOM      3  C   UNL     1      -0.010   3.741   0.022  0.00  0.00    +0.072 A 
ATOM      4  C   UNL     1       1.163   3.054   0.007  0.00  0.00    +0.083 A 
ATOM      5  C   UNL     1       1.149   1.647  -0.000  0.00  0.00    +0.252 A 
ATOM      6  O   UNL     1       2.205   1.035  -0.013  0.00  0.00    -0.268 OA
ATOM      7  N   UNL     1      -0.011   0.966   0.007  0.00  0.00    -0.293 N 
ATOM      8  H   UNL     1       0.002  -0.004   0.002  0.00  0.00    +0.172 HD
ATOM      9  C   UNL     1      -1.205   1.623   0.017  0.00  0.00    +0.210 A 
ATOM     10  O   UNL     1      -2.477   1.197   0.033  0.00  0.00    -0.432 OA
ATOM     11  C   UNL     1      -3.317   2.256   0.047  0.00  0.00    +0.219 A 
ENDROOT
BRANCH   3  12
ATOM     12  C   UNL     1      -0.014   5.248   0.030  0.00  0.00    +0.418 C 
ATOM     13  F   UNL     1       1.304   5.717   0.019  0.00  0.00    -0.166 F 
ATOM     14  F   UNL     1      -0.685   5.718  -1.104  0.00  0.00    -0.166 F 
ATOM     15  F   UNL     1      -0.663   5.707   1.181  0.00  0.00    -0.166 F 
ENDBRANCH   3  12
BRANCH  11  16
ATOM     16  C   UNL     1      -4.779   2.179   0.060  0.00  0.00    +0.421 C 
ATOM     17  O   UNL     1      -5.442   3.199   0.072  0.00  0.00    -0.237 OA
ATOM     18  O   UNL     1      -5.391   0.977   0.060  0.00  0.00    -0.237 OA
ENDBRANCH  11  16
TORSDOF 2
