REMARK  Name = ZINC09265485
REMARK  12 active torsions:
REMARK  status: ('A' for Active; 'I' for Inactive)
REMARK    1  A    between atoms: C_1  and  N_2
REMARK    2  A    between atoms: N_2  and  C_3
REMARK    3  A    between atoms: N_2  and  C_4
REMARK    4  A    between atoms: C_4  and  C_5
REMARK    5  A    between atoms: C_5  and  N_6
REMARK    6  A    between atoms: N_6  and  C_7
REMARK    7  A    between atoms: C_7  and  C_8
REMARK    8  A    between atoms: C_13  and  C_15
REMARK    9  A    between atoms: C_16  and  N_24
REMARK   10  A    between atoms: C_25  and  C_27
REMARK   11  A    between atoms: C_27  and  O_28
REMARK   12  A    between atoms: O_28  and  C_29
REMARK                            x       y       z     vdW  Elec       q    Type
REMARK                         _______ _______ _______ _____ _____    ______ ____
ROOT
ATOM      1  C   UNL     1       1.084  -2.697   5.161  0.00  0.00    +0.212 A 
ATOM      2  C   UNL     1       0.653  -3.896   5.659  0.00  0.00    +0.092 A 
ATOM      3  C   UNL     1       1.130  -3.949   7.046  0.00  0.00    +0.042 A 
ATOM      4  C   UNL     1       1.024  -4.887   8.074  0.00  0.00    +0.013 A 
ATOM      5  C   UNL     1       1.595  -4.630   9.288  0.00  0.00    +0.001 A 
ATOM      6  C   UNL     1       2.279  -3.441   9.505  0.00  0.00    +0.004 A 
ATOM      7  C   UNL     1       2.394  -2.502   8.503  0.00  0.00    +0.047 A 
ATOM      8  C   UNL     1       1.821  -2.744   7.259  0.00  0.00    +0.138 A 
ATOM      9  O   UNL     1       1.775  -2.034   6.115  0.00  0.00    -0.448 OA
ENDROOT
BRANCH   2  10
ATOM     10  N   UNL     1      -0.084  -4.865   4.989  0.00  0.00    -0.279 N 
ATOM     11  C   UNL     1       0.130  -6.171   5.244  0.00  0.00    +0.255 C 
ATOM     12  O   UNL     1       0.894  -6.499   6.127  0.00  0.00    -0.272 OA
ATOM     13  H   UNL     1      -0.753  -4.601   4.338  0.00  0.00    +0.155 HD
BRANCH  11  14
ATOM     14  C   UNL     1      -0.581  -7.223   4.433  0.00  0.00    +0.324 C 
BRANCH  14  15
ATOM     15  O   UNL     1      -0.192  -8.520   4.890  0.00  0.00    -0.483 OA
BRANCH  15  16
ATOM     16  C   UNL     1      -0.746  -9.589   4.259  0.00  0.00    +0.121 A 
ATOM     17  C   UNL     1      -1.641  -9.393   3.218  0.00  0.00    +0.045 A 
ATOM     18  C   UNL     1      -2.203 -10.481   2.578  0.00  0.00    +0.004 A 
ATOM     19  C   UNL     1      -1.873 -11.764   2.975  0.00  0.00    +0.000 A 
ATOM     20  C   UNL     1      -0.982 -11.962   4.013  0.00  0.00    +0.004 A 
ATOM     21  C   UNL     1      -0.413 -10.877   4.652  0.00  0.00    +0.045 A 
ENDBRANCH  15  16
ENDBRANCH  14  15
ENDBRANCH  11  14
ENDBRANCH   2  10
BRANCH   1  23
ATOM     22  N   UNL     1       1.408  -1.062   3.387  0.00  0.00    -0.289 N 
ATOM     23  C   UNL     1       0.839  -2.211   3.804  0.00  0.00    +0.284 C 
ATOM     24  O   UNL     1       0.122  -2.843   3.050  0.00  0.00    -0.267 OA
BRANCH  22  25
ATOM     25  C   UNL     1       1.074  -0.515   2.070  0.00  0.00    +0.090 C 
BRANCH  25  26
ATOM     26  C   UNL     1       2.042  -1.073   1.025  0.00  0.00    -0.060 C 
BRANCH  26  28
ATOM     27  C   UNL     1       1.931   0.927  -0.294  0.00  0.00    -0.097 C 
ATOM     28  N   UNL     1       1.706  -0.525  -0.296  0.00  0.00    +0.377 N 
ATOM     29  C   UNL     1       2.557  -1.151  -1.316  0.00  0.00    -0.097 C 
ATOM     30  H   UNL     1       0.737  -0.715  -0.503  0.00  0.00    -0.083 HD
ENDBRANCH  26  28
ENDBRANCH  25  26
ENDBRANCH  22  25
BRANCH  22  31
ATOM     31  C   UNL     1       2.360  -0.360   4.252  0.00  0.00    +0.182 C 
BRANCH  31  32
ATOM     32  C   UNL     1       1.642   0.723   5.015  0.00  0.00    +0.122 A 
ATOM     33  C   UNL     1       1.062   0.583   6.221  0.00  0.00    +0.046 A 
ATOM     34  C   UNL     1       0.511   1.841   6.558  0.00  0.00    +0.041 A 
ATOM     35  C   UNL     1       0.788   2.674   5.539  0.00  0.00    +0.195 A 
ATOM     36  O   UNL     1       1.478   1.993   4.609  0.00  0.00    -0.466 OA
ENDBRANCH  31  32
ENDBRANCH  22  31
ENDBRANCH   1  23
TORSDOF 10
