REMARK  Name = ZINC03655533
REMARK  8 active torsions:
REMARK  status: ('A' for Active; 'I' for Inactive)
REMARK    1  A    between atoms: C_1  and  C_2
REMARK    2  A    between atoms: C_6  and  O_9
REMARK    3  A    between atoms: C_7  and  C_8
REMARK    4  A    between atoms: O_9  and  C_10
REMARK    5  A    between atoms: C_10  and  C_11
REMARK    6  A    between atoms: N_13  and  C_14
REMARK    7  A    between atoms: C_22  and  C_23
REMARK    8  A    between atoms: C_23  and  C_25
REMARK                            x       y       z     vdW  Elec       q    Type
REMARK                         _______ _______ _______ _____ _____    ______ ____
ROOT
ATOM      1  C   UNL     1       2.183   4.236   0.006  0.00  0.00    +0.091 A 
ATOM      2  C   UNL     1       1.146   3.228   0.253  0.00  0.00    +0.042 A 
ATOM      3  C   UNL     1       1.166   1.851   0.482  0.00  0.00    +0.013 A 
ATOM      4  C   UNL     1      -0.007   1.179   0.682  0.00  0.00    +0.001 A 
ATOM      5  C   UNL     1      -1.218   1.857   0.654  0.00  0.00    +0.004 A 
ATOM      6  C   UNL     1      -1.258   3.217   0.435  0.00  0.00    +0.047 A 
ATOM      7  C   UNL     1      -0.077   3.921   0.229  0.00  0.00    +0.138 A 
ATOM      8  O   UNL     1       0.185   5.222  -0.009  0.00  0.00    -0.450 OA
ATOM      9  C   UNL     1       1.513   5.434  -0.144  0.00  0.00    +0.197 A 
ENDROOT
BRANCH   1  12
ATOM     10  C   UNL     1       4.036   2.842  -0.482  0.00  0.00    +0.255 C 
ATOM     11  O   UNL     1       3.276   1.987  -0.886  0.00  0.00    -0.272 OA
ATOM     12  N   UNL     1       3.554   4.028  -0.061  0.00  0.00    -0.279 N 
ATOM     13  H   UNL     1       4.166   4.736   0.195  0.00  0.00    +0.155 HD
BRANCH  10  14
ATOM     14  C   UNL     1       5.520   2.577  -0.452  0.00  0.00    +0.324 C 
BRANCH  14  15
ATOM     15  O   UNL     1       5.779   1.261  -0.945  0.00  0.00    -0.482 OA
BRANCH  15  21
ATOM     16  C   UNL     1       9.074  -2.183  -1.996  0.00  0.00    +0.044 C 
ATOM     17  C   UNL     1       8.722  -0.808  -1.489  0.00  0.00    -0.044 A 
ATOM     18  C   UNL     1       9.721   0.049  -1.063  0.00  0.00    +0.004 A 
ATOM     19  C   UNL     1       9.400   1.310  -0.598  0.00  0.00    +0.004 A 
ATOM     20  C   UNL     1       8.081   1.719  -0.557  0.00  0.00    +0.046 A 
ATOM     21  C   UNL     1       7.077   0.862  -0.984  0.00  0.00    +0.124 A 
ATOM     22  C   UNL     1       7.401  -0.406  -1.446  0.00  0.00    -0.006 A 
ATOM     23  C   UNL     1       6.313  -1.342  -1.904  0.00  0.00    +0.048 C 
ENDBRANCH  15  21
ENDBRANCH  14  15
ENDBRANCH  10  14
ENDBRANCH   1  12
BRANCH   9  24
ATOM     24  C   UNL     1       2.122   6.687  -0.400  0.00  0.00    +0.230 C 
ATOM     25  O   UNL     1       3.336   6.788  -0.392  0.00  0.00    -0.283 OA
BRANCH  24  26
ATOM     26  C   UNL     1       1.283   7.873  -0.678  0.00  0.00    +0.026 A 
ATOM     27  C   UNL     1      -0.097   7.735  -0.834  0.00  0.00    +0.013 A 
ATOM     28  C   UNL     1      -0.874   8.846  -1.087  0.00  0.00    +0.016 A 
ATOM     29  C   UNL     1      -0.287  10.095  -1.198  0.00  0.00    +0.018 A 
ATOM     30  C   UNL     1       1.083  10.238  -1.050  0.00  0.00    +0.016 A 
ATOM     31  C   UNL     1       1.870   9.135  -0.790  0.00  0.00    +0.013 A 
ATOM     32 BR   UNL     1      -1.359  11.611  -1.553  0.00  0.00    -0.050 Br
ENDBRANCH  24  26
ENDBRANCH   9  24
TORSDOF 6
