REMARK  Name = ZINC13214081
REMARK  10 active torsions:
REMARK  status: ('A' for Active; 'I' for Inactive)
REMARK    1  A    between atoms: C_1  and  C_2
REMARK    2  A    between atoms: C_2  and  O_3
REMARK    3  A    between atoms: O_3  and  C_4
REMARK    4  A    between atoms: C_6  and  C_12
REMARK    5  A    between atoms: C_9  and  O_10
REMARK    6  A    between atoms: O_10  and  C_11
REMARK    7  A    between atoms: C_14  and  C_29
REMARK    8  A    between atoms: N_18  and  C_19
REMARK    9  A    between atoms: C_23  and  C_25
REMARK   10  A    between atoms: C_29  and  C_31
REMARK                            x       y       z     vdW  Elec       q    Type
REMARK                         _______ _______ _______ _____ _____    ______ ____
ROOT
ATOM      1  C   UNL     1       0.126  -4.832   0.296  0.00  0.00    +0.150 C 
ATOM      2  C   UNL     1       0.542  -5.614   1.521  0.00  0.00    +0.080 C 
ATOM      3  C   UNL     1       0.464  -6.924   1.193  0.00  0.00    +0.250 C 
ATOM      4  C   UNL     1       0.011  -7.049  -0.206  0.00  0.00    +0.292 C 
ATOM      5  O   UNL     1      -0.157  -8.099  -0.793  0.00  0.00    -0.266 OA
ATOM      6  N   UNL     1      -0.188  -5.827  -0.737  0.00  0.00    -0.253 N 
ATOM      7  O   UNL     1       0.757  -7.957   2.018  0.00  0.00    -0.282 OA
ENDROOT
BRANCH   1  10
ATOM      8  C   UNL     1      -3.402  -3.854   1.229  0.00  0.00    +0.162 A 
ATOM      9  C   UNL     1      -2.280  -4.618   0.948  0.00  0.00    +0.055 A 
ATOM     10  C   UNL     1      -1.093  -4.000   0.602  0.00  0.00    -0.018 A 
ATOM     11  C   UNL     1      -1.021  -2.621   0.536  0.00  0.00    +0.009 A 
ATOM     12  C   UNL     1      -2.136  -1.853   0.816  0.00  0.00    +0.050 A 
ATOM     13  C   UNL     1      -3.331  -2.466   1.157  0.00  0.00    +0.162 A 
BRANCH  13  14
ATOM     14  O   UNL     1      -4.430  -1.712   1.427  0.00  0.00    -0.491 OA
ATOM     15  C   UNL     1      -4.283  -0.294   1.334  0.00  0.00    +0.277 C 
ENDBRANCH  13  14
BRANCH   8  16
ATOM     16  O   UNL     1      -4.571  -4.460   1.570  0.00  0.00    -0.489 OA
BRANCH  16  18
ATOM     17  C   UNL     1      -5.910  -6.363   2.221  0.00  0.00    +0.048 C 
ATOM     18  C   UNL     1      -4.542  -5.879   1.736  0.00  0.00    +0.226 C 
ENDBRANCH  16  18
ENDBRANCH   8  16
ENDBRANCH   1  10
BRANCH   6  19
ATOM     19  C   UNL     1      -0.618  -5.554  -2.038  0.00  0.00    +0.038 A 
ATOM     20  C   UNL     1      -0.777  -4.237  -2.456  0.00  0.00    +0.023 A 
ATOM     21  C   UNL     1      -1.202  -3.961  -3.742  0.00  0.00    +0.003 A 
ATOM     22  C   UNL     1      -1.471  -4.990  -4.621  0.00  0.00    +0.015 A 
ATOM     23  C   UNL     1      -1.314  -6.317  -4.212  0.00  0.00    +0.065 A 
ATOM     24  C   UNL     1      -0.880  -6.595  -2.915  0.00  0.00    +0.038 A 
BRANCH  23  25
ATOM     25  C   UNL     1      -1.601  -7.419  -5.150  0.00  0.00    +0.387 C 
ATOM     26  O   UNL     1      -1.977  -7.173  -6.287  0.00  0.00    -0.241 OA
ATOM     27  O   UNL     1      -1.462  -8.580  -4.790  0.00  0.00    -0.241 OA
ENDBRANCH  23  25
ENDBRANCH   6  19
BRANCH   2  28
ATOM     28  C   UNL     1       0.952  -5.058   2.816  0.00  0.00    +0.230 C 
ATOM     29  O   UNL     1       1.146  -5.800   3.763  0.00  0.00    -0.283 OA
BRANCH  28  30
ATOM     30  C   UNL     1       1.129  -3.611   2.970  0.00  0.00    +0.175 A 
ATOM     31  C   UNL     1       1.385  -2.945   4.149  0.00  0.00    +0.053 A 
ATOM     32  C   UNL     1       1.478  -1.584   3.827  0.00  0.00    +0.042 A 
ATOM     33  C   UNL     1       1.279  -1.474   2.493  0.00  0.00    +0.196 A 
ATOM     34  O   UNL     1       1.076  -2.694   1.981  0.00  0.00    -0.460 OA
ENDBRANCH  28  30
ENDBRANCH   2  28
TORSDOF 8
