REMARK  Name = ZINC34950336
REMARK  19 active torsions:
REMARK  status: ('A' for Active; 'I' for Inactive)
REMARK    1  A    between atoms: C_1  and  C_2
REMARK    2  A    between atoms: C_2  and  N_3
REMARK    3  A    between atoms: N_3  and  C_4
REMARK    4  A    between atoms: N_3  and  C_6
REMARK    5  A    between atoms: C_4  and  C_5
REMARK    6  A    between atoms: C_6  and  C_7
REMARK    7  A    between atoms: C_7  and  C_8
REMARK    8  A    between atoms: C_8  and  C_9
REMARK    9  A    between atoms: C_9  and  C_11
REMARK   10  A    between atoms: C_9  and  N_12
REMARK   11  A    between atoms: N_12  and  C_13
REMARK   12  A    between atoms: C_13  and  C_14
REMARK   13  A    between atoms: C_17  and  O_28
REMARK   14  A    between atoms: C_18  and  O_20
REMARK   15  A    between atoms: O_20  and  C_21
REMARK   16  A    between atoms: C_21  and  C_22
REMARK   17  A    between atoms: O_28  and  C_29
REMARK   18  A    between atoms: C_30  and  C_32
REMARK   19  A    between atoms: C_36  and  N_38
REMARK                            x       y       z     vdW  Elec       q    Type
REMARK                         _______ _______ _______ _____ _____    ______ ____
ROOT
ATOM      1  N   UNL     1       3.557  -3.263   3.671  0.00  0.00    -0.290 N 
ATOM      2  C   UNL     1       4.714  -3.665   3.109  0.00  0.00    +0.247 C 
ATOM      3  O   UNL     1       5.750  -3.608   3.743  0.00  0.00    -0.270 OA
ENDROOT
BRANCH   2   4
ATOM      4  C   UNL     1       4.724  -4.175   1.722  0.00  0.00    +0.039 A 
ATOM      5  C   UNL     1       3.571  -4.740   1.174  0.00  0.00    +0.013 A 
ATOM      6  C   UNL     1       3.586  -5.214  -0.121  0.00  0.00    +0.003 A 
ATOM      7  C   UNL     1       4.742  -5.131  -0.877  0.00  0.00    +0.033 A 
ATOM      8  C   UNL     1       5.889  -4.573  -0.341  0.00  0.00    +0.127 A 
ATOM      9  C   UNL     1       5.885  -4.089   0.952  0.00  0.00    +0.045 A 
BRANCH   8  10
ATOM     10  N   UNL     1       7.120  -4.489  -1.157  0.00  0.00    +0.056 N 
ATOM     11  O   UNL     1       7.124  -4.907  -2.291  0.00  0.00    -0.126 OA
ATOM     12  O   UNL     1       8.123  -4.001  -0.689  0.00  0.00    -0.126 OA
ENDBRANCH   8  10
ENDBRANCH   2   4
BRANCH   1  13
ATOM     13  C   UNL     1       2.284  -3.522   2.994  0.00  0.00    +0.074 C 
ATOM     14  C   UNL     1       1.916  -4.999   3.149  0.00  0.00    +0.028 C 
BRANCH  13  15
ATOM     15  C   UNL     1       2.420  -3.184   1.508  0.00  0.00    +0.020 C 
BRANCH  15  16
ATOM     16  C   UNL     1       1.633  -1.909   1.201  0.00  0.00    -0.017 C 
BRANCH  16  17
ATOM     17  C   UNL     1       1.769  -1.571  -0.285  0.00  0.00    -0.079 C 
BRANCH  17  18
ATOM     18  N   UNL     1       0.911  -0.422  -0.607  0.00  0.00    +0.379 N 
ATOM     19  H   UNL     1      -0.052  -0.662  -0.428  0.00  0.00    -0.082 HD
BRANCH  18  21
ATOM     20  C   UNL     1       0.323   1.880  -0.016  0.00  0.00    -0.017 C 
ATOM     21  C   UNL     1       1.294   0.724   0.229  0.00  0.00    -0.082 C 
ENDBRANCH  18  21
BRANCH  18  22
ATOM     22  C   UNL     1       1.073  -0.071  -2.024  0.00  0.00    -0.082 C 
ATOM     23  C   UNL     1       0.465  -1.172  -2.895  0.00  0.00    -0.017 C 
ENDBRANCH  18  22
ENDBRANCH  17  18
ENDBRANCH  16  17
ENDBRANCH  15  16
ENDBRANCH  13  15
ENDBRANCH   1  13
BRANCH   1  24
ATOM     24  C   UNL     1       3.572  -2.566   4.960  0.00  0.00    +0.143 C 
BRANCH  24  25
ATOM     25  C   UNL     1       3.472  -3.573   6.077  0.00  0.00    -0.026 A 
ATOM     26  C   UNL     1       2.231  -3.954   6.552  0.00  0.00    +0.009 A 
ATOM     27  C   UNL     1       2.134  -4.878   7.576  0.00  0.00    +0.050 A 
ATOM     28  C   UNL     1       3.281  -5.424   8.128  0.00  0.00    +0.162 A 
ATOM     29  C   UNL     1       4.530  -5.040   7.649  0.00  0.00    +0.163 A 
ATOM     30  C   UNL     1       4.620  -4.118   6.619  0.00  0.00    +0.054 A 
BRANCH  28  31
ATOM     31  O   UNL     1       3.187  -6.332   9.136  0.00  0.00    -0.491 OA
ATOM     32  C   UNL     1       1.873  -6.678   9.577  0.00  0.00    +0.277 C 
ENDBRANCH  28  31
BRANCH  29  33
ATOM     33  O   UNL     1       5.660  -5.573   8.188  0.00  0.00    -0.484 OA
BRANCH  33  34
ATOM     34  C   UNL     1       6.907  -5.133   7.646  0.00  0.00    +0.264 C 
BRANCH  34  35
ATOM     35  C   UNL     1       8.038  -5.826   8.361  0.00  0.00    -0.010 A 
ATOM     36  C   UNL     1       8.588  -5.260   9.496  0.00  0.00    +0.007 A 
ATOM     37  C   UNL     1       9.626  -5.896  10.152  0.00  0.00    +0.000 A 
ATOM     38  C   UNL     1      10.112  -7.098   9.674  0.00  0.00    +0.000 A 
ATOM     39  C   UNL     1       9.561  -7.665   8.540  0.00  0.00    +0.000 A 
ATOM     40  C   UNL     1       8.521  -7.031   7.886  0.00  0.00    +0.007 A 
ENDBRANCH  34  35
ENDBRANCH  33  34
ENDBRANCH  29  33
ENDBRANCH  24  25
ENDBRANCH   1  24
TORSDOF 15
