REMARK  Name = ZINC39315069
REMARK  5 active torsions:
REMARK  status: ('A' for Active; 'I' for Inactive)
REMARK    1  A    between atoms: C_6  and  C_7
REMARK    2  A    between atoms: N_8  and  C_9
REMARK    3  A    between atoms: C_12  and  C_15
REMARK    4  A    between atoms: C_21  and  N_25
REMARK    5  A    between atoms: C_26  and  C_27
REMARK                            x       y       z     vdW  Elec       q    Type
REMARK                         _______ _______ _______ _____ _____    ______ ____
ROOT
ATOM      1  C   UNL     1      -6.082  -4.966   0.034  0.00  0.00    +0.206 C 
ATOM      2  N   UNL     1      -6.661  -4.964   1.382  0.00  0.00    -0.360 N 
ATOM      3  C   UNL     1      -6.737  -6.202   1.779  0.00  0.00    +0.061 A 
ATOM      4  C   UNL     1      -7.228  -6.806   3.028  0.00  0.00    +0.029 A 
ATOM      5  C   UNL     1      -7.191  -8.142   3.178  0.00  0.00    +0.030 A 
ATOM      6  C   UNL     1      -6.670  -9.011   2.120  0.00  0.00    +0.066 A 
ATOM      7  C   UNL     1      -6.200  -8.496   0.936  0.00  0.00    +0.055 A 
ATOM      8  C   UNL     1      -6.211  -7.095   0.712  0.00  0.00    +0.062 A 
ATOM      9  N   UNL     1      -5.829  -6.370  -0.308  0.00  0.00    -0.360 N 
ATOM     10  H   UNL     1      -6.936  -4.183   1.887  0.00  0.00    +0.162 HD
ATOM     11  H   UNL     1      -5.448  -6.700  -1.137  0.00  0.00    +0.162 HD
ENDROOT
BRANCH   1  15
ATOM     12  C   UNL     1      -2.413  -2.767   0.010  0.00  0.00    +0.064 A 
ATOM     13  C   UNL     1      -3.448  -2.396   0.872  0.00  0.00    +0.028 A 
ATOM     14  C   UNL     1      -4.629  -3.110   0.874  0.00  0.00    +0.009 A 
ATOM     15  C   UNL     1      -4.789  -4.191   0.025  0.00  0.00    -0.005 A 
ATOM     16  C   UNL     1      -3.768  -4.564  -0.831  0.00  0.00    +0.009 A 
ATOM     17  C   UNL     1      -2.585  -3.856  -0.848  0.00  0.00    +0.028 A 
BRANCH  12  19
ATOM     18  C   UNL     1      -1.261  -0.761   0.010  0.00  0.00    +0.119 C 
ATOM     19  N   UNL     1      -1.240  -2.063   0.003  0.00  0.00    -0.255 NA
BRANCH  18  25
ATOM     20  C   UNL     1      -0.017   1.394   0.010  0.00  0.00    +0.011 A 
ATOM     21  C   UNL     1       1.169   2.096   0.002  0.00  0.00    +0.020 A 
ATOM     22  C   UNL     1       2.378   1.420  -0.013  0.00  0.00    +0.041 A 
ATOM     23  C   UNL     1       2.405   0.035  -0.021  0.00  0.00    +0.020 A 
ATOM     24  C   UNL     1       1.226  -0.680  -0.013  0.00  0.00    +0.011 A 
ATOM     25  C   UNL     1       0.002  -0.004   0.002  0.00  0.00    -0.007 A 
ATOM     26 CL   UNL     1       3.867   2.312  -0.023  0.00  0.00    -0.084 Cl
ENDBRANCH  18  25
ENDBRANCH  12  19
ENDBRANCH   1  15
BRANCH   6  27
ATOM     27  N   UNL     1      -6.651 -10.359   2.315  0.00  0.00    -0.255 NA
ATOM     28  C   UNL     1      -6.228 -10.849   3.450  0.00  0.00    +0.119 C 
BRANCH  28  29
ATOM     29  C   UNL     1      -6.207 -12.304   3.660  0.00  0.00    -0.007 A 
ATOM     30  C   UNL     1      -6.633 -13.167   2.644  0.00  0.00    +0.011 A 
ATOM     31  C   UNL     1      -6.610 -14.530   2.848  0.00  0.00    +0.020 A 
ATOM     32  C   UNL     1      -6.166 -15.046   4.055  0.00  0.00    +0.041 A 
ATOM     33  C   UNL     1      -5.742 -14.197   5.065  0.00  0.00    +0.020 A 
ATOM     34  C   UNL     1      -5.754 -12.832   4.874  0.00  0.00    +0.011 A 
ATOM     35 CL   UNL     1      -6.141 -16.764   4.303  0.00  0.00    -0.084 Cl
ENDBRANCH  28  29
ENDBRANCH   6  27
TORSDOF 5
