REMARK  Name = ZINC06300076
REMARK  9 active torsions:
REMARK  status: ('A' for Active; 'I' for Inactive)
REMARK    1  A    between atoms: C_1  and  C_2
REMARK    2  A    between atoms: C_3  and  C_9
REMARK    3  A    between atoms: C_4  and  O_8
REMARK    4  A    between atoms: C_9  and  C_10
REMARK    5  A    between atoms: C_9  and  C_26
REMARK    6  A    between atoms: N_12  and  C_20
REMARK    7  A    between atoms: C_14  and  C_15
REMARK    8  A    between atoms: C_27  and  C_33
REMARK    9  A    between atoms: C_31  and  O_32
REMARK                            x       y       z     vdW  Elec       q    Type
REMARK                         _______ _______ _______ _____ _____    ______ ____
ROOT
ATOM      1  C   UNL     1      -0.174  -0.303  -2.567  0.00  0.00    +0.096 C 
ENDROOT
BRANCH   1   4
ATOM      2  C   UNL     1       2.632  -0.909  -1.227  0.00  0.00    +0.068 C 
ATOM      3  C   UNL     1       1.295  -1.407  -0.742  0.00  0.00    +0.068 A 
ATOM      4  C   UNL     1       0.057  -1.139  -1.335  0.00  0.00    +0.048 A 
ATOM      5  C   UNL     1      -0.900  -1.766  -0.601  0.00  0.00    +0.213 A 
ATOM      6  N   UNL     1      -0.283  -2.404   0.417  0.00  0.00    -0.247 N 
ATOM      7  H   UNL     1      -0.715  -2.936   1.104  0.00  0.00    +0.192 HD
ATOM      8  N   UNL     1       1.093  -2.168   0.303  0.00  0.00    -0.176 NA
BRANCH   5   9
ATOM      9  O   UNL     1      -2.236  -1.752  -0.846  0.00  0.00    -0.492 OA
ATOM     10  H   UNL     1      -2.551  -2.516  -1.348  0.00  0.00    +0.294 HD
ENDBRANCH   5   9
ENDBRANCH   1   4
BRANCH   1  11
ATOM     11  C   UNL     1      -1.452  -0.740  -3.237  0.00  0.00    +0.048 A 
ATOM     12  C   UNL     1      -2.495   0.059  -3.560  0.00  0.00    +0.041 A 
ATOM     13  N   UNL     1      -3.439  -0.710  -4.143  0.00  0.00    -0.278 N 
ATOM     14  N   UNL     1      -2.963  -2.027  -4.181  0.00  0.00    -0.136 NA
ATOM     15  H   UNL     1      -4.296  -0.404  -4.477  0.00  0.00    +0.189 HD
ATOM     16  C   UNL     1      -1.767  -2.046  -3.643  0.00  0.00    +0.236 A 
ATOM     17  C   UNL     1      -2.586   1.542  -3.313  0.00  0.00    +0.065 C 
BRANCH  16  18
ATOM     18  O   UNL     1      -0.973  -3.140  -3.500  0.00  0.00    -0.491 OA
ATOM     19  H   UNL     1      -1.159  -3.660  -2.706  0.00  0.00    +0.294 HD
ENDBRANCH  16  18
ENDBRANCH   1  11
BRANCH   1  20
ATOM     20  C   UNL     1       0.980  -0.483  -3.520  0.00  0.00    +0.011 A 
ATOM     21  C   UNL     1       1.411  -1.655  -4.033  0.00  0.00    +0.119 A 
ATOM     22  N   UNL     1       2.468  -1.392  -4.846  0.00  0.00    -0.239 N 
ATOM     23  N   UNL     1       2.693  -0.009  -4.831  0.00  0.00    -0.166 NA
ATOM     24  C   UNL     1       1.796   0.543  -4.038  0.00  0.00    +0.104 A 
BRANCH  22  25
ATOM     25  C   UNL     1       3.204  -2.337  -5.571  0.00  0.00    +0.065 A 
ATOM     26  C   UNL     1       2.870  -3.683  -5.499  0.00  0.00    +0.028 A 
ATOM     27  C   UNL     1       3.598  -4.613  -6.215  0.00  0.00    +0.002 A 
ATOM     28  C   UNL     1       4.659  -4.205  -7.003  0.00  0.00    +0.000 A 
ATOM     29  C   UNL     1       4.994  -2.866  -7.077  0.00  0.00    +0.002 A 
ATOM     30  C   UNL     1       4.266  -1.930  -6.367  0.00  0.00    +0.028 A 
ENDBRANCH  22  25
BRANCH  24  31
ATOM     31  C   UNL     1       1.670   1.987  -3.742  0.00  0.00    +0.040 A 
ATOM     32  C   UNL     1       2.653   2.932  -3.625  0.00  0.00    +0.018 A 
ATOM     33  C   UNL     1       2.292   4.231  -3.340  0.00  0.00    +0.008 A 
ATOM     34  C   UNL     1       0.978   4.534  -3.186  0.00  0.00    +0.046 A 
ATOM     35  S   UNL     1       0.196   2.951  -3.453  0.00  0.00    -0.095 S 
ENDBRANCH  24  31
ENDBRANCH   1  20
TORSDOF 7
