REMARK  Name = ZINC09111296
REMARK  8 active torsions:
REMARK  status: ('A' for Active; 'I' for Inactive)
REMARK    1  A    between atoms: C_1  and  C_2
REMARK    2  A    between atoms: C_14  and  N_27
REMARK    3  A    between atoms: N_27  and  C_28
REMARK    4  A    between atoms: C_28  and  C_29
REMARK    5  A    between atoms: C_29  and  N_64
REMARK    6  A    between atoms: C_30  and  N_64
REMARK    7  A    between atoms: C_31  and  C_32
REMARK    8  A    between atoms: C_31  and  N_64
REMARK                            x       y       z     vdW  Elec       q    Type
REMARK                         _______ _______ _______ _____ _____    ______ ____
ROOT
ATOM      1  C   UNL     1       7.284   3.841   0.016  0.00  0.00    +0.044 C 
ATOM      2  C   UNL     1       5.964   3.114   0.022  0.00  0.00    -0.048 A 
ATOM      3  C   UNL     1       5.937   1.731   0.041  0.00  0.00    +0.007 A 
ATOM      4  C   UNL     1       4.730   1.057   0.046  0.00  0.00    +0.048 A 
ATOM      5  C   UNL     1       3.539   1.767   0.033  0.00  0.00    +0.152 A 
ATOM      6  C   UNL     1       3.567   3.160   0.014  0.00  0.00    +0.083 A 
ATOM      7  C   UNL     1       4.782   3.830   0.009  0.00  0.00    +0.032 A 
ATOM      8  N   UNL     1       2.367   3.879   0.001  0.00  0.00    -0.349 N 
ATOM      9  H   UNL     1       2.373   4.849  -0.013  0.00  0.00    +0.166 HD
ATOM     10  C   UNL     1       1.167   3.183   0.007  0.00  0.00    +0.094 A 
ATOM     11  C   UNL     1       1.177   1.776   0.028  0.00  0.00    +0.154 A 
ATOM     12  O   UNL     1       2.354   1.104   0.040  0.00  0.00    -0.452 OA
ATOM     13  C   UNL     1      -0.013   1.076   0.035  0.00  0.00    +0.072 A 
ATOM     14  C   UNL     1      -1.234   1.750   0.017  0.00  0.00    +0.042 A 
ATOM     15  C   UNL     1      -1.261   3.151   0.002  0.00  0.00    +0.056 A 
ATOM     16  C   UNL     1      -0.045   3.874  -0.005  0.00  0.00    +0.062 A 
ATOM     17  C   UNL     1      -0.062   5.343  -0.026  0.00  0.00    +0.197 A 
ATOM     18  O   UNL     1       0.984   5.965  -0.032  0.00  0.00    -0.287 OA
ATOM     19  C   UNL     1      -1.351   6.063  -0.040  0.00  0.00    +0.033 A 
ATOM     20  C   UNL     1      -1.377   7.456  -0.060  0.00  0.00    +0.012 A 
ATOM     21  C   UNL     1      -2.589   8.122  -0.072  0.00  0.00    +0.001 A 
ATOM     22  C   UNL     1      -3.778   7.413  -0.064  0.00  0.00    +0.001 A 
ATOM     23  C   UNL     1      -3.770   6.031  -0.045  0.00  0.00    +0.012 A 
ATOM     24  C   UNL     1      -2.559   5.344  -0.032  0.00  0.00    +0.033 A 
ATOM     25  C   UNL     1      -2.541   3.867  -0.011  0.00  0.00    +0.196 A 
ATOM     26  O   UNL     1      -3.587   3.245  -0.005  0.00  0.00    -0.287 OA
ENDROOT
BRANCH  14  27
ATOM     27  N   UNL     1      -2.420   1.035   0.020  0.00  0.00    -0.345 N 
ATOM     28  H   UNL     1      -3.267   1.500   0.099  0.00  0.00    +0.146 HD
BRANCH  27  29
ATOM     29  C   UNL     1      -2.394  -0.425  -0.099  0.00  0.00    +0.083 C 
BRANCH  29  30
ATOM     30  C   UNL     1      -3.826  -0.964  -0.070  0.00  0.00    -0.060 C 
BRANCH  30  32
ATOM     31  C   UNL     1      -3.173  -3.041   0.990  0.00  0.00    -0.096 C 
ATOM     32  N   UNL     1      -3.785  -2.435  -0.211  0.00  0.00    +0.382 N 
ATOM     33  H   UNL     1      -3.217  -2.675  -1.032  0.00  0.00    -0.082 HD
BRANCH  32  34
ATOM     34  C   UNL     1      -5.152  -2.962  -0.402  0.00  0.00    -0.043 C 
BRANCH  34  35
ATOM     35  C   UNL     1      -5.064  -4.423  -0.762  0.00  0.00    -0.064 A 
ATOM     36  C   UNL     1      -4.960  -4.804  -2.087  0.00  0.00    +0.002 A 
ATOM     37  C   UNL     1      -4.874  -6.143  -2.417  0.00  0.00    +0.000 A 
ATOM     38  C   UNL     1      -4.902  -7.103  -1.422  0.00  0.00    +0.000 A 
ATOM     39  C   UNL     1      -5.012  -6.723  -0.098  0.00  0.00    +0.000 A 
ATOM     40  C   UNL     1      -5.093  -5.383   0.232  0.00  0.00    +0.002 A 
ENDBRANCH  34  35
ENDBRANCH  32  34
ENDBRANCH  30  32
ENDBRANCH  29  30
ENDBRANCH  27  29
ENDBRANCH  14  27
TORSDOF 6
