REMARK  Name = ZINC09054249
REMARK  8 active torsions:
REMARK  status: ('A' for Active; 'I' for Inactive)
REMARK    1  A    between atoms: C_1  and  C_2
REMARK    2  A    between atoms: C_4  and  C_35
REMARK    3  A    between atoms: C_11  and  C_13
REMARK    4  A    between atoms: C_14  and  C_20
REMARK    5  A    between atoms: C_17  and  O_19
REMARK    6  A    between atoms: C_25  and  O_26
REMARK    7  A    between atoms: O_26  and  C_27
REMARK    8  A    between atoms: C_27  and  C_28
REMARK                            x       y       z     vdW  Elec       q    Type
REMARK                         _______ _______ _______ _____ _____    ______ ____
ROOT
ATOM      1  C   UNL     1      -0.018   1.503   0.010  0.00  0.00    +0.066 C 
ATOM      2  C   UNL     1       0.002  -0.004   0.002  0.00  0.00    +0.044 A 
ATOM      3  C   UNL     1       0.006  -0.699  -1.197  0.00  0.00    +0.046 A 
ATOM      4  C   UNL     1       0.025  -2.085  -1.159  0.00  0.00    +0.044 A 
ATOM      5  N   UNL     1       0.039  -2.697   0.013  0.00  0.00    -0.216 NA
ATOM      6  C   UNL     1       0.035  -2.003   1.140  0.00  0.00    +0.254 A 
ATOM      7  N   UNL     1       0.022  -0.680   1.139  0.00  0.00    -0.216 NA
ATOM      8  N   UNL     1       0.049  -2.682   2.356  0.00  0.00    -0.179 N 
ATOM      9  C   UNL     1       0.042  -2.117   3.587  0.00  0.00    +0.167 A 
ATOM     10  C   UNL     1       0.053  -3.153   4.511  0.00  0.00    +0.028 A 
ATOM     11  C   UNL     1       0.075  -4.346   3.813  0.00  0.00    +0.066 A 
ATOM     12  N   UNL     1       0.069  -4.076   2.527  0.00  0.00    -0.167 NA
ATOM     13  C   UNL     1       0.097  -5.724   4.423  0.00  0.00    +0.068 C 
ATOM     14  C   UNL     1       0.035  -2.886   5.995  0.00  0.00    +0.067 C 
ATOM     15  C   UNL     1       0.719  -1.534   6.233  0.00  0.00    +0.108 C 
ATOM     16  C   UNL     1       0.292  -0.517   5.215  0.00  0.00    +0.190 C 
ATOM     17  N   UNL     1       0.006  -0.812   3.982  0.00  0.00    -0.197 NA
ATOM     18  C   UNL     1       0.029  -2.883  -2.438  0.00  0.00    +0.066 C 
ENDROOT
BRANCH  14  19
ATOM     19  C   UNL     1      -1.388  -2.834   6.488  0.00  0.00    +0.002 A 
ATOM     20  C   UNL     1      -2.265  -1.900   5.972  0.00  0.00    +0.008 A 
ATOM     21  C   UNL     1      -3.571  -1.851   6.424  0.00  0.00    +0.001 A 
ATOM     22  C   UNL     1      -4.003  -2.738   7.393  0.00  0.00    +0.004 A 
ATOM     23  C   UNL     1      -3.130  -3.674   7.912  0.00  0.00    +0.046 A 
ATOM     24  C   UNL     1      -1.821  -3.729   7.457  0.00  0.00    +0.125 A 
BRANCH  24  25
ATOM     25  O   UNL     1      -0.962  -4.653   7.962  0.00  0.00    -0.487 OA
BRANCH  25  26
ATOM     26  C   UNL     1      -1.476  -5.541   8.956  0.00  0.00    +0.264 C 
BRANCH  26  27
ATOM     27  C   UNL     1      -0.388  -6.487   9.395  0.00  0.00    -0.008 A 
ATOM     28  C   UNL     1      -0.211  -7.690   8.735  0.00  0.00    +0.007 A 
ATOM     29  C   UNL     1       0.786  -8.559   9.136  0.00  0.00    +0.003 A 
ATOM     30  C   UNL     1       1.607  -8.227  10.198  0.00  0.00    +0.038 A 
ATOM     31  C   UNL     1       1.431  -7.024  10.859  0.00  0.00    +0.124 A 
ATOM     32  C   UNL     1       0.435  -6.151  10.452  0.00  0.00    +0.045 A 
ATOM     33  F   UNL     1       2.232  -6.699  11.896  0.00  0.00    -0.205 F 
ENDBRANCH  26  27
ENDBRANCH  25  26
ENDBRANCH  24  25
ENDBRANCH  14  19
BRANCH  16  34
ATOM     34  O   UNL     1       0.202   0.772   5.600  0.00  0.00    -0.495 OA
ATOM     35  H   UNL     1      -0.078   1.374   4.896  0.00  0.00    +0.293 HD
ENDBRANCH  16  34
TORSDOF 5
