REMARK  Name = ZINC01130448
REMARK  6 active torsions:
REMARK  status: ('A' for Active; 'I' for Inactive)
REMARK    1  A    between atoms: C_1  and  C_2
REMARK    2  A    between atoms: C_5  and  N_8
REMARK    3  A    between atoms: C_12  and  C_15
REMARK    4  A    between atoms: N_17  and  C_18
REMARK    5  A    between atoms: C_32  and  C_34
REMARK    6  A    between atoms: C_32  and  C_35
REMARK                            x       y       z     vdW  Elec       q    Type
REMARK                         _______ _______ _______ _____ _____    ______ ____
ROOT
ATOM      1  N   UNL     1       6.458   8.605   0.405  0.00  0.00    -0.280 N 
ATOM      2  C   UNL     1       7.762   8.370   0.664  0.00  0.00    +0.038 A 
ATOM      3  C   UNL     1       8.277   7.088   0.566  0.00  0.00    +0.038 A 
ATOM      4  C   UNL     1       7.451   6.007   0.187  0.00  0.00    +0.031 A 
ATOM      5  C   UNL     1       6.112   6.251  -0.089  0.00  0.00    +0.102 A 
ATOM      6  C   UNL     1       5.618   7.624   0.038  0.00  0.00    +0.268 A 
ATOM      7  O   UNL     1       4.447   7.875  -0.188  0.00  0.00    -0.266 OA
ATOM      8  C   UNL     1       9.696   6.831   0.862  0.00  0.00    +0.165 C 
ATOM      9  O   UNL     1      10.116   5.699   0.983  0.00  0.00    -0.292 OA
ATOM     10  C   UNL     1      10.616   8.024   1.010  0.00  0.00    +0.086 C 
ATOM     11  C   UNL     1       9.861   9.080   1.830  0.00  0.00    -0.023 C 
ATOM     12  C   UNL     1       8.632   9.538   1.051  0.00  0.00    +0.061 C 
ATOM     13  C   UNL     1       9.424   8.474   3.165  0.00  0.00    +0.011 C 
ATOM     14  C   UNL     1      10.778  10.277   2.089  0.00  0.00    +0.011 C 
ENDROOT
BRANCH   1  19
ATOM     15  C   UNL     1       4.468  13.898   0.885  0.00  0.00    +0.044 C 
ATOM     16  C   UNL     1       4.997  12.492   0.757  0.00  0.00    -0.050 A 
ATOM     17  C   UNL     1       4.594  11.520   1.655  0.00  0.00    +0.005 A 
ATOM     18  C   UNL     1       5.077  10.231   1.540  0.00  0.00    +0.026 A 
ATOM     19  C   UNL     1       5.967   9.911   0.524  0.00  0.00    +0.050 A 
ATOM     20  C   UNL     1       6.374  10.892  -0.372  0.00  0.00    +0.026 A 
ATOM     21  C   UNL     1       5.883  12.177  -0.256  0.00  0.00    +0.005 A 
ENDBRANCH   1  19
BRANCH   5  22
ATOM     22  C   UNL     1       5.213   5.158  -0.493  0.00  0.00    +0.254 C 
ATOM     23  O   UNL     1       5.614   4.010  -0.494  0.00  0.00    -0.270 OA
ATOM     24  N   UNL     1       3.946   5.430  -0.862  0.00  0.00    -0.281 N 
ATOM     25  H   UNL     1       3.648   6.351  -0.932  0.00  0.00    +0.155 HD
BRANCH  24  26
ATOM     26  C   UNL     1       3.063   4.389  -1.144  0.00  0.00    +0.034 A 
ATOM     27  C   UNL     1       3.526   3.243  -1.779  0.00  0.00    +0.024 A 
ATOM     28  C   UNL     1       2.661   2.203  -2.064  0.00  0.00    +0.015 A 
ATOM     29  C   UNL     1       1.321   2.304  -1.714  0.00  0.00    +0.049 A 
ATOM     30  C   UNL     1       0.848   3.466  -1.068  0.00  0.00    +0.051 A 
ATOM     31  C   UNL     1       1.720   4.502  -0.787  0.00  0.00    +0.037 A 
ATOM     32  C   UNL     1      -0.597   3.243  -0.844  0.00  0.00    +0.251 C 
ATOM     33  O   UNL     1      -1.360   4.022  -0.310  0.00  0.00    -0.270 OA
ATOM     34  N   UNL     1      -0.924   2.034  -1.336  0.00  0.00    -0.248 N 
ATOM     35  C   UNL     1       0.151   1.417  -1.859  0.00  0.00    +0.251 C 
ATOM     36  O   UNL     1       0.156   0.315  -2.370  0.00  0.00    -0.270 OA
ATOM     37  H   UNL     1      -1.817   1.657  -1.314  0.00  0.00    +0.158 HD
ENDBRANCH  24  26
ENDBRANCH   5  22
TORSDOF 3
