REMARK  Name = ZINC39911359
REMARK  14 active torsions:
REMARK  status: ('A' for Active; 'I' for Inactive)
REMARK    1  A    between atoms: C_1  and  C_2
REMARK    2  A    between atoms: C_4  and  C_40
REMARK    3  A    between atoms: N_15  and  C_28
REMARK    4  A    between atoms: C_16  and  C_18
REMARK    5  A    between atoms: C_21  and  C_24
REMARK    6  A    between atoms: C_24  and  C_25
REMARK    7  A    between atoms: C_24  and  C_26
REMARK    8  A    between atoms: C_24  and  C_27
REMARK    9  A    between atoms: C_28  and  C_29
REMARK   10  A    between atoms: C_29  and  C_30
REMARK   11  A    between atoms: C_33  and  O_38
REMARK   12  A    between atoms: C_34  and  O_36
REMARK   13  A    between atoms: O_36  and  C_37
REMARK   14  A    between atoms: O_38  and  C_39
REMARK                            x       y       z     vdW  Elec       q    Type
REMARK                         _______ _______ _______ _____ _____    ______ ____
ROOT
ATOM      1  C   UNL     1      -0.018   1.503   0.010  0.00  0.00    +0.044 C 
ATOM      2  C   UNL     1       0.002  -0.004   0.002  0.00  0.00    -0.049 A 
ATOM      3  C   UNL     1       0.006  -0.689  -1.205  0.00  0.00    +0.010 A 
ATOM      4  C   UNL     1       0.021  -2.065  -1.235  0.00  0.00    -0.007 A 
ATOM      5  C   UNL     1       0.035  -2.790  -0.043  0.00  0.00    +0.142 A 
ATOM      6  C   UNL     1       0.037  -2.086   1.172  0.00  0.00    +0.065 A 
ATOM      7  C   UNL     1       0.023  -0.692   1.183  0.00  0.00    +0.018 A 
ATOM      8  C   UNL     1       0.068  -2.849   2.446  0.00  0.00    +0.199 A 
ATOM      9  O   UNL     1      -0.097  -2.332   3.537  0.00  0.00    -0.287 OA
ATOM     10  C   UNL     1       0.314  -4.283   2.265  0.00  0.00    +0.072 A 
ATOM     11  C   UNL     1       0.294  -4.850   1.022  0.00  0.00    +0.199 A 
ATOM     12  O   UNL     1       0.043  -4.141  -0.096  0.00  0.00    -0.449 OA
ATOM     13  C   UNL     1       0.583  -6.288   1.166  0.00  0.00    +0.283 C 
ATOM     14  O   UNL     1       0.643  -7.081   0.247  0.00  0.00    -0.267 OA
ATOM     15  N   UNL     1       0.770  -6.596   2.465  0.00  0.00    -0.283 N 
ATOM     16  C   UNL     1       0.614  -5.362   3.253  0.00  0.00    +0.144 C 
ATOM     17  C   UNL     1       0.023  -2.790  -2.557  0.00  0.00    +0.047 C 
ENDROOT
BRANCH  16  18
ATOM     18  C   UNL     1       1.891  -5.051   3.990  0.00  0.00    -0.022 A 
ATOM     19  C   UNL     1       3.112  -5.280   3.385  0.00  0.00    +0.006 A 
ATOM     20  C   UNL     1       4.284  -4.995   4.061  0.00  0.00    +0.004 A 
ATOM     21  C   UNL     1       4.234  -4.480   5.343  0.00  0.00    -0.042 A 
ATOM     22  C   UNL     1       3.012  -4.251   5.949  0.00  0.00    +0.004 A 
ATOM     23  C   UNL     1       1.841  -4.532   5.271  0.00  0.00    +0.006 A 
BRANCH  21  24
ATOM     24  C   UNL     1       5.511  -4.170   6.081  0.00  0.00    -0.013 C 
ATOM     25  C   UNL     1       6.313  -3.130   5.297  0.00  0.00    +0.015 C 
ATOM     26  C   UNL     1       5.177  -3.617   7.468  0.00  0.00    +0.015 C 
ATOM     27  C   UNL     1       6.338  -5.449   6.228  0.00  0.00    +0.015 C 
ENDBRANCH  21  24
ENDBRANCH  16  18
BRANCH  15  28
ATOM     28  C   UNL     1       1.076  -7.926   2.999  0.00  0.00    +0.114 C 
BRANCH  28  29
ATOM     29  C   UNL     1       2.593  -8.120   3.045  0.00  0.00    +0.054 C 
BRANCH  29  30
ATOM     30  C   UNL     1       2.907  -9.488   3.595  0.00  0.00    -0.042 A 
ATOM     31  C   UNL     1       3.070  -9.664   4.956  0.00  0.00    +0.007 A 
ATOM     32  C   UNL     1       3.358 -10.916   5.465  0.00  0.00    +0.049 A 
ATOM     33  C   UNL     1       3.484 -11.999   4.610  0.00  0.00    +0.161 A 
ATOM     34  C   UNL     1       3.320 -11.822   3.240  0.00  0.00    +0.162 A 
ATOM     35  C   UNL     1       3.026 -10.565   2.737  0.00  0.00    +0.053 A 
BRANCH  34  36
ATOM     36  O   UNL     1       3.443 -12.882   2.396  0.00  0.00    -0.491 OA
ATOM     37  C   UNL     1       3.262 -12.627   1.002  0.00  0.00    +0.277 C 
ENDBRANCH  34  36
BRANCH  33  38
ATOM     38  O   UNL     1       3.768 -13.232   5.109  0.00  0.00    -0.491 OA
ATOM     39  C   UNL     1       3.924 -13.338   6.526  0.00  0.00    +0.277 C 
ENDBRANCH  33  38
ENDBRANCH  29  30
ENDBRANCH  28  29
ENDBRANCH  15  28
TORSDOF 7
