REMARK  Name = ZINC39623223
REMARK  4 active torsions:
REMARK  status: ('A' for Active; 'I' for Inactive)
REMARK    1  A    between atoms: C_5  and  C_7
REMARK    2  A    between atoms: C_7  and  N_8
REMARK    3  A    between atoms: C_9  and  C_11
REMARK    4  A    between atoms: C_22  and  C_24
REMARK                            x       y       z     vdW  Elec       q    Type
REMARK                         _______ _______ _______ _____ _____    ______ ____
ROOT
ATOM      1  C   UNL     1       1.819  -4.511   2.961  0.00  0.00    +0.100 C 
ATOM      2  C   UNL     1       0.745  -3.986   3.940  0.00  0.00    +0.121 C 
ATOM      3  N   UNL     1      -0.262  -5.071   4.008  0.00  0.00    -0.297 N 
ATOM      4  C   UNL     1       0.539  -6.319   4.006  0.00  0.00    +0.115 C 
ATOM      5  C   UNL     1       1.683  -6.042   3.010  0.00  0.00    -0.004 C 
ATOM      6  C   UNL     1       1.322  -6.585   1.630  0.00  0.00    -0.010 C 
ATOM      7  C   UNL     1       1.248  -8.113   1.691  0.00  0.00    -0.082 C 
ATOM      8  N   UNL     1       2.543  -8.650   2.127  0.00  0.00    +0.379 N 
ATOM      9  C   UNL     1       2.839  -8.198   3.492  0.00  0.00    -0.082 C 
ATOM     10  C   UNL     1       2.980  -6.673   3.507  0.00  0.00    -0.010 C 
ATOM     11  C   UNL     1      -1.603  -4.951   4.060  0.00  0.00    +0.260 C 
ATOM     12  O   UNL     1      -2.300  -5.942   4.113  0.00  0.00    -0.271 OA
ATOM     13  H   UNL     1       2.510  -9.659   2.108  0.00  0.00    -0.086 HD
ATOM     14  H   UNL     1       3.267  -8.328   1.503  0.00  0.00    -0.086 HD
ENDROOT
BRANCH  11  15
ATOM     15  C   UNL     1      -2.238  -3.584   4.052  0.00  0.00    +0.296 C 
ATOM     16  C   UNL     1      -1.861  -2.831   5.335  0.00  0.00    +0.283 C 
ATOM     17  O   UNL     1      -2.491  -1.545   5.302  0.00  0.00    -0.484 OA
ATOM     18  C   UNL     1      -3.804  -1.517   4.945  0.00  0.00    +0.162 A 
ATOM     19  C   UNL     1      -4.563  -0.393   5.234  0.00  0.00    +0.049 A 
ATOM     20  C   UNL     1      -5.897  -0.347   4.875  0.00  0.00    +0.004 A 
ATOM     21  C   UNL     1      -6.478  -1.422   4.227  0.00  0.00    +0.004 A 
ATOM     22  C   UNL     1      -5.727  -2.545   3.937  0.00  0.00    +0.049 A 
ATOM     23  C   UNL     1      -4.388  -2.598   4.295  0.00  0.00    +0.163 A 
ATOM     24  O   UNL     1      -3.663  -3.714   4.010  0.00  0.00    -0.473 OA
ENDBRANCH  11  15
BRANCH   1  26
ATOM     25  N   UNL     1       2.574  -3.828   0.707  0.00  0.00    -0.311 N 
ATOM     26  C   UNL     1       1.552  -4.005   1.567  0.00  0.00    +0.218 C 
ATOM     27  O   UNL     1       0.417  -3.755   1.220  0.00  0.00    -0.275 OA
ATOM     28  H   UNL     1       3.482  -4.028   0.984  0.00  0.00    +0.149 HD
BRANCH  25  29
ATOM     29  C   UNL     1       2.314  -3.336  -0.648  0.00  0.00    +0.141 C 
BRANCH  29  34
ATOM     30  C   UNL     1       5.428  -1.902  -2.228  0.00  0.00    +0.000 A 
ATOM     31  C   UNL     1       6.000  -3.030  -2.786  0.00  0.00    +0.001 A 
ATOM     32  C   UNL     1       5.380  -4.258  -2.652  0.00  0.00    +0.020 A 
ATOM     33  C   UNL     1       4.186  -4.357  -1.960  0.00  0.00    +0.046 A 
ATOM     34  C   UNL     1       3.614  -3.228  -1.402  0.00  0.00    -0.012 A 
ATOM     35  C   UNL     1       4.236  -2.001  -1.537  0.00  0.00    +0.006 A 
ATOM     36 CL   UNL     1       3.406  -5.899  -1.792  0.00  0.00    -0.083 Cl
ENDBRANCH  29  34
ENDBRANCH  25  29
ENDBRANCH   1  26
TORSDOF 4
