REMARK  Name = ZINC03672059
REMARK  7 active torsions:
REMARK  status: ('A' for Active; 'I' for Inactive)
REMARK    1  A    between atoms: C_1  and  C_2
REMARK    2  A    between atoms: C_2  and  O_3
REMARK    3  A    between atoms: O_3  and  C_4
REMARK    4  A    between atoms: C_4  and  C_6
REMARK    5  A    between atoms: N_8  and  C_32
REMARK    6  A    between atoms: C_18  and  C_22
REMARK    7  A    between atoms: N_25  and  C_26
REMARK                            x       y       z     vdW  Elec       q    Type
REMARK                         _______ _______ _______ _____ _____    ______ ____
ROOT
ATOM      1  C   UNL     1      -1.311  -0.718  -0.022  0.00  0.00    +0.204 C 
ATOM      2  N   UNL     1      -2.535  -0.266   0.010  0.00  0.00    -0.162 NA
ATOM      3  N   UNL     1      -3.640  -1.092   0.024  0.00  0.00    -0.173 N 
ATOM      4  C   UNL     1      -3.343  -2.533   0.014  0.00  0.00    +0.254 C 
ATOM      5  S   UNL     1      -1.509  -2.493  -0.023  0.00  0.00    -0.029 S 
ATOM      6  N   UNL     1      -3.846  -3.158  -1.211  0.00  0.00    -0.291 N 
ATOM      7  C   UNL     1      -4.014  -4.520  -1.181  0.00  0.00    +0.082 A 
ATOM      8  C   UNL     1      -4.157  -5.247   0.011  0.00  0.00    +0.069 A 
ATOM      9  C   UNL     1      -4.353  -6.680  -0.143  0.00  0.00    -0.023 A 
ATOM     10  C   UNL     1      -4.357  -7.138  -1.415  0.00  0.00    -0.004 A 
ATOM     11  S   UNL     1      -4.113  -5.697  -2.420  0.00  0.00    -0.078 S 
ATOM     12  C   UNL     1      -4.533  -8.554  -1.866  0.00  0.00    +0.046 C 
ATOM     13  C   UNL     1      -4.346  -9.477  -0.654  0.00  0.00    -0.009 C 
ATOM     14  C   UNL     1      -5.173  -8.930   0.514  0.00  0.00    +0.008 C 
ATOM     15  C   UNL     1      -4.547  -7.634   1.030  0.00  0.00    +0.037 C 
ATOM     16  C   UNL     1      -4.821 -10.889  -1.002  0.00  0.00    +0.008 C 
ATOM     17  C   UNL     1      -4.108  -4.500   1.289  0.00  0.00    +0.257 C 
ATOM     18  O   UNL     1      -4.330  -5.048   2.353  0.00  0.00    -0.269 OA
ATOM     19  N   UNL     1      -3.809  -3.183   1.223  0.00  0.00    -0.219 N 
ATOM     20  H   UNL     1      -4.051  -2.636  -2.003  0.00  0.00    +0.151 HD
ENDROOT
BRANCH  19  21
ATOM     21  C   UNL     1      -3.956  -2.409   2.379  0.00  0.00    +0.041 A 
ATOM     22  C   UNL     1      -2.839  -1.857   2.994  0.00  0.00    +0.023 A 
ATOM     23  C   UNL     1      -2.989  -1.090   4.132  0.00  0.00    +0.002 A 
ATOM     24  C   UNL     1      -4.247  -0.879   4.665  0.00  0.00    +0.000 A 
ATOM     25  C   UNL     1      -5.360  -1.431   4.059  0.00  0.00    +0.002 A 
ATOM     26  C   UNL     1      -5.218  -2.196   2.917  0.00  0.00    +0.023 A 
ENDBRANCH  19  21
BRANCH   3  27
ATOM     27  C   UNL     1      -4.944  -0.597   0.052  0.00  0.00    +0.056 A 
ATOM     28  C   UNL     1      -6.022  -1.474   0.065  0.00  0.00    +0.025 A 
ATOM     29  C   UNL     1      -7.311  -0.981   0.098  0.00  0.00    +0.002 A 
ATOM     30  C   UNL     1      -7.531   0.384   0.106  0.00  0.00    +0.000 A 
ATOM     31  C   UNL     1      -6.461   1.261   0.087  0.00  0.00    +0.002 A 
ATOM     32  C   UNL     1      -5.169   0.775   0.060  0.00  0.00    +0.025 A 
ENDBRANCH   3  27
BRANCH   1  33
ATOM     33  C   UNL     1      -0.062   0.053  -0.045  0.00  0.00    +0.366 C 
ATOM     34  O   UNL     1       1.008  -0.523  -0.068  0.00  0.00    -0.243 OA
BRANCH  33  35
ATOM     35  O   UNL     1      -0.102   1.402  -0.040  0.00  0.00    -0.460 OA
BRANCH  35  37
ATOM     36  C   UNL     1       0.927   3.609  -0.053  0.00  0.00    +0.048 C 
ATOM     37  C   UNL     1       1.172   2.099  -0.063  0.00  0.00    +0.229 C 
ENDBRANCH  35  37
ENDBRANCH  33  35
ENDBRANCH   1  33
TORSDOF 5
