REMARK  Name = ZINC16633251
REMARK  11 active torsions:
REMARK  status: ('A' for Active; 'I' for Inactive)
REMARK    1  A    between atoms: C_1  and  C_2
REMARK    2  A    between atoms: C_2  and  C_4
REMARK    3  A    between atoms: C_2  and  N_58
REMARK    4  A    between atoms: N_6  and  C_7
REMARK    5  A    between atoms: C_10  and  O_13
REMARK    6  A    between atoms: O_13  and  C_14
REMARK    7  A    between atoms: C_14  and  C_15
REMARK    8  A    between atoms: C_21  and  N_58
REMARK    9  A    between atoms: C_22  and  C_23
REMARK   10  A    between atoms: C_22  and  N_58
REMARK   11  A    between atoms: N_25  and  C_26
REMARK                            x       y       z     vdW  Elec       q    Type
REMARK                         _______ _______ _______ _____ _____    ______ ____
ROOT
ATOM      1  C   UNL     1       5.064   1.492  -0.034  0.00  0.00    +0.203 C 
ATOM      2  O   UNL     1       4.907   0.342  -0.387  0.00  0.00    -0.277 OA
ATOM      3  N   UNL     1       6.281   1.915   0.360  0.00  0.00    -0.287 N 
ATOM      4  H   UNL     1       6.393   2.815   0.705  0.00  0.00    +0.155 HD
ENDROOT
BRANCH   3   5
ATOM      5  C   UNL     1       7.385   1.056   0.272  0.00  0.00    +0.034 A 
ATOM      6  C   UNL     1       7.229  -0.301   0.517  0.00  0.00    +0.027 A 
ATOM      7  C   UNL     1       8.316  -1.148   0.425  0.00  0.00    +0.047 A 
ATOM      8  C   UNL     1       9.565  -0.641   0.099  0.00  0.00    +0.121 A 
ATOM      9  C   UNL     1       9.722   0.716  -0.141  0.00  0.00    +0.047 A 
ATOM     10  C   UNL     1       8.635   1.563  -0.055  0.00  0.00    +0.027 A 
BRANCH   8  11
ATOM     11  O   UNL     1      10.636  -1.475   0.014  0.00  0.00    -0.487 OA
BRANCH  11  12
ATOM     12  C   UNL     1      10.402  -2.860   0.274  0.00  0.00    +0.264 C 
BRANCH  12  13
ATOM     13  C   UNL     1      11.694  -3.623   0.134  0.00  0.00    -0.010 A 
ATOM     14  C   UNL     1      12.052  -4.156  -1.090  0.00  0.00    +0.007 A 
ATOM     15  C   UNL     1      13.240  -4.851  -1.220  0.00  0.00    +0.000 A 
ATOM     16  C   UNL     1      14.064  -5.022  -0.123  0.00  0.00    +0.000 A 
ATOM     17  C   UNL     1      13.703  -4.494   1.102  0.00  0.00    +0.000 A 
ATOM     18  C   UNL     1      12.518  -3.794   1.230  0.00  0.00    +0.007 A 
ENDBRANCH  12  13
ENDBRANCH  11  12
ENDBRANCH   8  11
ENDBRANCH   3   5
BRANCH   1  20
ATOM     19  C   UNL     1       4.201   3.620  -0.969  0.00  0.00    -0.004 C 
ATOM     20  C   UNL     1       3.898   2.446  -0.035  0.00  0.00    +0.017 C 
BRANCH  20  22
ATOM     21  C   UNL     1       2.871   1.251  -1.874  0.00  0.00    -0.094 C 
ATOM     22  N   UNL     1       2.689   1.724  -0.486  0.00  0.00    +0.391 N 
ATOM     23  H   UNL     1       2.538   0.914   0.126  0.00  0.00    -0.080 HD
BRANCH  22  24
ATOM     24  C   UNL     1       1.511   2.613  -0.406  0.00  0.00    +0.020 C 
BRANCH  24  25
ATOM     25  C   UNL     1       0.269   1.797  -0.656  0.00  0.00    +0.201 C 
ATOM     26  O   UNL     1       0.360   0.611  -0.891  0.00  0.00    -0.278 OA
ATOM     27  N   UNL     1      -0.943   2.387  -0.623  0.00  0.00    -0.286 N 
ATOM     28  H   UNL     1      -1.021   3.321  -0.373  0.00  0.00    +0.155 HD
BRANCH  27  29
ATOM     29  C   UNL     1      -2.088   1.651  -0.948  0.00  0.00    +0.047 A 
ATOM     30  C   UNL     1      -2.113   0.278  -0.748  0.00  0.00    +0.024 A 
ATOM     31  C   UNL     1      -3.246  -0.445  -1.067  0.00  0.00    +0.002 A 
ATOM     32  C   UNL     1      -4.352   0.197  -1.594  0.00  0.00    +0.001 A 
ATOM     33  C   UNL     1      -4.330   1.564  -1.799  0.00  0.00    +0.017 A 
ATOM     34  C   UNL     1      -3.200   2.293  -1.478  0.00  0.00    +0.039 A 
ATOM     35 BR   UNL     1      -3.170   4.163  -1.760  0.00  0.00    -0.048 Br
ENDBRANCH  27  29
ENDBRANCH  24  25
ENDBRANCH  22  24
ENDBRANCH  20  22
ENDBRANCH   1  20
TORSDOF 9
