REMARK  Name = ZINC39945159
REMARK  9 active torsions:
REMARK  status: ('A' for Active; 'I' for Inactive)
REMARK    1  A    between atoms: C_1  and  C_2
REMARK    2  A    between atoms: C_3  and  C_35
REMARK    3  A    between atoms: N_9  and  C_32
REMARK    4  A    between atoms: C_10  and  S_12
REMARK    5  A    between atoms: S_12  and  C_13
REMARK    6  A    between atoms: C_13  and  C_15
REMARK    7  A    between atoms: C_13  and  C_21
REMARK    8  A    between atoms: C_21  and  C_23
REMARK    9  A    between atoms: C_32  and  C_33
REMARK                            x       y       z     vdW  Elec       q    Type
REMARK                         _______ _______ _______ _____ _____    ______ ____
ROOT
ATOM      1  C   UNL     1       0.110  -5.234   3.983  0.00  0.00    +0.155 C 
ENDROOT
BRANCH   1   2
ATOM      2  C   UNL     1      -1.182  -5.452   3.237  0.00  0.00    -0.027 A 
ATOM      3  C   UNL     1      -2.386  -5.406   3.914  0.00  0.00    +0.005 A 
ATOM      4  C   UNL     1      -3.571  -5.606   3.231  0.00  0.00    +0.000 A 
ATOM      5  C   UNL     1      -3.552  -5.850   1.870  0.00  0.00    +0.000 A 
ATOM      6  C   UNL     1      -2.347  -5.894   1.193  0.00  0.00    +0.000 A 
ATOM      7  C   UNL     1      -1.163  -5.691   1.876  0.00  0.00    +0.005 A 
ENDBRANCH   1   2
BRANCH   1   8
ATOM      8  C   UNL     1       0.258  -6.288   5.049  0.00  0.00    +0.179 C 
ATOM      9  O   UNL     1      -0.100  -6.056   6.186  0.00  0.00    -0.291 OA
BRANCH   8  10
ATOM     10  C   UNL     1       0.812  -7.545   4.727  0.00  0.00    +0.025 C 
ATOM     11  C   UNL     1       1.011  -8.616   5.581  0.00  0.00    +0.006 A 
ATOM     12  C   UNL     1       0.751  -8.809   6.958  0.00  0.00    +0.010 A 
ATOM     13  C   UNL     1       1.054  -9.986   7.550  0.00  0.00    +0.001 A 
ATOM     14  C   UNL     1       1.629 -11.057   6.847  0.00  0.00    +0.002 A 
ATOM     15  C   UNL     1       1.917 -10.975   5.530  0.00  0.00    +0.026 A 
ATOM     16  C   UNL     1       1.619  -9.727   4.809  0.00  0.00    +0.043 A 
ATOM     17  N   UNL     1       1.788  -9.380   3.565  0.00  0.00    -0.380 N 
ATOM     18  C   UNL     1       1.308  -8.007   3.375  0.00  0.00    +0.152 C 
ATOM     19  H   UNL     1       2.169  -9.942   2.872  0.00  0.00    +0.160 HD
ENDBRANCH   8  10
ENDBRANCH   1   8
BRANCH   1  20
ATOM     20  S   UNL     1       0.095  -3.592   4.753  0.00  0.00    -0.071 S 
BRANCH  20  30
ATOM     21  C   UNL     1      -0.018   1.503   0.010  0.00  0.00    +0.045 C 
ATOM     22  C   UNL     1       0.002  -0.004   0.002  0.00  0.00    -0.026 A 
ATOM     23  C   UNL     1       0.006  -0.676  -1.159  0.00  0.00    -0.008 A 
ATOM     24  S   UNL     1       0.031  -2.384  -0.648  0.00  0.00    -0.073 S 
ATOM     25  C   UNL     1       0.036  -2.146   1.110  0.00  0.00    +0.117 A 
ATOM     26  C   UNL     1       0.024  -0.746   1.251  0.00  0.00    +0.075 A 
ATOM     27  C   UNL     1       0.030  -0.255   2.595  0.00  0.00    +0.263 A 
ATOM     28  O   UNL     1       0.015   0.944   2.815  0.00  0.00    -0.267 OA
ATOM     29  N   UNL     1       0.051  -1.135   3.613  0.00  0.00    -0.283 N 
ATOM     30  C   UNL     1       0.067  -2.481   3.386  0.00  0.00    +0.174 A 
ATOM     31  N   UNL     1       0.052  -2.960   2.159  0.00  0.00    -0.216 NA
ATOM     32  C   UNL     1      -0.009  -0.120  -2.559  0.00  0.00    +0.052 C 
BRANCH  29  33
ATOM     33  C   UNL     1       0.057  -0.638   4.992  0.00  0.00    +0.154 C 
BRANCH  33  34
ATOM     34  C   UNL     1      -1.361  -0.487   5.478  0.00  0.00    -0.013 C 
ATOM     35  C   UNL     1      -1.744  -1.085   6.579  0.00  0.00    +0.005 C 
ENDBRANCH  33  34
ENDBRANCH  29  33
ENDBRANCH  20  30
ENDBRANCH   1  20
TORSDOF 7
