REMARK  Name = ZINC06196856
REMARK  9 active torsions:
REMARK  status: ('A' for Active; 'I' for Inactive)
REMARK    1  A    between atoms: C_1  and  C_2
REMARK    2  A    between atoms: C_2  and  O_3
REMARK    3  A    between atoms: O_3  and  C_4
REMARK    4  A    between atoms: C_11  and  C_16
REMARK    5  A    between atoms: C_16  and  C_18
REMARK    6  A    between atoms: C_16  and  N_64
REMARK    7  A    between atoms: N_22  and  C_23
REMARK    8  A    between atoms: C_23  and  C_24
REMARK    9  A    between atoms: C_33  and  C_36
REMARK                            x       y       z     vdW  Elec       q    Type
REMARK                         _______ _______ _______ _____ _____    ______ ____
ROOT
ATOM      1  C   UNL     1      -2.349  -0.745   1.988  0.00  0.00    +0.039 C 
ENDROOT
BRANCH   1   9
ATOM      2  C   UNL     1      -4.711   4.969   2.432  0.00  0.00    +0.121 A 
ATOM      3  C   UNL     1      -4.761   5.003   3.823  0.00  0.00    +0.047 A 
ATOM      4  C   UNL     1      -4.337   3.925   4.567  0.00  0.00    +0.030 A 
ATOM      5  C   UNL     1      -3.852   2.787   3.929  0.00  0.00    +0.049 A 
ATOM      6  C   UNL     1      -3.800   2.749   2.523  0.00  0.00    +0.002 A 
ATOM      7  C   UNL     1      -4.234   3.851   1.778  0.00  0.00    +0.055 A 
ATOM      8  C   UNL     1      -3.288   1.546   1.864  0.00  0.00    +0.017 A 
ATOM      9  C   UNL     1      -2.881   0.508   2.635  0.00  0.00    +0.011 A 
ATOM     10  C   UNL     1      -2.960   0.594   4.041  0.00  0.00    +0.251 A 
ATOM     11  O   UNL     1      -2.594  -0.353   4.716  0.00  0.00    -0.268 OA
ATOM     12  N   UNL     1      -3.423   1.696   4.656  0.00  0.00    -0.322 N 
ATOM     13  H   UNL     1      -3.456   1.726   5.655  0.00  0.00    +0.169 HD
BRANCH   2  14
ATOM     14  O   UNL     1      -5.134   6.043   1.713  0.00  0.00    -0.492 OA
BRANCH  14  16
ATOM     15  C   UNL     1      -6.044   8.270   1.480  0.00  0.00    +0.048 C 
ATOM     16  C   UNL     1      -5.616   7.168   2.451  0.00  0.00    +0.225 C 
ENDBRANCH  14  16
ENDBRANCH   2  14
ENDBRANCH   1   9
BRANCH   1  23
ATOM     17  C   UNL     1      -4.566  -1.667   2.304  0.00  0.00    -0.077 C 
ATOM     18  C   UNL     1      -5.342  -2.828   2.930  0.00  0.00    -0.015 C 
ATOM     19  C   UNL     1      -4.946  -4.133   2.235  0.00  0.00    -0.018 C 
ATOM     20  C   UNL     1      -3.433  -4.332   2.363  0.00  0.00    -0.015 C 
ATOM     21  C   UNL     1      -2.712  -3.127   1.754  0.00  0.00    -0.077 C 
ATOM     22  C   UNL     1      -5.673  -5.306   2.897  0.00  0.00    +0.007 C 
ATOM     23  N   UNL     1      -3.118  -1.906   2.482  0.00  0.00    +0.389 N 
ATOM     24  H   UNL     1      -2.922  -2.034   3.482  0.00  0.00    -0.080 HD
ENDBRANCH   1  23
BRANCH   1  25
ATOM     25  C   UNL     1      -0.901  -0.927   2.361  0.00  0.00    +0.143 A 
ATOM     26  N   UNL     1      -0.428  -1.206   3.551  0.00  0.00    -0.115 NA
ATOM     27  N   UNL     1       0.855  -1.280   3.462  0.00  0.00    -0.023 NA
ATOM     28  N   UNL     1       1.213  -1.061   2.245  0.00  0.00    -0.044 NA
ATOM     29  N   UNL     1       0.159  -0.834   1.536  0.00  0.00    -0.226 N 
BRANCH  29  30
ATOM     30  C   UNL     1       0.123  -0.536   0.102  0.00  0.00    +0.182 C 
BRANCH  30  31
ATOM     31  C   UNL     1       0.361   0.936  -0.112  0.00  0.00    -0.026 A 
ATOM     32  C   UNL     1      -0.712   1.793  -0.275  0.00  0.00    +0.008 A 
ATOM     33  C   UNL     1      -0.495   3.144  -0.466  0.00  0.00    +0.038 A 
ATOM     34  C   UNL     1       0.798   3.639  -0.505  0.00  0.00    +0.123 A 
ATOM     35  C   UNL     1       1.871   2.779  -0.347  0.00  0.00    +0.038 A 
ATOM     36  C   UNL     1       1.652   1.429  -0.150  0.00  0.00    +0.008 A 
ATOM     37  F   UNL     1       1.011   4.959  -0.697  0.00  0.00    -0.205 F 
ENDBRANCH  30  31
ENDBRANCH  29  30
ENDBRANCH   1  25
TORSDOF 7
