REMARK  Name = ZINC04787656
REMARK  9 active torsions:
REMARK  status: ('A' for Active; 'I' for Inactive)
REMARK    1  A    between atoms: C_1  and  C_2
REMARK    2  A    between atoms: C_7  and  C_22
REMARK    3  A    between atoms: C_9  and  C_13
REMARK    4  A    between atoms: C_10  and  C_12
REMARK    5  A    between atoms: C_13  and  O_15
REMARK    6  A    between atoms: O_15  and  C_16
REMARK    7  A    between atoms: C_31  and  C_33
REMARK    8  A    between atoms: C_33  and  O_35
REMARK    9  A    between atoms: O_35  and  C_36
REMARK                            x       y       z     vdW  Elec       q    Type
REMARK                         _______ _______ _______ _____ _____    ______ ____
ROOT
ATOM      1  C   UNL     1       2.093   7.028   4.890  0.00  0.00    +0.009 C 
ATOM      2  C   UNL     1       1.970   6.167   3.632  0.00  0.00    +0.013 C 
ATOM      3  C   UNL     1       2.359   6.989   2.401  0.00  0.00    +0.055 C 
ATOM      4  C   UNL     1       2.285   6.122   1.168  0.00  0.00    +0.016 C 
ATOM      5  C   UNL     1       2.526   4.795   1.235  0.00  0.00    +0.025 C 
ATOM      6  C   UNL     1       2.452   3.936  -0.002  0.00  0.00    +0.092 C 
ATOM      7  C   UNL     1       2.519   4.774  -1.244  0.00  0.00    +0.065 C 
ATOM      8  C   UNL     1       2.277   6.096  -1.208  0.00  0.00    +0.016 C 
ATOM      9  N   UNL     1       1.971   6.711  -0.027  0.00  0.00    -0.321 N 
ATOM     10  C   UNL     1       2.344   6.904  -2.478  0.00  0.00    +0.061 C 
ATOM     11  C   UNL     1       2.848   4.177   2.456  0.00  0.00    +0.176 C 
ATOM     12  O   UNL     1       3.074   2.983   2.480  0.00  0.00    -0.291 OA
ATOM     13  C   UNL     1       2.919   4.968   3.734  0.00  0.00    +0.171 C 
ATOM     14  H   UNL     1       1.468   7.689  -0.042  0.00  0.00    +0.152 HD
ENDROOT
BRANCH   6  15
ATOM     15  C   UNL     1       1.157   3.166   0.007  0.00  0.00    -0.034 A 
ATOM     16  C   UNL     1       1.175   1.783   0.000  0.00  0.00    +0.004 A 
ATOM     17  C   UNL     1      -0.013   1.076   0.008  0.00  0.00    +0.002 A 
ATOM     18  C   UNL     1      -1.219   1.750   0.017  0.00  0.00    +0.020 A 
ATOM     19  C   UNL     1      -1.238   3.134   0.029  0.00  0.00    +0.041 A 
ATOM     20  C   UNL     1      -0.048   3.841   0.021  0.00  0.00    +0.024 A 
ATOM     21 CL   UNL     1      -2.752   3.982   0.047  0.00  0.00    -0.084 Cl
ENDBRANCH   6  15
BRANCH   7  22
ATOM     22  C   UNL     1       2.842   4.161  -2.478  0.00  0.00    +0.338 C 
ATOM     23  O   UNL     1       2.899   4.830  -3.493  0.00  0.00    -0.245 OA
BRANCH  22  24
ATOM     24  O   UNL     1       3.087   2.835  -2.529  0.00  0.00    -0.458 OA
BRANCH  24  25
ATOM     25  C   UNL     1       3.408   2.284  -3.807  0.00  0.00    +0.177 C 
ATOM     26  C   UNL     1       2.123   1.837  -4.507  0.00  0.00    +0.044 C 
ATOM     27  C   UNL     1       2.466   1.246  -5.876  0.00  0.00    +0.004 C 
ATOM     28  C   UNL     1       3.392   0.042  -5.694  0.00  0.00    +0.000 C 
ATOM     29  C   UNL     1       4.678   0.489  -4.995  0.00  0.00    +0.004 C 
ATOM     30  C   UNL     1       4.334   1.080  -3.626  0.00  0.00    +0.044 C 
ENDBRANCH  24  25
ENDBRANCH  22  24
ENDBRANCH   7  22
BRANCH  13  31
ATOM     31  C   UNL     1       2.505   4.095   4.891  0.00  0.00    +0.318 C 
ATOM     32  O   UNL     1       1.555   4.403   5.571  0.00  0.00    -0.250 OA
BRANCH  31  33
ATOM     33  O   UNL     1       3.191   2.974   5.165  0.00  0.00    -0.467 OA
ATOM     34  C   UNL     1       2.736   2.182   6.294  0.00  0.00    +0.280 C 
ENDBRANCH  31  33
ENDBRANCH  13  31
TORSDOF 6
