REMARK  Name = ZINC63627354
REMARK  8 active torsions:
REMARK  status: ('A' for Active; 'I' for Inactive)
REMARK    1  A    between atoms: C_1  and  C_2
REMARK    2  A    between atoms: C_2  and  C_3
REMARK    3  A    between atoms: C_2  and  C_4
REMARK    4  A    between atoms: C_4  and  C_5
REMARK    5  A    between atoms: C_8  and  S_11
REMARK    6  A    between atoms: S_11  and  N_14
REMARK    7  A    between atoms: N_14  and  C_15
REMARK    8  A    between atoms: C_18  and  C_21
REMARK                            x       y       z     vdW  Elec       q    Type
REMARK                         _______ _______ _______ _____ _____    ______ ____
ROOT
ATOM      1  C   UNL     1       1.012  -6.722   0.636  0.00  0.00    +0.048 A 
ATOM      2  C   UNL     1       0.806  -5.599   1.428  0.00  0.00    +0.025 A 
ATOM      3  C   UNL     1       1.561  -5.413   2.570  0.00  0.00    +0.008 A 
ATOM      4  C   UNL     1       2.521  -6.343   2.924  0.00  0.00    -0.021 A 
ATOM      5  C   UNL     1       2.729  -7.461   2.138  0.00  0.00    +0.008 A 
ATOM      6  C   UNL     1       1.974  -7.656   0.999  0.00  0.00    +0.025 A 
ENDROOT
BRANCH   4   7
ATOM      7  C   UNL     1       3.344  -6.136   4.170  0.00  0.00    +0.133 C 
ATOM      8  C   UNL     1       2.832  -7.020   5.285  0.00  0.00    +0.012 C 
ATOM      9  C   UNL     1       3.858  -7.836   5.617  0.00  0.00    -0.002 A 
ATOM     10  C   UNL     1       3.996  -8.905   6.614  0.00  0.00    +0.029 A 
ATOM     11  C   UNL     1       5.176  -9.560   6.715  0.00  0.00    +0.042 A 
ATOM     12  C   UNL     1       6.268  -9.243   5.893  0.00  0.00    +0.022 A 
ATOM     13  C   UNL     1       6.217  -8.274   4.955  0.00  0.00    +0.027 A 
ATOM     14  C   UNL     1       5.025  -7.521   4.762  0.00  0.00    +0.043 A 
ATOM     15  N   UNL     1       4.732  -6.547   3.933  0.00  0.00    -0.374 N 
ATOM     16 CL   UNL     1       5.343 -10.824   7.893  0.00  0.00    -0.084 Cl
ATOM     17  H   UNL     1       5.332  -6.163   3.274  0.00  0.00    +0.161 HD
ENDBRANCH   4   7
BRANCH   1  18
ATOM     18  N   UNL     1       0.250  -6.913  -0.518  0.00  0.00    -0.216 N 
ATOM     19  H   UNL     1       0.644  -6.759  -1.391  0.00  0.00    +0.174 HD
BRANCH  18  20
ATOM     20  S   UNL     1      -1.327  -7.404  -0.398  0.00  0.00    +0.072 S 
ATOM     21  O   UNL     1      -1.799  -7.585  -1.726  0.00  0.00    -0.150 OA
ATOM     22  O   UNL     1      -1.958  -6.522   0.521  0.00  0.00    -0.150 OA
BRANCH  20  26
ATOM     23  C   UNL     1      -1.314 -11.496   1.538  0.00  0.00    -0.047 A 
ATOM     24  C   UNL     1      -1.504 -10.366   2.312  0.00  0.00    +0.005 A 
ATOM     25  C   UNL     1      -1.508  -9.116   1.720  0.00  0.00    +0.029 A 
ATOM     26  C   UNL     1      -1.321  -8.996   0.356  0.00  0.00    +0.109 A 
ATOM     27  C   UNL     1      -1.131 -10.126  -0.417  0.00  0.00    +0.029 A 
ATOM     28  C   UNL     1      -1.123 -11.376   0.174  0.00  0.00    +0.005 A 
BRANCH  23  29
ATOM     29  C   UNL     1      -1.310 -12.858   2.183  0.00  0.00    +0.038 C 
BRANCH  29  31
ATOM     30  C   UNL     1       0.100 -14.541   3.374  0.00  0.00    +0.007 C 
ATOM     31  C   UNL     1       0.115 -13.216   2.610  0.00  0.00    -0.013 C 
ATOM     32  C   UNL     1       1.000 -13.352   1.369  0.00  0.00    +0.007 C 
ENDBRANCH  29  31
ENDBRANCH  23  29
ENDBRANCH  20  26
ENDBRANCH  18  20
ENDBRANCH   1  18
TORSDOF 6
