REMARK  Name = ZINC19715518
REMARK  7 active torsions:
REMARK  status: ('A' for Active; 'I' for Inactive)
REMARK    1  A    between atoms: C_1  and  C_2
REMARK    2  A    between atoms: C_2  and  C_4
REMARK    3  A    between atoms: C_2  and  N_16
REMARK    4  A    between atoms: C_7  and  N_10
REMARK    5  A    between atoms: N_16  and  S_17
REMARK    6  A    between atoms: S_17  and  C_20
REMARK    7  A    between atoms: N_29  and  C_30
REMARK                            x       y       z     vdW  Elec       q    Type
REMARK                         _______ _______ _______ _____ _____    ______ ____
ROOT
ATOM      1  N   UNL     1      -1.477   7.921  -1.527  0.00  0.00    -0.183 NA
ATOM      2  H   UNL     1      -0.815   8.680  -1.969  0.00  0.00    +0.149 HD
ENDROOT
BRANCH   1   3
ATOM      3  S   UNL     1      -1.252   7.471   0.051  0.00  0.00    +0.059 S 
ATOM      4  O   UNL     1      -2.546   7.301   0.613  0.00  0.00    -0.153 OA
ATOM      5  O   UNL     1      -0.296   8.369   0.597  0.00  0.00    -0.153 OA
BRANCH   3   6
ATOM      6  C   UNL     1      -0.497   5.879   0.036  0.00  0.00    +0.106 A 
ATOM      7  C   UNL     1       0.881   5.765   0.022  0.00  0.00    +0.030 A 
ATOM      8  C   UNL     1       1.478   4.522   0.011  0.00  0.00    +0.026 A 
ATOM      9  C   UNL     1       0.695   3.369   0.013  0.00  0.00    +0.040 A 
ATOM     10  C   UNL     1      -0.688   3.497   0.026  0.00  0.00    -0.015 A 
ATOM     11  C   UNL     1      -1.282   4.739   0.038  0.00  0.00    +0.034 A 
ATOM     12  C   UNL     1      -1.244   2.091   0.018  0.00  0.00    +0.133 C 
ATOM     13  C   UNL     1      -0.014   1.209   0.009  0.00  0.00    +0.224 C 
ATOM     14  O   UNL     1       0.002  -0.004   0.002  0.00  0.00    -0.275 OA
ATOM     15  N   UNL     1       1.056   2.022   0.003  0.00  0.00    -0.274 N 
ATOM     16  C   UNL     1       2.442   1.547  -0.013  0.00  0.00    +0.138 C 
ENDBRANCH   3   6
ENDBRANCH   1   3
BRANCH   1  18
ATOM     17  C   UNL     1      -3.770   7.841  -2.373  0.00  0.00    +0.031 C 
ATOM     18  C   UNL     1      -2.398   7.165  -2.380  0.00  0.00    +0.103 C 
BRANCH  18  19
ATOM     19  C   UNL     1      -1.862   7.130  -3.788  0.00  0.00    -0.029 A 
ATOM     20  C   UNL     1      -1.277   8.258  -4.333  0.00  0.00    +0.007 A 
ATOM     21  C   UNL     1      -0.780   8.227  -5.621  0.00  0.00    +0.023 A 
ATOM     22  C   UNL     1      -0.879   7.064  -6.374  0.00  0.00    +0.030 A 
ATOM     23  C   UNL     1      -1.472   5.934  -5.826  0.00  0.00    +0.023 A 
ATOM     24  C   UNL     1      -1.961   5.970  -4.535  0.00  0.00    +0.007 A 
BRANCH  22  25
ATOM     25  N   UNL     1      -0.382   7.031  -7.679  0.00  0.00    -0.330 N 
ATOM     26  C   UNL     1       0.592   5.944  -7.843  0.00  0.00    +0.105 C 
ATOM     27  C   UNL     1       1.004   5.846  -9.314  0.00  0.00    +0.019 C 
ATOM     28  C   UNL     1       1.617   7.177  -9.758  0.00  0.00    +0.003 C 
ATOM     29  C   UNL     1       0.600   8.299  -9.530  0.00  0.00    +0.019 C 
ATOM     30  C   UNL     1       0.199   8.326  -8.054  0.00  0.00    +0.105 C 
ENDBRANCH  22  25
ENDBRANCH  18  19
ENDBRANCH   1  18
TORSDOF 5
