REMARK  Name = ZINC39442204
REMARK  8 active torsions:
REMARK  status: ('A' for Active; 'I' for Inactive)
REMARK    1  A    between atoms: C_1  and  C_2
REMARK    2  A    between atoms: C_7  and  C_33
REMARK    3  A    between atoms: C_8  and  C_13
REMARK    4  A    between atoms: C_13  and  N_14
REMARK    5  A    between atoms: C_17  and  C_20
REMARK    6  A    between atoms: C_17  and  O_32
REMARK    7  A    between atoms: C_20  and  C_21
REMARK    8  A    between atoms: C_23  and  C_26
REMARK                            x       y       z     vdW  Elec       q    Type
REMARK                         _______ _______ _______ _____ _____    ______ ____
ROOT
ATOM      1  N   UNL     1      -1.256  -0.305   5.100  0.00  0.00    +0.381 N 
ATOM      2  C   UNL     1      -0.275   0.637   4.549  0.00  0.00    -0.076 C 
ATOM      3  C   UNL     1      -0.346   1.959   5.317  0.00  0.00    +0.016 C 
ATOM      4  C   UNL     1      -0.036   1.702   6.794  0.00  0.00    +0.070 C 
ATOM      5  C   UNL     1      -1.019   0.662   7.339  0.00  0.00    +0.016 C 
ATOM      6  C   UNL     1      -0.923  -0.612   6.496  0.00  0.00    -0.076 C 
ATOM      7  H   UNL     1      -2.176   0.107   5.057  0.00  0.00    -0.082 HD
ENDROOT
BRANCH   4   8
ATOM      8  O   UNL     1       1.300   1.212   6.924  0.00  0.00    -0.388 OA
ATOM      9  H   UNL     1       1.564   1.027   7.836  0.00  0.00    +0.210 HD
ENDBRANCH   4   8
BRANCH   1  10
ATOM     10  C   UNL     1      -1.239  -1.544   4.311  0.00  0.00    -0.055 C 
BRANCH  10  18
ATOM     11  C   UNL     1      -6.577  -2.122   4.976  0.00  0.00    +0.041 C 
ATOM     12  C   UNL     1      -5.762  -2.930   3.998  0.00  0.00    -0.051 C 
ATOM     13  C   UNL     1      -6.255  -4.055   3.477  0.00  0.00    +0.001 C 
ATOM     14  C   UNL     1      -5.524  -4.886   2.519  0.00  0.00    +0.000 C 
ATOM     15  C   UNL     1      -4.168  -4.770   2.413  0.00  0.00    +0.005 C 
ATOM     16  C   UNL     1      -3.590  -3.734   3.287  0.00  0.00    -0.026 C 
ATOM     17  C   UNL     1      -2.430  -3.691   3.904  0.00  0.00    -0.053 C 
ATOM     18  C   UNL     1      -2.366  -2.465   4.782  0.00  0.00    +0.064 C 
ATOM     19  N   UNL     1      -3.667  -1.776   4.663  0.00  0.00    -0.301 NA
ATOM     20  C   UNL     1      -4.386  -2.473   3.594  0.00  0.00    +0.111 C 
ATOM     21  C   UNL     1      -1.331  -4.711   3.756  0.00  0.00    +0.041 C 
ATOM     22  H   UNL     1      -4.179  -1.817   5.531  0.00  0.00    +0.123 HD
ENDBRANCH  10  18
ENDBRANCH   1  10
BRANCH   4  23
ATOM     23  C   UNL     1      -0.182   3.006   7.582  0.00  0.00    +0.111 C 
BRANCH  23  24
ATOM     24  C   UNL     1       0.123   2.752   9.036  0.00  0.00    +0.141 A 
ATOM     25  C   UNL     1       1.331   2.851   9.616  0.00  0.00    +0.076 A 
ATOM     26  C   UNL     1       1.187   2.532  10.988  0.00  0.00    +0.114 A 
ATOM     27  N   UNL     1      -0.076   2.252  11.203  0.00  0.00    -0.078 NA
ATOM     28  O   UNL     1      -0.766   2.393   9.975  0.00  0.00    -0.359 OA
BRANCH  26  29
ATOM     29  C   UNL     1       2.272   2.515  12.001  0.00  0.00    +0.004 A 
ATOM     30  C   UNL     1       3.576   2.840  11.634  0.00  0.00    +0.010 A 
ATOM     31  C   UNL     1       4.581   2.824  12.580  0.00  0.00    +0.001 A 
ATOM     32  C   UNL     1       4.295   2.485  13.890  0.00  0.00    +0.000 A 
ATOM     33  C   UNL     1       3.002   2.162  14.260  0.00  0.00    +0.001 A 
ATOM     34  C   UNL     1       1.988   2.181  13.323  0.00  0.00    +0.010 A 
ENDBRANCH  26  29
ENDBRANCH  23  24
ENDBRANCH   4  23
TORSDOF 6
