REMARK  Name = ZINC26494494
REMARK  5 active torsions:
REMARK  status: ('A' for Active; 'I' for Inactive)
REMARK    1  A    between atoms: C_6  and  C_7
REMARK    2  A    between atoms: C_13  and  C_15
REMARK    3  A    between atoms: C_15  and  C_16
REMARK    4  A    between atoms: C_16  and  N_17
REMARK    5  A    between atoms: C_20  and  C_23
REMARK                            x       y       z     vdW  Elec       q    Type
REMARK                         _______ _______ _______ _____ _____    ______ ____
ROOT
ATOM      1  C   UNL     1      -2.041  -6.472  -0.271  0.00  0.00    -0.076 C 
ENDROOT
BRANCH   1   2
ATOM      2  N   UNL     1      -1.088  -5.362  -0.403  0.00  0.00    +0.382 N 
ATOM      3  C   UNL     1       0.177  -5.669   0.284  0.00  0.00    -0.074 C 
ATOM      4  C   UNL     1       1.227  -4.641  -0.154  0.00  0.00    +0.018 C 
ATOM      5  C   UNL     1       0.661  -3.255  -0.020  0.00  0.00    -0.026 C 
ATOM      6  C   UNL     1      -0.628  -3.022   0.094  0.00  0.00    -0.040 C 
ATOM      7  C   UNL     1      -1.659  -4.113   0.116  0.00  0.00    -0.051 C 
ATOM      8  H   UNL     1      -0.880  -5.228  -1.475  0.00  0.00    -0.081 HD
BRANCH   5   9
ATOM      9  C   UNL     1       1.591  -2.107  -0.024  0.00  0.00    +0.117 A 
ATOM     10  C   UNL     1       3.044  -2.160  -0.261  0.00  0.00    +0.049 A 
ATOM     11  C   UNL     1       3.938  -3.195  -0.532  0.00  0.00    +0.016 A 
ATOM     12  C   UNL     1       5.265  -2.920  -0.709  0.00  0.00    +0.039 A 
ATOM     13  C   UNL     1       5.731  -1.613  -0.620  0.00  0.00    +0.127 A 
ATOM     14  C   UNL     1       4.860  -0.576  -0.351  0.00  0.00    +0.088 A 
ATOM     15  C   UNL     1       3.508  -0.839  -0.170  0.00  0.00    +0.171 A 
ATOM     16  O   UNL     1       2.442  -0.056   0.097  0.00  0.00    -0.354 OA
ATOM     17  N   UNL     1       1.279  -0.854   0.182  0.00  0.00    -0.077 NA
ATOM     18  F   UNL     1       7.045  -1.357  -0.797  0.00  0.00    -0.205 F 
ENDBRANCH   5   9
ENDBRANCH   1   2
BRANCH   1  19
ATOM     19  C   UNL     1      -3.247  -6.219  -1.178  0.00  0.00    +0.018 C 
BRANCH  19  29
ATOM     20  C   UNL     1      -7.164  -5.445  -2.425  0.00  0.00    +0.013 A 
ATOM     21  C   UNL     1      -6.022  -5.779  -1.729  0.00  0.00    +0.007 A 
ATOM     22  C   UNL     1      -5.488  -7.057  -1.823  0.00  0.00    -0.016 A 
ATOM     23  C   UNL     1      -6.100  -8.004  -2.620  0.00  0.00    -0.039 A 
ATOM     24  C   UNL     1      -7.248  -7.682  -3.321  0.00  0.00    +0.017 A 
ATOM     25  C   UNL     1      -7.788  -6.400  -3.229  0.00  0.00    +0.037 A 
ATOM     26  C   UNL     1      -5.543  -9.399  -2.749  0.00  0.00    +0.063 C 
ATOM     27  C   UNL     1      -4.558  -9.670  -1.610  0.00  0.00    +0.165 C 
ATOM     28  O   UNL     1      -3.641  -8.573  -1.533  0.00  0.00    -0.372 OA
ATOM     29  C   UNL     1      -4.240  -7.375  -1.041  0.00  0.00    +0.147 C 
BRANCH  25  30
ATOM     30  C   UNL     1      -9.015  -6.053  -3.978  0.00  0.00    +0.242 C 
ATOM     31  O   UNL     1      -9.556  -6.888  -4.677  0.00  0.00    -0.270 OA
ATOM     32  N   UNL     1      -9.533  -4.813  -3.886  0.00  0.00    -0.325 N 
ATOM     33  H   UNL     1     -10.446  -4.555  -4.443  0.00  0.00    +0.145 HD
ATOM     34  H   UNL     1      -9.044  -4.058  -3.253  0.00  0.00    +0.145 HD
ENDBRANCH  25  30
ENDBRANCH  19  29
ENDBRANCH   1  19
TORSDOF 5
