REMARK  Name = ZINC33638188
REMARK  11 active torsions:
REMARK  status: ('A' for Active; 'I' for Inactive)
REMARK    1  A    between atoms: C_1  and  C_2
REMARK    2  A    between atoms: C_5  and  N_9
REMARK    3  A    between atoms: C_6  and  C_8
REMARK    4  A    between atoms: C_10  and  C_12
REMARK    5  A    between atoms: N_17  and  C_29
REMARK    6  A    between atoms: N_19  and  C_20
REMARK    7  A    between atoms: C_23  and  O_26
REMARK    8  A    between atoms: O_26  and  C_27
REMARK    9  A    between atoms: C_29  and  C_30
REMARK   10  A    between atoms: C_33  and  O_36
REMARK   11  A    between atoms: O_36  and  C_37
REMARK                            x       y       z     vdW  Elec       q    Type
REMARK                         _______ _______ _______ _____ _____    ______ ____
ROOT
ATOM      1  C   UNL     1      -0.134  -6.343  -1.187  0.00  0.00    +0.149 C 
ATOM      2  C   UNL     1       0.584  -6.906  -2.415  0.00  0.00    +0.120 C 
ATOM      3  C   UNL     1       0.352  -8.367  -2.590  0.00  0.00    +0.223 C 
ATOM      4  O   UNL     1       1.234  -8.975  -3.159  0.00  0.00    -0.275 OA
ATOM      5  N   UNL     1      -0.689  -9.091  -2.207  0.00  0.00    -0.246 N 
ATOM      6  C   UNL     1      -1.725  -8.611  -1.425  0.00  0.00    +0.164 C 
ATOM      7  N   UNL     1      -2.556  -9.424  -0.819  0.00  0.00    -0.226 NA
ATOM      8  S   UNL     1      -1.882  -6.852  -1.275  0.00  0.00    -0.077 S 
ENDROOT
BRANCH   7   9
ATOM      9  C   UNL     1      -3.572  -8.918  -0.050  0.00  0.00    +0.067 A 
ATOM     10  C   UNL     1      -3.322  -7.874   0.842  0.00  0.00    +0.031 A 
ATOM     11  C   UNL     1      -4.348  -7.368   1.613  0.00  0.00    +0.048 A 
ATOM     12  C   UNL     1      -5.627  -7.896   1.503  0.00  0.00    +0.120 A 
ATOM     13  C   UNL     1      -5.880  -8.934   0.617  0.00  0.00    +0.048 A 
ATOM     14  C   UNL     1      -4.862  -9.441  -0.163  0.00  0.00    +0.031 A 
BRANCH  12  15
ATOM     15  O   UNL     1      -6.635  -7.394   2.265  0.00  0.00    -0.495 OA
ATOM     16  C   UNL     1      -7.927  -7.983   2.102  0.00  0.00    +0.277 C 
ENDBRANCH  12  15
ENDBRANCH   7   9
BRANCH   1  18
ATOM     17  N   UNL     1       0.059  -4.170  -0.021  0.00  0.00    -0.284 N 
ATOM     18  C   UNL     1      -0.040  -4.839  -1.187  0.00  0.00    +0.231 C 
ATOM     19  O   UNL     1      -0.054  -4.230  -2.236  0.00  0.00    -0.274 OA
ATOM     20  H   UNL     1       0.135  -4.658   0.814  0.00  0.00    +0.155 HD
BRANCH  17  25
ATOM     21  C   UNL     1       0.025   1.503   0.005  0.00  0.00    +0.044 C 
ATOM     22  C   UNL     1       0.034  -0.004  -0.002  0.00  0.00    -0.050 A 
ATOM     23  C   UNL     1       0.632  -0.685  -1.046  0.00  0.00    +0.005 A 
ATOM     24  C   UNL     1       0.641  -2.066  -1.055  0.00  0.00    +0.024 A 
ATOM     25  C   UNL     1       0.051  -2.771  -0.014  0.00  0.00    +0.036 A 
ATOM     26  C   UNL     1      -0.548  -2.083   1.033  0.00  0.00    -0.029 A 
ATOM     27  C   UNL     1      -0.550  -0.702   1.039  0.00  0.00    +0.008 A 
ATOM     28  C   UNL     1      -1.190  -2.843   2.165  0.00  0.00    +0.045 C 
ENDBRANCH  17  25
ENDBRANCH   1  18
BRANCH   5  29
ATOM     29  C   UNL     1      -0.748 -10.489  -2.640  0.00  0.00    +0.150 C 
BRANCH  29  30
ATOM     30  C   UNL     1      -0.065 -11.360  -1.617  0.00  0.00    -0.029 A 
ATOM     31  C   UNL     1       1.289 -11.619  -1.725  0.00  0.00    +0.009 A 
ATOM     32  C   UNL     1       1.917 -12.418  -0.789  0.00  0.00    +0.046 A 
ATOM     33  C   UNL     1       1.188 -12.960   0.259  0.00  0.00    +0.120 A 
ATOM     34  C   UNL     1      -0.170 -12.698   0.366  0.00  0.00    +0.046 A 
ATOM     35  C   UNL     1      -0.792 -11.895  -0.570  0.00  0.00    +0.009 A 
BRANCH  33  36
ATOM     36  O   UNL     1       1.804 -13.747   1.181  0.00  0.00    -0.495 OA
ATOM     37  C   UNL     1       0.992 -14.271   2.233  0.00  0.00    +0.277 C 
ENDBRANCH  33  36
ENDBRANCH  29  30
ENDBRANCH   5  29
TORSDOF 7
