REMARK  Name = ZINC35039236
REMARK  8 active torsions:
REMARK  status: ('A' for Active; 'I' for Inactive)
REMARK    1  A    between atoms: C_1  and  C_2
REMARK    2  A    between atoms: C_2  and  C_3
REMARK    3  A    between atoms: C_3  and  C_5
REMARK    4  A    between atoms: C_3  and  N_22
REMARK    5  A    between atoms: N_15  and  C_16
REMARK    6  A    between atoms: N_22  and  C_23
REMARK    7  A    between atoms: C_23  and  C_24
REMARK    8  A    between atoms: N_32  and  C_33
REMARK                            x       y       z     vdW  Elec       q    Type
REMARK                         _______ _______ _______ _____ _____    ______ ____
ROOT
ATOM      1  C   UNL     1      -2.238  -0.585   0.590  0.00  0.00    +0.144 C 
ENDROOT
BRANCH   1   2
ATOM      2  C   UNL     1      -1.583  -1.683  -0.207  0.00  0.00    +0.138 A 
ATOM      3  N   UNL     1      -0.288  -1.685  -0.305  0.00  0.00    -0.231 NA
ATOM      4  C   UNL     1       0.371  -2.642  -1.005  0.00  0.00    +0.078 A 
ATOM      5  C   UNL     1       1.763  -2.644  -1.110  0.00  0.00    +0.028 A 
ATOM      6  C   UNL     1       2.391  -3.635  -1.831  0.00  0.00    +0.002 A 
ATOM      7  C   UNL     1       1.656  -4.633  -2.457  0.00  0.00    +0.001 A 
ATOM      8  C   UNL     1       0.282  -4.652  -2.369  0.00  0.00    +0.015 A 
ATOM      9  C   UNL     1      -0.373  -3.659  -1.643  0.00  0.00    +0.065 A 
ATOM     10  C   UNL     1      -1.837  -3.629  -1.513  0.00  0.00    +0.266 A 
ATOM     11  O   UNL     1      -2.536  -4.476  -2.038  0.00  0.00    -0.267 OA
ATOM     12  N   UNL     1      -2.377  -2.626  -0.783  0.00  0.00    -0.263 N 
BRANCH  12  13
ATOM     13  C   UNL     1      -3.767  -2.553  -0.623  0.00  0.00    +0.051 A 
ATOM     14  C   UNL     1      -4.505  -1.636  -1.360  0.00  0.00    +0.026 A 
ATOM     15  C   UNL     1      -5.875  -1.568  -1.200  0.00  0.00    +0.002 A 
ATOM     16  C   UNL     1      -6.512  -2.412  -0.309  0.00  0.00    +0.000 A 
ATOM     17  C   UNL     1      -5.780  -3.326   0.425  0.00  0.00    +0.002 A 
ATOM     18  C   UNL     1      -4.410  -3.403   0.267  0.00  0.00    +0.026 A 
ENDBRANCH  12  13
ENDBRANCH   1   2
BRANCH   1  19
ATOM     19  N   UNL     1      -2.670  -1.113   1.886  0.00  0.00    -0.271 N 
ATOM     20  C   UNL     1      -3.949  -0.960   2.284  0.00  0.00    +0.307 C 
ATOM     21  O   UNL     1      -4.744  -0.382   1.568  0.00  0.00    -0.252 OA
ATOM     22  N   UNL     1      -4.346  -1.446   3.477  0.00  0.00    -0.267 N 
ATOM     23  H   UNL     1      -3.701  -1.858   4.072  0.00  0.00    +0.156 HD
BRANCH  22  24
ATOM     24  C   UNL     1      -5.692  -1.355   3.857  0.00  0.00    +0.070 A 
ATOM     25  C   UNL     1      -6.489  -0.334   3.357  0.00  0.00    +0.029 A 
ATOM     26  C   UNL     1      -7.815  -0.247   3.733  0.00  0.00    +0.040 A 
ATOM     27  C   UNL     1      -8.352  -1.176   4.608  0.00  0.00    +0.126 A 
ATOM     28  C   UNL     1      -7.561  -2.196   5.109  0.00  0.00    +0.078 A 
ATOM     29  C   UNL     1      -6.234  -2.291   4.731  0.00  0.00    +0.147 A 
ATOM     30  F   UNL     1      -5.462  -3.289   5.215  0.00  0.00    -0.203 F 
ATOM     31  F   UNL     1      -9.649  -1.088   4.974  0.00  0.00    -0.205 F 
ENDBRANCH  22  24
BRANCH  19  32
ATOM     32  C   UNL     1      -1.713  -1.808   2.750  0.00  0.00    +0.145 C 
BRANCH  32  33
ATOM     33  C   UNL     1      -1.126  -0.833   3.737  0.00  0.00    -0.030 A 
ATOM     34  C   UNL     1       0.092  -0.233   3.475  0.00  0.00    +0.005 A 
ATOM     35  C   UNL     1       0.631   0.662   4.380  0.00  0.00    +0.000 A 
ATOM     36  C   UNL     1      -0.049   0.958   5.547  0.00  0.00    +0.000 A 
ATOM     37  C   UNL     1      -1.267   0.360   5.808  0.00  0.00    +0.000 A 
ATOM     38  C   UNL     1      -1.808  -0.532   4.901  0.00  0.00    +0.005 A 
ENDBRANCH  32  33
ENDBRANCH  19  32
ENDBRANCH   1  19
BRANCH   1  40
ATOM     39  C   UNL     1      -0.916   1.215  -0.531  0.00  0.00    +0.006 C 
ATOM     40  C   UNL     1      -1.238   0.552   0.810  0.00  0.00    +0.027 C 
ENDBRANCH   1  40
TORSDOF 7
