REMARK  Name = ZINC09871931
REMARK  6 active torsions:
REMARK  status: ('A' for Active; 'I' for Inactive)
REMARK    1  A    between atoms: C_1  and  C_2
REMARK    2  A    between atoms: C_5  and  C_28
REMARK    3  A    between atoms: C_5  and  C_29
REMARK    4  A    between atoms: N_11  and  C_15
REMARK    5  A    between atoms: C_15  and  N_59
REMARK    6  A    between atoms: C_21  and  C_23
REMARK                            x       y       z     vdW  Elec       q    Type
REMARK                         _______ _______ _______ _____ _____    ______ ____
ROOT
ATOM      1  C   UNL     1       4.125   2.424  -1.540  0.00  0.00    +0.007 C 
ATOM      2  C   UNL     1       3.502   3.246  -0.407  0.00  0.00    -0.011 C 
ATOM      3  C   UNL     1       4.424   3.214   0.809  0.00  0.00    +0.009 C 
ATOM      4  C   UNL     1       3.852   4.048   1.950  0.00  0.00    -0.032 C 
ATOM      5  C   UNL     1       2.412   3.689   2.273  0.00  0.00    +0.041 C 
ATOM      6  C   UNL     1       1.506   3.459   1.081  0.00  0.00    +0.113 C 
ATOM      7  C   UNL     1       2.159   2.628  -0.015  0.00  0.00    +0.038 C 
ATOM      8  C   UNL     1       0.965   4.752   0.521  0.00  0.00    +0.245 C 
ATOM      9  O   UNL     1       1.567   5.623  -0.071  0.00  0.00    -0.273 OA
ATOM     10  N   UNL     1      -0.359   4.746   0.789  0.00  0.00    -0.241 N 
ATOM     11  C   UNL     1      -0.734   3.611   1.387  0.00  0.00    +0.308 C 
ATOM     12  O   UNL     1      -1.873   3.380   1.745  0.00  0.00    -0.252 OA
ATOM     13  N   UNL     1       0.289   2.755   1.546  0.00  0.00    -0.285 N 
ATOM     14  C   UNL     1       3.980   5.539   1.627  0.00  0.00    +0.011 C 
ATOM     15  C   UNL     1       4.706   3.773   3.207  0.00  0.00    +0.011 C 
ATOM     16  H   UNL     1       0.255   1.855   1.901  0.00  0.00    +0.151 HD
ENDROOT
BRANCH  10  17
ATOM     17  C   UNL     1      -1.268   5.848   0.463  0.00  0.00    +0.043 C 
BRANCH  17  25
ATOM     18  C   UNL     1      -0.867   6.082  -1.913  0.00  0.00    -0.057 C 
ATOM     19  C   UNL     1      -1.400   5.691  -3.296  0.00  0.00    +0.089 C 
ATOM     20  N   UNL     1      -2.762   6.227  -3.441  0.00  0.00    -0.301 N 
ATOM     21  C   UNL     1      -3.737   5.945  -2.377  0.00  0.00    +0.089 C 
ATOM     22  C   UNL     1      -3.112   6.327  -1.030  0.00  0.00    -0.057 C 
ATOM     23  C   UNL     1      -3.107   6.956  -4.521  0.00  0.00    +0.253 C 
ATOM     24  O   UNL     1      -2.259   7.282  -5.331  0.00  0.00    -0.269 OA
ATOM     25  N   UNL     1      -1.824   5.616  -0.886  0.00  0.00    +0.392 N 
ATOM     26  H   UNL     1      -1.983   4.609  -1.013  0.00  0.00    -0.079 HD
BRANCH  23  27
ATOM     27  C   UNL     1      -4.503   7.356  -4.719  0.00  0.00    +0.074 A 
ATOM     28  C   UNL     1      -5.020   8.345  -5.542  0.00  0.00    +0.021 A 
ATOM     29  C   UNL     1      -6.382   8.513  -5.537  0.00  0.00    +0.008 A 
ATOM     30  C   UNL     1      -7.146   7.718  -4.742  0.00  0.00    +0.046 A 
ATOM     31  S   UNL     1      -5.980   6.694  -3.969  0.00  0.00    -0.092 S 
ENDBRANCH  23  27
ENDBRANCH  17  25
ENDBRANCH  10  17
TORSDOF 3
