REMARK  Name = ZINC06101504
REMARK  5 active torsions:
REMARK  status: ('A' for Active; 'I' for Inactive)
REMARK    1  A    between atoms: C_4  and  C_7
REMARK    2  A    between atoms: C_9  and  C_27
REMARK    3  A    between atoms: C_15  and  N_17
REMARK    4  A    between atoms: N_17  and  S_18
REMARK    5  A    between atoms: S_18  and  C_21
REMARK                            x       y       z     vdW  Elec       q    Type
REMARK                         _______ _______ _______ _____ _____    ______ ____
ROOT
ATOM      1  C   UNL     1       3.691  -0.679  -0.037  0.00  0.00    +0.055 C 
ATOM      2  C   UNL     1       3.681  -2.182  -0.051  0.00  0.00    +0.087 C 
ATOM      3  C   UNL     1       4.863  -2.736  -0.854  0.00  0.00    +0.147 C 
ATOM      4  N   UNL     1       6.050  -1.950  -0.516  0.00  0.00    -0.221 N 
ATOM      5  C   UNL     1       5.982  -0.636  -0.143  0.00  0.00    +0.228 A 
ATOM      6  N   UNL     1       4.795   0.018  -0.044  0.00  0.00    -0.217 NA
ATOM      7  N   UNL     1       7.207  -0.222   0.074  0.00  0.00    -0.293 N 
ATOM      8  C   UNL     1       8.065  -1.227  -0.137  0.00  0.00    +0.255 A 
ATOM      9  N   UNL     1       7.395  -2.303  -0.497  0.00  0.00    -0.130 NA
ATOM     10  H   UNL     1       7.454   0.676   0.346  0.00  0.00    +0.172 HD
ENDROOT
BRANCH   3  11
ATOM     11  C   UNL     1       4.577  -2.619  -2.329  0.00  0.00    -0.023 A 
ATOM     12  C   UNL     1       4.355  -1.377  -2.893  0.00  0.00    +0.007 A 
ATOM     13  C   UNL     1       4.093  -1.269  -4.246  0.00  0.00    +0.020 A 
ATOM     14  C   UNL     1       4.052  -2.404  -5.035  0.00  0.00    +0.041 A 
ATOM     15  C   UNL     1       4.274  -3.647  -4.470  0.00  0.00    +0.020 A 
ATOM     16  C   UNL     1       4.542  -3.753  -3.118  0.00  0.00    +0.007 A 
ATOM     17 CL   UNL     1       3.722  -2.269  -6.734  0.00  0.00    -0.084 Cl
ENDBRANCH   3  11
BRANCH   1  21
ATOM     18  C   UNL     1      -0.017   1.380   0.010  0.00  0.00    +0.000 A 
ATOM     19  C   UNL     1       1.168   2.095   0.002  0.00  0.00    +0.001 A 
ATOM     20  C   UNL     1       2.377   1.433  -0.013  0.00  0.00    +0.010 A 
ATOM     21  C   UNL     1       2.405   0.035  -0.021  0.00  0.00    -0.004 A 
ATOM     22  C   UNL     1       1.203  -0.681  -0.013  0.00  0.00    +0.010 A 
ATOM     23  C   UNL     1       0.002  -0.004   0.002  0.00  0.00    +0.001 A 
ENDBRANCH   1  21
BRANCH   8  24
ATOM     24  N   UNL     1       9.451  -1.148   0.004  0.00  0.00    -0.058 NA
BRANCH  24  25
ATOM     25  S   UNL     1      10.390  -2.479  -0.292  0.00  0.00    +0.094 S 
ATOM     26  O   UNL     1      10.068  -3.434   0.709  0.00  0.00    -0.148 OA
ATOM     27  O   UNL     1      10.271  -2.760  -1.680  0.00  0.00    -0.148 OA
BRANCH  25  28
ATOM     28  C   UNL     1      12.065  -2.006  -0.017  0.00  0.00    +0.110 A 
ATOM     29  C   UNL     1      12.818  -1.492  -1.055  0.00  0.00    +0.029 A 
ATOM     30  C   UNL     1      14.132  -1.121  -0.839  0.00  0.00    +0.002 A 
ATOM     31  C   UNL     1      14.693  -1.264   0.416  0.00  0.00    +0.000 A 
ATOM     32  C   UNL     1      13.940  -1.778   1.455  0.00  0.00    +0.002 A 
ATOM     33  C   UNL     1      12.624  -2.145   1.240  0.00  0.00    +0.029 A 
ENDBRANCH  25  28
ENDBRANCH  24  25
ENDBRANCH   8  24
TORSDOF 5
