REMARK  Name = ZINC23353687
REMARK  7 active torsions:
REMARK  status: ('A' for Active; 'I' for Inactive)
REMARK    1  A    between atoms: C_1  and  C_2
REMARK    2  A    between atoms: C_2  and  N_3
REMARK    3  A    between atoms: C_6  and  C_8
REMARK    4  A    between atoms: C_17  and  N_21
REMARK    5  A    between atoms: N_21  and  C_22
REMARK    6  A    between atoms: C_22  and  C_23
REMARK    7  A    between atoms: C_23  and  N_29
REMARK                            x       y       z     vdW  Elec       q    Type
REMARK                         _______ _______ _______ _____ _____    ______ ____
ROOT
ATOM      1  N   UNL     1       0.689  -0.463  -1.209  0.00  0.00    -0.268 N 
ATOM      2  C   UNL     1       0.095  -0.705  -2.389  0.00  0.00    +0.043 A 
ATOM      3  C   UNL     1       1.059  -1.120  -3.247  0.00  0.00    +0.004 A 
ATOM      4  C   UNL     1       2.257  -1.115  -2.512  0.00  0.00    +0.151 A 
ATOM      5  N   UNL     1       1.952  -0.701  -1.294  0.00  0.00    -0.166 NA
ATOM      6  C   UNL     1       0.822  -1.493  -4.684  0.00  0.00    +0.023 C 
ATOM      7  C   UNL     1      -0.550  -0.946  -5.103  0.00  0.00    -0.067 C 
ATOM      8  C   UNL     1      -1.599  -1.345  -4.062  0.00  0.00    -0.009 C 
ATOM      9  C   UNL     1      -1.359  -0.567  -2.763  0.00  0.00    +0.054 C 
ENDROOT
BRANCH   4  10
ATOM     10  C   UNL     1       3.597  -1.492  -3.007  0.00  0.00    +0.267 C 
ATOM     11  O   UNL     1       3.725  -1.950  -4.125  0.00  0.00    -0.268 OA
ATOM     12  N   UNL     1       4.677  -1.327  -2.218  0.00  0.00    -0.295 N 
ATOM     13  C   UNL     1       4.501  -0.892  -0.832  0.00  0.00    +0.119 C 
ATOM     14  C   UNL     1       4.936  -2.016   0.116  0.00  0.00    +0.088 C 
ATOM     15  S   UNL     1       6.662  -2.452  -0.255  0.00  0.00    -0.158 S 
ATOM     16  C   UNL     1       6.629  -2.793  -2.040  0.00  0.00    +0.088 C 
ATOM     17  C   UNL     1       6.012  -1.592  -2.756  0.00  0.00    +0.119 C 
ENDBRANCH   4  10
BRANCH   7  18
ATOM     18  N   UNL     1      -0.920  -1.504  -6.410  0.00  0.00    +0.382 N 
ATOM     19  H   UNL     1      -0.189  -1.310  -7.078  0.00  0.00    -0.085 HD
ATOM     20  H   UNL     1      -1.045  -2.502  -6.327  0.00  0.00    -0.085 HD
BRANCH  18  21
ATOM     21  C   UNL     1      -2.175  -0.890  -6.867  0.00  0.00    -0.060 C 
BRANCH  21  22
ATOM     22  C   UNL     1      -2.561  -1.471  -8.229  0.00  0.00    +0.007 C 
ATOM     23  C   UNL     1      -3.867  -0.832  -8.704  0.00  0.00    +0.020 C 
ATOM     24  C   UNL     1      -3.678   0.681  -8.830  0.00  0.00    +0.002 C 
ATOM     25  C   UNL     1      -2.569   0.974  -9.842  0.00  0.00    +0.000 C 
ATOM     26  C   UNL     1      -1.263   0.335  -9.367  0.00  0.00    +0.002 C 
ATOM     27  C   UNL     1      -1.452  -1.178  -9.241  0.00  0.00    +0.020 C 
BRANCH  22  28
ATOM     28  N   UNL     1      -2.742  -2.924  -8.108  0.00  0.00    -0.294 NA
ATOM     29  C   UNL     1      -3.741  -3.246  -7.079  0.00  0.00    +0.113 C 
ATOM     30  C   UNL     1      -3.855  -4.767  -6.944  0.00  0.00    +0.175 C 
ATOM     31  O   UNL     1      -4.187  -5.330  -8.217  0.00  0.00    -0.377 OA
ATOM     32  C   UNL     1      -3.234  -5.036  -9.242  0.00  0.00    +0.175 C 
ATOM     33  C   UNL     1      -3.114  -3.518  -9.400  0.00  0.00    +0.113 C 
ENDBRANCH  22  28
ENDBRANCH  21  22
ENDBRANCH  18  21
ENDBRANCH   7  18
BRANCH   1  35
ATOM     34  C   UNL     1      -0.006   1.538   0.013  0.00  0.00    +0.029 C 
ATOM     35  C   UNL     1       0.002   0.008  -0.004  0.00  0.00    +0.140 C 
ENDBRANCH   1  35
TORSDOF 6
