REMARK  Name = ZINC13303986
REMARK  8 active torsions:
REMARK  status: ('A' for Active; 'I' for Inactive)
REMARK    1  A    between atoms: C_1  and  C_2
REMARK    2  A    between atoms: C_5  and  N_9
REMARK    3  A    between atoms: C_7  and  C_8
REMARK    4  A    between atoms: N_11  and  C_27
REMARK    5  A    between atoms: C_15  and  C_17
REMARK    6  A    between atoms: C_15  and  C_23
REMARK    7  A    between atoms: C_30  and  C_34
REMARK    8  A    between atoms: C_31  and  C_33
REMARK                            x       y       z     vdW  Elec       q    Type
REMARK                         _______ _______ _______ _____ _____    ______ ____
ROOT
ATOM      1  N   UNL     1      -3.335   3.623   0.922  0.00  0.00    -0.225 NA
ATOM      2  C   UNL     1      -3.742   3.400  -0.305  0.00  0.00    +0.171 C 
ATOM      3  N   UNL     1      -4.611   4.269  -0.950  0.00  0.00    -0.203 N 
ATOM      4  C   UNL     1      -5.401   3.854  -1.941  0.00  0.00    +0.314 C 
ATOM      5  O   UNL     1      -6.092   4.699  -2.475  0.00  0.00    -0.252 OA
ATOM      6  N   UNL     1      -5.519   2.613  -2.402  0.00  0.00    -0.273 N 
ATOM      7  C   UNL     1      -4.836   1.451  -1.835  0.00  0.00    +0.210 C 
ATOM      8  S   UNL     1      -3.212   1.972  -1.211  0.00  0.00    -0.050 S 
ATOM      9  H   UNL     1      -6.097   2.469  -3.168  0.00  0.00    +0.152 HD
ENDROOT
BRANCH   1  14
ATOM     10  C   UNL     1       0.503   0.222   3.285  0.00  0.00    +0.044 C 
ATOM     11  C   UNL     1      -0.521   1.130   2.655  0.00  0.00    -0.047 A 
ATOM     12  C   UNL     1      -1.701   1.407   3.323  0.00  0.00    +0.006 A 
ATOM     13  C   UNL     1      -2.645   2.232   2.749  0.00  0.00    +0.028 A 
ATOM     14  C   UNL     1      -2.404   2.798   1.496  0.00  0.00    +0.067 A 
ATOM     15  C   UNL     1      -1.211   2.515   0.827  0.00  0.00    +0.031 A 
ATOM     16  C   UNL     1      -0.278   1.683   1.410  0.00  0.00    -0.046 A 
ATOM     17  C   UNL     1       1.010   1.376   0.690  0.00  0.00    +0.044 C 
ENDBRANCH   1  14
BRANCH   3  18
ATOM     18  C   UNL     1      -4.656   5.613  -0.557  0.00  0.00    +0.045 A 
ATOM     19  C   UNL     1      -3.749   6.523  -1.084  0.00  0.00    +0.024 A 
ATOM     20  C   UNL     1      -3.800   7.848  -0.699  0.00  0.00    +0.005 A 
ATOM     21  C   UNL     1      -4.745   8.267   0.220  0.00  0.00    -0.047 A 
ATOM     22  C   UNL     1      -5.645   7.362   0.751  0.00  0.00    -0.046 A 
ATOM     23  C   UNL     1      -5.604   6.036   0.365  0.00  0.00    +0.027 A 
ATOM     24  C   UNL     1      -6.674   7.822   1.751  0.00  0.00    +0.044 C 
ATOM     25  C   UNL     1      -4.794   9.713   0.643  0.00  0.00    +0.044 C 
ENDBRANCH   3  18
BRANCH   7  26
ATOM     26  C   UNL     1      -5.654   0.885  -0.703  0.00  0.00    -0.005 A 
ATOM     27  C   UNL     1      -7.023   1.074  -0.677  0.00  0.00    +0.007 A 
ATOM     28  C   UNL     1      -7.774   0.550   0.359  0.00  0.00    +0.000 A 
ATOM     29  C   UNL     1      -7.154  -0.154   1.375  0.00  0.00    +0.000 A 
ATOM     30  C   UNL     1      -5.784  -0.338   1.352  0.00  0.00    +0.000 A 
ATOM     31  C   UNL     1      -5.034   0.181   0.313  0.00  0.00    +0.007 A 
ENDBRANCH   7  26
BRANCH   7  32
ATOM     32  C   UNL     1      -4.652   0.386  -2.917  0.00  0.00    +0.425 C 
ATOM     33  F   UNL     1      -3.986  -0.719  -2.376  0.00  0.00    -0.167 F 
ATOM     34  F   UNL     1      -5.904  -0.014  -3.396  0.00  0.00    -0.167 F 
ATOM     35  F   UNL     1      -3.898   0.915  -3.970  0.00  0.00    -0.167 F 
ENDBRANCH   7  32
TORSDOF 4
