REMARK  Name = ZINC33513801
REMARK  8 active torsions:
REMARK  status: ('A' for Active; 'I' for Inactive)
REMARK    1  A    between atoms: C_1  and  C_2
REMARK    2  A    between atoms: C_3  and  C_33
REMARK    3  A    between atoms: C_5  and  N_25
REMARK    4  A    between atoms: C_6  and  C_7
REMARK    5  A    between atoms: C_7  and  C_9
REMARK    6  A    between atoms: C_7  and  N_18
REMARK    7  A    between atoms: C_13  and  N_15
REMARK    8  A    between atoms: C_26  and  C_28
REMARK                            x       y       z     vdW  Elec       q    Type
REMARK                         _______ _______ _______ _____ _____    ______ ____
ROOT
ATOM      1  C   UNL     1      -0.163   5.749  -0.133  0.00  0.00    +0.135 C 
ENDROOT
BRANCH   1   2
ATOM      2  N   UNL     1      -1.335   6.144  -0.918  0.00  0.00    -0.320 N 
ATOM      3  C   UNL     1      -1.205   6.408  -2.276  0.00  0.00    +0.097 A 
ATOM      4  C   UNL     1       0.042   6.301  -2.883  0.00  0.00    +0.041 A 
ATOM      5  C   UNL     1       0.156   6.560  -4.237  0.00  0.00    +0.005 A 
ATOM      6  C   UNL     1      -0.983   6.931  -4.939  0.00  0.00    +0.018 A 
ATOM      7  C   UNL     1      -2.188   7.024  -4.272  0.00  0.00    +0.084 A 
ATOM      8  N   UNL     1      -2.268   6.765  -2.980  0.00  0.00    -0.350 N 
ATOM      9  H   UNL     1      -2.318   6.232  -0.432  0.00  0.00    +0.148 HD
ATOM     10  H   UNL     1      -3.249   6.851  -2.490  0.00  0.00    +0.166 HD
ENDBRANCH   1   2
BRANCH   1  16
ATOM     11  C   UNL     1       1.836   6.917   1.636  0.00  0.00    +0.045 C 
ATOM     12  C   UNL     1       0.494   6.492   2.174  0.00  0.00    -0.033 A 
ATOM     13  C   UNL     1       0.200   6.647   3.487  0.00  0.00    -0.008 A 
ATOM     14  S   UNL     1      -1.461   6.000   3.576  0.00  0.00    -0.078 S 
ATOM     15  C   UNL     1      -1.658   5.569   1.855  0.00  0.00    +0.078 A 
ATOM     16  C   UNL     1      -0.454   5.937   1.334  0.00  0.00    +0.009 A 
ATOM     17  C   UNL     1       1.055   7.218   4.589  0.00  0.00    +0.052 C 
BRANCH  15  18
ATOM     18  N   UNL     1      -2.759   5.001   1.211  0.00  0.00    -0.273 N 
ATOM     19  C   UNL     1      -3.907   4.801   1.888  0.00  0.00    +0.284 C 
ATOM     20  O   UNL     1      -3.984   5.116   3.061  0.00  0.00    -0.266 OA
ATOM     21  H   UNL     1      -2.689   4.717   0.150  0.00  0.00    +0.156 HD
BRANCH  19  22
ATOM     22  C   UNL     1      -5.063   4.205   1.211  0.00  0.00    +0.189 A 
ATOM     23  C   UNL     1      -6.279   3.949   1.776  0.00  0.00    +0.054 A 
ATOM     24  C   UNL     1      -7.079   3.380   0.772  0.00  0.00    +0.042 A 
ATOM     25  C   UNL     1      -6.325   3.315  -0.347  0.00  0.00    +0.196 A 
ATOM     26  O   UNL     1      -5.113   3.818  -0.080  0.00  0.00    -0.458 OA
ENDBRANCH  19  22
ENDBRANCH  15  18
ENDBRANCH   1  16
BRANCH   1  27
ATOM     27  C   UNL     1       0.155   4.300  -0.400  0.00  0.00    -0.021 A 
ATOM     28  C   UNL     1      -0.854   3.425  -0.754  0.00  0.00    +0.006 A 
ATOM     29  C   UNL     1      -0.561   2.097  -1.005  0.00  0.00    +0.003 A 
ATOM     30  C   UNL     1       0.739   1.643  -0.891  0.00  0.00    +0.033 A 
ATOM     31  C   UNL     1       1.749   2.518  -0.538  0.00  0.00    +0.127 A 
ATOM     32  C   UNL     1       1.457   3.847  -0.292  0.00  0.00    +0.038 A 
BRANCH  31  33
ATOM     33  N   UNL     1       3.142   2.034  -0.422  0.00  0.00    +0.056 N 
ATOM     34  O   UNL     1       3.400   0.863  -0.639  0.00  0.00    -0.126 OA
ATOM     35  O   UNL     1       4.032   2.805  -0.110  0.00  0.00    -0.126 OA
ENDBRANCH  31  33
ENDBRANCH   1  27
TORSDOF 6
