REMARK  Name = ZINC63485959
REMARK  6 active torsions:
REMARK  status: ('A' for Active; 'I' for Inactive)
REMARK    1  A    between atoms: C_1  and  C_2
REMARK    2  A    between atoms: C_13  and  C_15
REMARK    3  A    between atoms: C_15  and  C_16
REMARK    4  A    between atoms: N_18  and  C_19
REMARK    5  A    between atoms: C_19  and  C_20
REMARK    6  A    between atoms: C_20  and  C_21
REMARK                            x       y       z     vdW  Elec       q    Type
REMARK                         _______ _______ _______ _____ _____    ______ ____
ROOT
ATOM      1  C   UNL     1      -0.019   1.526   0.010  0.00  0.00    +0.013 C 
ATOM      2  C   UNL     1       0.002  -0.004   0.002  0.00  0.00    +0.034 C 
ATOM      3  C   UNL     1      -1.414  -0.524   0.009  0.00  0.00    -0.001 A 
ATOM      4  C   UNL     1      -2.346   0.128  -0.756  0.00  0.00    +0.019 A 
ATOM      5  C   UNL     1      -3.665  -0.318  -0.789  0.00  0.00    +0.024 A 
ATOM      6  C   UNL     1      -4.045  -1.443  -0.035  0.00  0.00    +0.139 A 
ATOM      7  C   UNL     1      -3.092  -2.092   0.736  0.00  0.00    +0.093 A 
ATOM      8  C   UNL     1      -1.783  -1.633   0.759  0.00  0.00    +0.139 A 
ATOM      9  O   UNL     1      -0.888  -2.295   1.545  0.00  0.00    -0.425 OA
ATOM     10  C   UNL     1       0.415  -1.979   1.408  0.00  0.00    +0.316 C 
ATOM     11  O   UNL     1       1.276  -2.826   1.418  0.00  0.00    -0.250 OA
ATOM     12  C   UNL     1       0.747  -0.510   1.241  0.00  0.00    +0.114 C 
ATOM     13  O   UNL     1      -5.360  -1.649  -0.253  0.00  0.00    -0.459 OA
ATOM     14  C   UNL     1      -5.857  -0.731  -1.098  0.00  0.00    +0.109 A 
ATOM     15  C   UNL     1      -4.883   0.116  -1.471  0.00  0.00    +0.001 A 
ATOM     16  C   UNL     1      -5.063   1.275  -2.414  0.00  0.00    +0.039 C 
ATOM     17  C   UNL     1      -6.383   1.084  -3.172  0.00  0.00    +0.005 C 
ATOM     18  C   UNL     1      -7.499   0.772  -2.171  0.00  0.00    +0.008 C 
ATOM     19  C   UNL     1      -7.285  -0.627  -1.584  0.00  0.00    +0.075 C 
ENDROOT
BRANCH  12  20
ATOM     20  C   UNL     1       0.290   0.271   2.476  0.00  0.00    +0.111 C 
BRANCH  20  21
ATOM     21  C   UNL     1       1.113  -0.147   3.667  0.00  0.00    +0.214 C 
ATOM     22  O   UNL     1       1.980  -0.986   3.541  0.00  0.00    -0.276 OA
ATOM     23  N   UNL     1       0.886   0.412   4.872  0.00  0.00    -0.315 N 
ATOM     24  H   UNL     1       0.193   1.083   4.973  0.00  0.00    +0.149 HD
BRANCH  23  25
ATOM     25  C   UNL     1       1.687   0.006   6.030  0.00  0.00    +0.108 C 
BRANCH  25  26
ATOM     26  C   UNL     1       1.230   0.786   7.264  0.00  0.00    +0.052 C 
BRANCH  26  27
ATOM     27  C   UNL     1       2.054   0.369   8.456  0.00  0.00    -0.040 C 
ATOM     28  C   UNL     1       3.162   0.980   8.932  0.00  0.00    +0.002 A 
ATOM     29  C   UNL     1       3.904   2.170   8.500  0.00  0.00    +0.048 A 
ATOM     30  C   UNL     1       5.005   2.545   9.194  0.00  0.00    +0.124 A 
ATOM     31  C   UNL     1       5.451   1.825  10.314  0.00  0.00    +0.040 A 
ATOM     32  C   UNL     1       4.821   0.722  10.769  0.00  0.00    +0.029 A 
ATOM     33  C   UNL     1       3.654   0.239  10.116  0.00  0.00    +0.043 A 
ATOM     34  N   UNL     1       2.879  -0.790  10.361  0.00  0.00    -0.380 N 
ATOM     35  C   UNL     1       1.804  -0.814   9.364  0.00  0.00    +0.144 C 
ATOM     36  F   UNL     1       5.691   3.640   8.799  0.00  0.00    -0.205 F 
ATOM     37  H   UNL     1       2.996  -1.427  11.084  0.00  0.00    +0.160 HD
ENDBRANCH  26  27
ENDBRANCH  25  26
ENDBRANCH  23  25
ENDBRANCH  20  21
ENDBRANCH  12  20
TORSDOF 5
