REMARK  Name = ZINC28057989
REMARK  4 active torsions:
REMARK  status: ('A' for Active; 'I' for Inactive)
REMARK    1  A    between atoms: C_1  and  O_2
REMARK    2  A    between atoms: O_2  and  C_3
REMARK    3  A    between atoms: C_8  and  C_9
REMARK    4  A    between atoms: C_20  and  C_22
REMARK                            x       y       z     vdW  Elec       q    Type
REMARK                         _______ _______ _______ _____ _____    ______ ____
ROOT
ATOM      1  C   UNL     1       0.275  -2.975   2.260  0.00  0.00    +0.177 C 
ATOM      2  C   UNL     1       1.469  -2.688   1.385  0.00  0.00    +0.026 C 
ATOM      3  C   UNL     1       2.723  -2.857   1.809  0.00  0.00    +0.050 C 
ATOM      4  C   UNL     1       3.832  -2.552   0.874  0.00  0.00    +0.038 A 
ATOM      5  C   UNL     1       5.133  -2.368   1.324  0.00  0.00    +0.013 A 
ATOM      6  C   UNL     1       6.136  -2.092   0.414  0.00  0.00    +0.001 A 
ATOM      7  C   UNL     1       5.847  -1.999  -0.936  0.00  0.00    +0.004 A 
ATOM      8  C   UNL     1       4.554  -2.179  -1.393  0.00  0.00    +0.046 A 
ATOM      9  C   UNL     1       3.541  -2.455  -0.493  0.00  0.00    +0.131 A 
ATOM     10  O   UNL     1       2.259  -2.637  -0.899  0.00  0.00    -0.479 OA
ATOM     11  C   UNL     1       1.229  -2.185  -0.021  0.00  0.00    +0.234 C 
ATOM     12  N   UNL     1       3.021  -3.317   3.098  0.00  0.00    -0.282 N 
ATOM     13  C   UNL     1       1.981  -3.862   3.833  0.00  0.00    +0.240 A 
ATOM     14  N   UNL     1       0.687  -3.714   3.445  0.00  0.00    -0.201 N 
ATOM     15  N   UNL     1      -0.067  -4.394   4.401  0.00  0.00    -0.042 NA
ATOM     16  N   UNL     1       0.773  -4.876   5.258  0.00  0.00    -0.021 NA
ATOM     17  N   UNL     1       1.980  -4.564   4.929  0.00  0.00    -0.092 NA
ATOM     18  H   UNL     1       4.046  -3.238   3.487  0.00  0.00    +0.155 HD
ENDROOT
BRANCH  11  19
ATOM     19  C   UNL     1       1.208  -0.678  -0.013  0.00  0.00    -0.002 A 
ATOM     20  C   UNL     1       0.008  -0.003  -0.134  0.00  0.00    +0.007 A 
ATOM     21  C   UNL     1      -0.011   1.379  -0.127  0.00  0.00    +0.001 A 
ATOM     22  C   UNL     1       1.169   2.087   0.000  0.00  0.00    +0.015 A 
ATOM     23  C   UNL     1       2.370   1.411   0.121  0.00  0.00    +0.018 A 
ATOM     24  C   UNL     1       2.389   0.028   0.114  0.00  0.00    +0.022 A 
ATOM     25 BR   UNL     1       3.985   2.378   0.303  0.00  0.00    -0.050 Br
ENDBRANCH  11  19
BRANCH   1  31
ATOM     26  C   UNL     1      -1.681  -1.408   2.340  0.00  0.00    +0.126 A 
ATOM     27  C   UNL     1      -2.265  -0.210   2.727  0.00  0.00    +0.046 A 
ATOM     28  C   UNL     1      -1.532   0.713   3.448  0.00  0.00    +0.004 A 
ATOM     29  C   UNL     1      -0.218   0.443   3.785  0.00  0.00    +0.001 A 
ATOM     30  C   UNL     1       0.364  -0.751   3.404  0.00  0.00    +0.009 A 
ATOM     31  C   UNL     1      -0.363  -1.675   2.679  0.00  0.00    +0.023 A 
BRANCH  26  33
ATOM     32  C   UNL     1      -3.751  -1.975   1.317  0.00  0.00    +0.277 C 
ATOM     33  O   UNL     1      -2.399  -2.317   1.630  0.00  0.00    -0.495 OA
ENDBRANCH  26  33
ENDBRANCH   1  31
TORSDOF 3
