REMARK  Name = ZINC02826858
REMARK  5 active torsions:
REMARK  status: ('A' for Active; 'I' for Inactive)
REMARK    1  A    between atoms: C_1  and  C_2
REMARK    2  A    between atoms: C_6  and  C_8
REMARK    3  A    between atoms: C_8  and  O_10
REMARK    4  A    between atoms: O_10  and  C_11
REMARK    5  A    between atoms: C_14  and  C_18
REMARK                            x       y       z     vdW  Elec       q    Type
REMARK                         _______ _______ _______ _____ _____    ______ ____
ROOT
ATOM      1  C   UNL     1       0.835   7.349   0.200  0.00  0.00    +0.146 A 
ATOM      2  C   UNL     1      -0.425   7.890   0.433  0.00  0.00    +0.048 A 
ATOM      3  C   UNL     1      -0.609   9.253   0.398  0.00  0.00    +0.011 A 
ATOM      4  C   UNL     1       0.477  10.098   0.127  0.00  0.00    -0.023 A 
ATOM      5  C   UNL     1       1.745   9.547  -0.107  0.00  0.00    +0.027 A 
ATOM      6  C   UNL     1       1.918   8.182  -0.064  0.00  0.00    +0.061 A 
ATOM      7 BR   UNL     1       3.628   7.437  -0.371  0.00  0.00    -0.046 Br
ENDROOT
BRANCH   4   8
ATOM      8  C   UNL     1       0.287  11.550   0.088  0.00  0.00    +0.024 C 
ATOM      9  C   UNL     1      -0.908  12.077  -0.345  0.00  0.00    +0.081 C 
ATOM     10  C   UNL     1      -1.973  11.222  -0.942  0.00  0.00    +0.152 C 
ATOM     11  N   UNL     1      -1.721  10.157  -1.655  0.00  0.00    -0.283 NA
ATOM     12  N   UNL     1      -3.280  11.675  -0.662  0.00  0.00    -0.152 N 
ATOM     13  C   UNL     1      -3.437  13.003  -0.330  0.00  0.00    +0.180 C 
ATOM     14  N   UNL     1      -2.498  13.903  -0.170  0.00  0.00    -0.152 NA
ATOM     15  C   UNL     1      -1.209  13.527  -0.238  0.00  0.00    +0.273 C 
ATOM     16  O   UNL     1      -0.313  14.355  -0.216  0.00  0.00    -0.268 OA
ATOM     17  S   UNL     1      -5.195  13.136  -0.143  0.00  0.00    -0.041 S 
ATOM     18  C   UNL     1      -5.596  11.426  -0.478  0.00  0.00    +0.179 C 
ATOM     19  N   UNL     1      -4.424  10.907  -0.708  0.00  0.00    -0.173 NA
ATOM     20  H   UNL     1      -2.447   9.676  -2.082  0.00  0.00    +0.188 HD
ENDBRANCH   4   8
BRANCH   1  21
ATOM     21  O   UNL     1       1.010   6.004   0.236  0.00  0.00    -0.421 OA
BRANCH  21  22
ATOM     22  C   UNL     1       1.415   5.471   1.405  0.00  0.00    +0.344 C 
ATOM     23  O   UNL     1       1.694   6.196   2.339  0.00  0.00    -0.245 OA
BRANCH  22  29
ATOM     24  C   UNL     1       2.477   1.476   4.200  0.00  0.00    +0.044 C 
ATOM     25  C   UNL     1       2.029   2.078   2.893  0.00  0.00    -0.050 A 
ATOM     26  C   UNL     1       1.715   1.256   1.825  0.00  0.00    +0.003 A 
ATOM     27  C   UNL     1       1.299   1.800   0.624  0.00  0.00    +0.001 A 
ATOM     28  C   UNL     1       1.199   3.168   0.480  0.00  0.00    +0.015 A 
ATOM     29  C   UNL     1       1.519   4.004   1.551  0.00  0.00    +0.060 A 
ATOM     30  C   UNL     1       1.939   3.448   2.762  0.00  0.00    +0.018 A 
ENDBRANCH  22  29
ENDBRANCH  21  22
ENDBRANCH   1  21
TORSDOF 4
