REMARK  Name = ZINC16649331
REMARK  15 active torsions:
REMARK  status: ('A' for Active; 'I' for Inactive)
REMARK    1  A    between atoms: C_1  and  N_2
REMARK    2  A    between atoms: N_2  and  C_3
REMARK    3  A    between atoms: N_6  and  C_7
REMARK    4  A    between atoms: N_6  and  C_12
REMARK    5  A    between atoms: C_7  and  C_8
REMARK    6  A    between atoms: C_8  and  C_9
REMARK    7  A    between atoms: C_9  and  O_10
REMARK    8  A    between atoms: O_10  and  C_11
REMARK    9  A    between atoms: C_12  and  C_13
REMARK   10  A    between atoms: N_15  and  C_16
REMARK   11  A    between atoms: N_15  and  C_28
REMARK   12  A    between atoms: C_16  and  C_17
REMARK   13  A    between atoms: C_17  and  C_18
REMARK   14  A    between atoms: C_28  and  C_29
REMARK   15  A    between atoms: C_32  and  C_35
REMARK                            x       y       z     vdW  Elec       q    Type
REMARK                         _______ _______ _______ _____ _____    ______ ____
ROOT
ATOM      1  C   UNL     1      -5.075  -1.859  -1.229  0.00  0.00    +0.233 C 
ATOM      2  O   UNL     1      -5.425  -0.710  -1.064  0.00  0.00    -0.274 OA
ATOM      3  N   UNL     1      -3.850  -2.255  -0.831  0.00  0.00    -0.296 N 
ENDROOT
BRANCH   1   4
ATOM      4  C   UNL     1      -6.010  -2.846  -1.880  0.00  0.00    +0.205 C 
BRANCH   4  10
ATOM      5  C   UNL     1      -5.749   0.041  -4.901  0.00  0.00    +0.133 C 
ATOM      6  N   UNL     1      -5.998  -1.142  -4.073  0.00  0.00    -0.292 N 
ATOM      7  C   UNL     1      -5.039  -2.249  -4.070  0.00  0.00    +0.133 C 
ATOM      8  C   UNL     1      -7.110  -1.211  -3.314  0.00  0.00    +0.305 C 
ATOM      9  O   UNL     1      -8.023  -0.430  -3.501  0.00  0.00    -0.252 OA
ATOM     10  N   UNL     1      -7.209  -2.146  -2.349  0.00  0.00    -0.277 N 
BRANCH  10  11
ATOM     11  C   UNL     1      -8.516  -2.462  -1.767  0.00  0.00    +0.112 C 
BRANCH  11  12
ATOM     12  C   UNL     1      -8.770  -1.557  -0.560  0.00  0.00    +0.047 C 
BRANCH  12  13
ATOM     13  C   UNL     1     -10.135  -1.887   0.047  0.00  0.00    +0.161 C 
BRANCH  13  14
ATOM     14  O   UNL     1     -10.373  -1.041   1.174  0.00  0.00    -0.383 OA
ATOM     15  C   UNL     1     -11.628  -1.269   1.817  0.00  0.00    +0.193 C 
ENDBRANCH  13  14
ENDBRANCH  12  13
ENDBRANCH  11  12
ENDBRANCH  10  11
ENDBRANCH   4  10
ENDBRANCH   1   4
BRANCH   3  16
ATOM     16  C   UNL     1      -2.886  -1.267  -0.338  0.00  0.00    +0.113 C 
BRANCH  16  17
ATOM     17  C   UNL     1      -3.046  -1.110   1.175  0.00  0.00    +0.056 C 
BRANCH  17  18
ATOM     18  C   UNL     1      -2.055  -0.094   1.683  0.00  0.00    -0.021 A 
ATOM     19  C   UNL     1      -0.842  -0.350   2.197  0.00  0.00    +0.087 A 
ATOM     20  N   UNL     1      -0.228   0.821   2.550  0.00  0.00    -0.360 N 
ATOM     21  H   UNL     1       0.655   0.890   2.944  0.00  0.00    +0.165 HD
ATOM     22  C   UNL     1      -1.052   1.886   2.264  0.00  0.00    +0.047 A 
ATOM     23  C   UNL     1      -2.233   1.360   1.708  0.00  0.00    +0.003 A 
ATOM     24  C   UNL     1      -3.264   2.218   1.322  0.00  0.00    +0.010 A 
ATOM     25  C   UNL     1      -3.117   3.568   1.478  0.00  0.00    +0.001 A 
ATOM     26  C   UNL     1      -1.954   4.092   2.026  0.00  0.00    +0.002 A 
ATOM     27  C   UNL     1      -0.926   3.263   2.418  0.00  0.00    +0.026 A 
ENDBRANCH  17  18
ENDBRANCH  16  17
ENDBRANCH   3  16
BRANCH   3  28
ATOM     28  C   UNL     1      -3.481  -3.671  -0.891  0.00  0.00    +0.143 C 
BRANCH  28  29
ATOM     29  C   UNL     1      -3.767  -4.321   0.438  0.00  0.00    -0.030 A 
ATOM     30  C   UNL     1      -2.855  -4.213   1.471  0.00  0.00    +0.006 A 
ATOM     31  C   UNL     1      -3.120  -4.806   2.692  0.00  0.00    +0.013 A 
ATOM     32  C   UNL     1      -4.292  -5.515   2.876  0.00  0.00    +0.055 A 
ATOM     33  C   UNL     1      -5.202  -5.628   1.841  0.00  0.00    +0.013 A 
ATOM     34  C   UNL     1      -4.939  -5.031   0.622  0.00  0.00    +0.006 A 
BRANCH  32  35
ATOM     35  C   UNL     1      -4.578  -6.165   4.205  0.00  0.00    +0.417 C 
ATOM     36  F   UNL     1      -4.066  -7.467   4.207  0.00  0.00    -0.166 F 
ATOM     37  F   UNL     1      -3.974  -5.425   5.226  0.00  0.00    -0.166 F 
ATOM     38  F   UNL     1      -5.961  -6.208   4.415  0.00  0.00    -0.166 F 
ENDBRANCH  32  35
ENDBRANCH  28  29
ENDBRANCH   3  28
TORSDOF 12
