REMARK  Name = ZINC33250858
REMARK  11 active torsions:
REMARK  status: ('A' for Active; 'I' for Inactive)
REMARK    1  A    between atoms: C_1  and  C_2
REMARK    2  A    between atoms: C_5  and  C_37
REMARK    3  A    between atoms: C_6  and  C_8
REMARK    4  A    between atoms: C_9  and  C_10
REMARK    5  A    between atoms: C_11  and  S_16
REMARK    6  A    between atoms: C_12  and  C_15
REMARK    7  A    between atoms: S_16  and  N_19
REMARK    8  A    between atoms: C_23  and  C_26
REMARK    9  A    between atoms: N_28  and  C_29
REMARK   10  A    between atoms: C_31  and  C_36
REMARK   11  A    between atoms: C_34  and  C_35
REMARK                            x       y       z     vdW  Elec       q    Type
REMARK                         _______ _______ _______ _____ _____    ______ ____
ROOT
ATOM      1  S   UNL     1      -2.682  -3.679  -0.032  0.00  0.00    +0.066 S 
ATOM      2  O   UNL     1      -3.264  -4.852  -0.585  0.00  0.00    -0.153 OA
ATOM      3  O   UNL     1      -1.529  -3.065  -0.591  0.00  0.00    -0.153 OA
ENDROOT
BRANCH   1   5
ATOM      4  C   UNL     1      -3.800  -1.086  -0.000  0.00  0.00    +0.187 A 
ATOM      5  C   UNL     1      -3.946  -2.452  -0.009  0.00  0.00    +0.174 A 
ATOM      6  C   UNL     1      -5.341  -2.642   0.008  0.00  0.00    +0.107 A 
ATOM      7  N   UNL     1      -5.880  -1.456   0.016  0.00  0.00    -0.081 NA
ATOM      8  O   UNL     1      -5.048  -0.579   0.011  0.00  0.00    -0.353 OA
ATOM      9  C   UNL     1      -6.069  -3.962   0.011  0.00  0.00    +0.071 C 
BRANCH   4  11
ATOM     10  C   UNL     1      -2.564   1.014  -0.005  0.00  0.00    +0.012 C 
ATOM     11  C   UNL     1      -2.543  -0.333  -0.009  0.00  0.00    +0.051 C 
BRANCH  10  17
ATOM     12  C   UNL     1       2.422   1.082  -0.060  0.00  0.00    +0.044 C 
ATOM     13  C   UNL     1       1.102   1.809  -0.040  0.00  0.00    -0.050 A 
ATOM     14  C   UNL     1       1.076   3.192  -0.035  0.00  0.00    +0.003 A 
ATOM     15  C   UNL     1      -0.131   3.869  -0.017  0.00  0.00    +0.004 A 
ATOM     16  C   UNL     1      -1.318   3.168  -0.003  0.00  0.00    -0.043 A 
ATOM     17  C   UNL     1      -1.300   1.770  -0.013  0.00  0.00    -0.022 A 
ATOM     18  C   UNL     1      -0.076   1.093  -0.026  0.00  0.00    +0.011 A 
ATOM     19  C   UNL     1      -2.631   3.906   0.017  0.00  0.00    +0.044 C 
ENDBRANCH  10  17
ENDBRANCH   4  11
ENDBRANCH   1   5
BRANCH   1  20
ATOM     20  N   UNL     1      -2.313  -4.032   1.543  0.00  0.00    -0.176 NA
ATOM     21  C   UNL     1      -1.261  -3.288   2.251  0.00  0.00    +0.109 C 
ATOM     22  C   UNL     1      -1.850  -2.732   3.556  0.00  0.00    +0.018 C 
ATOM     23  C   UNL     1      -2.459  -3.880   4.364  0.00  0.00    +0.015 C 
ATOM     24  C   UNL     1      -3.592  -4.525   3.562  0.00  0.00    +0.091 C 
ATOM     25  C   UNL     1      -3.027  -5.098   2.259  0.00  0.00    +0.122 C 
BRANCH  24  26
ATOM     26  C   UNL     1      -4.213  -5.634   4.372  0.00  0.00    +0.222 C 
ATOM     27  O   UNL     1      -4.205  -6.771   3.950  0.00  0.00    -0.275 OA
ATOM     28  N   UNL     1      -4.777  -5.362   5.566  0.00  0.00    -0.285 N 
ATOM     29  H   UNL     1      -4.704  -4.350   5.991  0.00  0.00    +0.155 HD
BRANCH  28  30
ATOM     30  C   UNL     1      -5.454  -6.368   6.264  0.00  0.00    +0.037 A 
ATOM     31  C   UNL     1      -5.998  -7.446   5.579  0.00  0.00    +0.027 A 
ATOM     32  C   UNL     1      -6.666  -8.437   6.271  0.00  0.00    -0.049 A 
ATOM     33  C   UNL     1      -6.793  -8.356   7.646  0.00  0.00    +0.004 A 
ATOM     34  C   UNL     1      -6.252  -7.284   8.332  0.00  0.00    +0.005 A 
ATOM     35  C   UNL     1      -5.579  -6.293   7.645  0.00  0.00    -0.029 A 
ATOM     36  C   UNL     1      -4.984  -5.128   8.394  0.00  0.00    +0.045 C 
ATOM     37  C   UNL     1      -7.257  -9.607   5.528  0.00  0.00    +0.044 C 
ENDBRANCH  28  30
ENDBRANCH  24  26
ENDBRANCH   1  20
TORSDOF 6
