REMARK  Name = ZINC36494317
REMARK  13 active torsions:
REMARK  status: ('A' for Active; 'I' for Inactive)
REMARK    1  A    between atoms: C_1  and  C_2
REMARK    2  A    between atoms: C_5  and  C_8
REMARK    3  A    between atoms: C_8  and  C_10
REMARK    4  A    between atoms: C_8  and  N_17
REMARK    5  A    between atoms: N_12  and  C_13
REMARK    6  A    between atoms: C_13  and  C_14
REMARK    7  A    between atoms: C_13  and  C_15
REMARK    8  A    between atoms: C_13  and  C_16
REMARK    9  A    between atoms: N_17  and  C_18
REMARK   10  A    between atoms: C_18  and  C_19
REMARK   11  A    between atoms: C_24  and  C_26
REMARK   12  A    between atoms: C_31  and  O_32
REMARK   13  A    between atoms: O_32  and  C_33
REMARK                            x       y       z     vdW  Elec       q    Type
REMARK                         _______ _______ _______ _____ _____    ______ ____
ROOT
ATOM      1  N   UNL     1      -1.283  -4.847   1.511  0.00  0.00    -0.275 N 
ATOM      2  C   UNL     1      -2.585  -4.542   1.679  0.00  0.00    +0.251 C 
ATOM      3  O   UNL     1      -3.054  -4.472   2.799  0.00  0.00    -0.270 OA
ENDROOT
BRANCH   2   4
ATOM      4  C   UNL     1      -3.442  -4.291   0.504  0.00  0.00    +0.078 A 
ATOM      5  C   UNL     1      -2.868  -4.102  -0.755  0.00  0.00    +0.017 A 
ATOM      6  C   UNL     1      -3.674  -3.869  -1.849  0.00  0.00    +0.001 A 
ATOM      7  C   UNL     1      -5.051  -3.821  -1.705  0.00  0.00    +0.004 A 
ATOM      8  C   UNL     1      -5.630  -4.006  -0.466  0.00  0.00    +0.046 A 
ATOM      9  C   UNL     1      -4.835  -4.247   0.645  0.00  0.00    +0.132 A 
BRANCH   9  10
ATOM     10  O   UNL     1      -5.404  -4.434   1.862  0.00  0.00    -0.494 OA
ATOM     11  C   UNL     1      -6.830  -4.376   1.928  0.00  0.00    +0.277 C 
ENDBRANCH   9  10
ENDBRANCH   2   4
BRANCH   1  12
ATOM     12  C   UNL     1      -0.680  -4.774   0.178  0.00  0.00    +0.193 C 
BRANCH  12  17
ATOM     13  C   UNL     1      -0.254   0.756  -1.442  0.00  0.00    +0.044 C 
ATOM     14  C   UNL     1      -0.365  -0.686  -1.019  0.00  0.00    -0.050 A 
ATOM     15  C   UNL     1       0.109  -1.687  -1.846  0.00  0.00    +0.004 A 
ATOM     16  C   UNL     1       0.007  -3.010  -1.459  0.00  0.00    +0.006 A 
ATOM     17  C   UNL     1      -0.568  -3.332  -0.244  0.00  0.00    -0.018 A 
ATOM     18  C   UNL     1      -1.041  -2.331   0.584  0.00  0.00    +0.006 A 
ATOM     19  C   UNL     1      -0.935  -1.007   0.198  0.00  0.00    +0.004 A 
ENDBRANCH  12  17
BRANCH  12  20
ATOM     20  C   UNL     1       0.693  -5.395   0.214  0.00  0.00    +0.239 C 
ATOM     21  O   UNL     1       0.999  -6.140   1.121  0.00  0.00    -0.273 OA
ATOM     22  N   UNL     1       1.581  -5.122  -0.762  0.00  0.00    -0.309 N 
ATOM     23  H   UNL     1       1.305  -4.616  -1.542  0.00  0.00    +0.149 HD
BRANCH  22  24
ATOM     24  C   UNL     1       2.964  -5.591  -0.646  0.00  0.00    +0.026 C 
ATOM     25  C   UNL     1       2.988  -7.121  -0.676  0.00  0.00    +0.031 C 
ATOM     26  C   UNL     1       3.787  -5.046  -1.815  0.00  0.00    +0.031 C 
ATOM     27  C   UNL     1       3.562  -5.097   0.672  0.00  0.00    +0.031 C 
ENDBRANCH  22  24
ENDBRANCH  12  20
ENDBRANCH   1  12
BRANCH   1  28
ATOM     28  C   UNL     1      -0.472  -5.253   2.662  0.00  0.00    +0.183 C 
BRANCH  28  29
ATOM     29  C   UNL     1      -0.665  -6.725   2.918  0.00  0.00    +0.122 A 
ATOM     30  C   UNL     1       0.253  -7.687   2.714  0.00  0.00    +0.046 A 
ATOM     31  C   UNL     1      -0.348  -8.912   3.084  0.00  0.00    +0.041 A 
ATOM     32  C   UNL     1      -1.597  -8.626   3.493  0.00  0.00    +0.195 A 
ATOM     33  O   UNL     1      -1.782  -7.299   3.396  0.00  0.00    -0.466 OA
ENDBRANCH  28  29
ENDBRANCH   1  28
TORSDOF 8
