REMARK  Name = ZINC38675881
REMARK  7 active torsions:
REMARK  status: ('A' for Active; 'I' for Inactive)
REMARK    1  A    between atoms: C_1  and  C_2
REMARK    2  A    between atoms: C_3  and  C_15
REMARK    3  A    between atoms: N_6  and  C_8
REMARK    4  A    between atoms: C_15  and  O_17
REMARK    5  A    between atoms: O_17  and  C_18
REMARK    6  A    between atoms: C_18  and  C_19
REMARK    7  A    between atoms: C_24  and  C_29
REMARK                            x       y       z     vdW  Elec       q    Type
REMARK                         _______ _______ _______ _____ _____    ______ ____
ROOT
ATOM      1  O   UNL     1      -3.453  -1.221   0.013  0.00  0.00    -0.454 OA
ENDROOT
BRANCH   1   2
ATOM      2  C   UNL     1      -2.442  -0.327   0.012  0.00  0.00    +0.340 C 
ATOM      3  O   UNL     1      -2.684   0.865   0.020  0.00  0.00    -0.245 OA
BRANCH   2   6
ATOM      4  C   UNL     1      -0.018   1.503   0.010  0.00  0.00    +0.062 C 
ATOM      5  C   UNL     1       0.002  -0.004   0.002  0.00  0.00    +0.032 C 
ATOM      6  C   UNL     1      -1.103  -0.776   0.003  0.00  0.00    +0.091 C 
ATOM      7  C   UNL     1      -0.634  -2.215  -0.007  0.00  0.00    +0.223 C 
ATOM      8  N   UNL     1       0.835  -2.119  -0.014  0.00  0.00    -0.231 N 
ATOM      9  N   UNL     1       1.136  -0.751  -0.013  0.00  0.00    -0.266 N 
ATOM     10 CL   UNL     1      -1.221  -3.058  -1.489  0.00  0.00    -0.094 Cl
ATOM     11  H   UNL     1       2.034  -0.386  -0.020  0.00  0.00    +0.170 HD
BRANCH   8  12
ATOM     12  C   UNL     1       1.745  -3.178  -0.025  0.00  0.00    +0.050 A 
ATOM     13  C   UNL     1       1.287  -4.489  -0.036  0.00  0.00    +0.025 A 
ATOM     14  C   UNL     1       2.190  -5.535  -0.047  0.00  0.00    +0.002 A 
ATOM     15  C   UNL     1       3.549  -5.277  -0.046  0.00  0.00    +0.000 A 
ATOM     16  C   UNL     1       4.008  -3.972  -0.035  0.00  0.00    +0.002 A 
ATOM     17  C   UNL     1       3.111  -2.922  -0.030  0.00  0.00    +0.025 A 
ENDBRANCH   8  12
ENDBRANCH   2   6
ENDBRANCH   1   2
BRANCH   1  18
ATOM     18  C   UNL     1      -4.782  -0.697   0.022  0.00  0.00    +0.305 C 
BRANCH  18  19
ATOM     19  C   UNL     1      -5.771  -1.835   0.021  0.00  0.00    +0.161 C 
ATOM     20  N   UNL     1      -5.308  -3.062   0.018  0.00  0.00    -0.158 NA
ATOM     21  C   UNL     1      -6.106  -4.134   0.017  0.00  0.00    +0.272 C 
ATOM     22  O   UNL     1      -5.643  -5.263   0.014  0.00  0.00    -0.268 OA
ATOM     23  C   UNL     1      -7.581  -3.908   0.020  0.00  0.00    +0.075 C 
ATOM     24  C   UNL     1      -8.588  -4.842   0.021  0.00  0.00    -0.015 C 
ATOM     25  C   UNL     1     -10.008  -4.325   0.025  0.00  0.00    +0.112 C 
ATOM     26  S   UNL     1      -9.748  -2.506   0.028  0.00  0.00    -0.100 S 
ATOM     27  C   UNL     1      -7.974  -2.491   0.024  0.00  0.00    +0.112 C 
ATOM     28  N   UNL     1      -7.061  -1.545   0.029  0.00  0.00    -0.224 NA
BRANCH  24  29
ATOM     29  C   UNL     1      -8.298  -6.277   0.017  0.00  0.00    -0.020 A 
ATOM     30  C   UNL     1      -7.654  -6.864  -1.083  0.00  0.00    +0.008 A 
ATOM     31  C   UNL     1      -7.385  -8.215  -1.077  0.00  0.00    +0.001 A 
ATOM     32  C   UNL     1      -7.749  -8.993   0.009  0.00  0.00    +0.000 A 
ATOM     33  C   UNL     1      -8.386  -8.423   1.099  0.00  0.00    +0.001 A 
ATOM     34  C   UNL     1      -8.658  -7.073   1.115  0.00  0.00    +0.008 A 
ENDBRANCH  24  29
ENDBRANCH  18  19
ENDBRANCH   1  18
TORSDOF 6
