REMARK  Name = ZINC34668053
REMARK  8 active torsions:
REMARK  status: ('A' for Active; 'I' for Inactive)
REMARK    1  A    between atoms: C_1  and  C_2
REMARK    2  A    between atoms: C_9  and  C_11
REMARK    3  A    between atoms: C_11  and  C_12
REMARK    4  A    between atoms: C_12  and  C_13
REMARK    5  A    between atoms: C_14  and  C_27
REMARK    6  A    between atoms: N_16  and  C_26
REMARK    7  A    between atoms: C_17  and  O_18
REMARK    8  A    between atoms: O_18  and  C_19
REMARK                            x       y       z     vdW  Elec       q    Type
REMARK                         _______ _______ _______ _____ _____    ______ ____
ROOT
ATOM      1  C   UNL     1       3.665   0.599   5.132  0.00  0.00    +0.042 A 
ATOM      2  C   UNL     1       3.032   0.031   6.254  0.00  0.00    +0.100 A 
ATOM      3  N   UNL     1       3.965  -0.409   7.071  0.00  0.00    -0.168 NA
ATOM      4  N   UNL     1       5.214  -0.136   6.500  0.00  0.00    -0.235 N 
ATOM      5  C   UNL     1       5.005   0.478   5.307  0.00  0.00    +0.223 A 
ATOM      6  C   UNL     1       6.517  -0.462   7.084  0.00  0.00    +0.176 C 
ENDROOT
BRANCH   2   7
ATOM      7  C   UNL     1       1.567  -0.058   6.476  0.00  0.00    +0.002 A 
ATOM      8  C   UNL     1       1.004  -1.231   6.973  0.00  0.00    +0.010 A 
ATOM      9  C   UNL     1      -0.358  -1.307   7.178  0.00  0.00    +0.001 A 
ATOM     10  C   UNL     1      -1.165  -0.222   6.890  0.00  0.00    +0.000 A 
ATOM     11  C   UNL     1      -0.612   0.946   6.396  0.00  0.00    +0.001 A 
ATOM     12  C   UNL     1       0.750   1.035   6.192  0.00  0.00    +0.010 A 
ENDBRANCH   2   7
BRANCH   1  13
ATOM     13  C   UNL     1       2.976   1.225   3.946  0.00  0.00    +0.052 C 
BRANCH  13  14
ATOM     14  C   UNL     1       2.597   0.134   2.943  0.00  0.00    +0.101 C 
BRANCH  14  22
ATOM     15  C   UNL     1       1.142   2.097  -0.463  0.00  0.00    +0.026 C 
ATOM     16  C   UNL     1       0.918   0.583  -0.480  0.00  0.00    +0.056 C 
ATOM     17  C   UNL     1       1.622  -0.027  -1.697  0.00  0.00    -0.060 C 
ATOM     18  N   UNL     1       1.521  -1.491  -1.636  0.00  0.00    +0.381 N 
ATOM     19  C   UNL     1       2.248  -1.994  -0.465  0.00  0.00    -0.063 C 
ATOM     20  C   UNL     1       1.576  -1.481   0.813  0.00  0.00    +0.089 C 
ATOM     21  N   UNL     1       1.483  -0.014   0.739  0.00  0.00    -0.302 N 
ATOM     22  C   UNL     1       1.909   0.760   1.757  0.00  0.00    +0.216 C 
ATOM     23  O   UNL     1       1.739   1.960   1.718  0.00  0.00    -0.276 OA
ATOM     24  H   UNL     1       0.550  -1.757  -1.567  0.00  0.00    -0.086 HD
ATOM     25  H   UNL     1       1.917  -1.889  -2.474  0.00  0.00    -0.086 HD
ENDBRANCH  14  22
ENDBRANCH  13  14
ENDBRANCH   1  13
BRANCH   5  26
ATOM     26  O   UNL     1       5.966   0.898   4.444  0.00  0.00    -0.435 OA
BRANCH  26  27
ATOM     27  C   UNL     1       6.518   2.123   4.652  0.00  0.00    +0.165 A 
ATOM     28  C   UNL     1       6.174   2.859   5.776  0.00  0.00    +0.049 A 
ATOM     29  C   UNL     1       6.737   4.103   5.985  0.00  0.00    +0.004 A 
ATOM     30  C   UNL     1       7.643   4.616   5.075  0.00  0.00    +0.003 A 
ATOM     31  C   UNL     1       7.989   3.886   3.953  0.00  0.00    +0.042 A 
ATOM     32  C   UNL     1       7.433   2.637   3.741  0.00  0.00    +0.165 A 
ATOM     33  F   UNL     1       7.774   1.921   2.648  0.00  0.00    -0.202 F 
ENDBRANCH  26  27
ENDBRANCH   5  26
TORSDOF 6
