REMARK  Name = ZINC64061465
REMARK  6 active torsions:
REMARK  status: ('A' for Active; 'I' for Inactive)
REMARK    1  A    between atoms: C_1  and  C_2
REMARK    2  A    between atoms: C_2  and  O_3
REMARK    3  A    between atoms: O_3  and  C_4
REMARK    4  A    between atoms: C_9  and  N_12
REMARK    5  A    between atoms: C_13  and  C_15
REMARK    6  A    between atoms: C_24  and  C_26
REMARK                            x       y       z     vdW  Elec       q    Type
REMARK                         _______ _______ _______ _____ _____    ______ ____
ROOT
ATOM      1  C   UNL     1      -7.731  -5.258   3.215  0.00  0.00    +0.082 C 
ATOM      2  C   UNL     1      -7.485  -6.615   3.877  0.00  0.00    +0.021 C 
ATOM      3  C   UNL     1      -8.700  -6.413   2.971  0.00  0.00    -0.015 C 
ATOM      4  C   UNL     1      -8.679  -7.083   1.593  0.00  0.00    +0.026 C 
ATOM      5  C   UNL     1      -9.292  -8.483   1.716  0.00  0.00    +0.108 C 
ATOM      6  N   UNL     1     -10.593  -8.374   2.388  0.00  0.00    -0.299 N 
ATOM      7  C   UNL     1     -10.663  -7.755   3.718  0.00  0.00    +0.108 C 
ATOM      8  C   UNL     1     -10.079  -6.340   3.636  0.00  0.00    +0.026 C 
ATOM      9  C   UNL     1     -11.709  -8.837   1.791  0.00  0.00    +0.242 C 
ATOM     10  O   UNL     1     -11.643  -9.346   0.693  0.00  0.00    -0.273 OA
ENDROOT
BRANCH   9  11
ATOM     11  C   UNL     1     -13.040  -8.720   2.489  0.00  0.00    +0.190 C 
ATOM     12  C   UNL     1     -13.025  -9.516   3.775  0.00  0.00    +0.016 C 
ATOM     13  C   UNL     1     -13.993 -10.452   3.647  0.00  0.00    -0.001 A 
ATOM     14  C   UNL     1     -14.470 -11.516   4.539  0.00  0.00    +0.048 A 
ATOM     15  C   UNL     1     -15.480 -12.316   4.124  0.00  0.00    +0.124 A 
ATOM     16  C   UNL     1     -16.080 -12.154   2.865  0.00  0.00    +0.040 A 
ATOM     17  C   UNL     1     -15.695 -11.199   1.992  0.00  0.00    +0.029 A 
ATOM     18  C   UNL     1     -14.642 -10.302   2.325  0.00  0.00    +0.043 A 
ATOM     19  N   UNL     1     -14.098  -9.310   1.661  0.00  0.00    -0.370 N 
ATOM     20  F   UNL     1     -15.922 -13.297   4.942  0.00  0.00    -0.205 F 
ATOM     21  H   UNL     1     -14.352  -9.015   0.773  0.00  0.00    +0.161 HD
ENDBRANCH   9  11
BRANCH   1  23
ATOM     22  N   UNL     1      -7.263  -4.022   1.123  0.00  0.00    -0.312 N 
ATOM     23  C   UNL     1      -6.821  -4.862   2.081  0.00  0.00    +0.217 C 
ATOM     24  O   UNL     1      -5.691  -5.298   2.029  0.00  0.00    -0.275 OA
ATOM     25  H   UNL     1      -8.167  -3.673   1.165  0.00  0.00    +0.149 HD
BRANCH  22  31
ATOM     26  C   UNL     1      -5.229  -0.675  -2.583  0.00  0.00    +0.403 C 
ATOM     27  O   UNL     1      -4.447   0.173  -2.200  0.00  0.00    -0.226 OA
ATOM     28  N   UNL     1      -5.357  -1.831  -1.900  0.00  0.00    -0.267 N 
ATOM     29  C   UNL     1      -6.293  -2.868  -2.354  0.00  0.00    +0.113 C 
ATOM     30  C   UNL     1      -7.221  -3.237  -1.192  0.00  0.00    +0.041 C 
ATOM     31  C   UNL     1      -6.379  -3.637   0.021  0.00  0.00    +0.076 C 
ATOM     32  C   UNL     1      -5.510  -2.454   0.454  0.00  0.00    +0.041 C 
ATOM     33  C   UNL     1      -4.558  -2.079  -0.692  0.00  0.00    +0.113 C 
BRANCH  26  34
ATOM     34  O   UNL     1      -5.967  -0.461  -3.688  0.00  0.00    -0.451 OA
BRANCH  34  36
ATOM     35  C   UNL     1      -6.697   0.847  -5.585  0.00  0.00    +0.048 C 
ATOM     36  C   UNL     1      -5.780   0.785  -4.362  0.00  0.00    +0.230 C 
ENDBRANCH  34  36
ENDBRANCH  26  34
ENDBRANCH  22  31
ENDBRANCH   1  23
TORSDOF 5
