REMARK  Name = ZINC21218535
REMARK  12 active torsions:
REMARK  status: ('A' for Active; 'I' for Inactive)
REMARK    1  A    between atoms: C_1  and  C_2
REMARK    2  A    between atoms: C_2  and  O_3
REMARK    3  A    between atoms: O_3  and  C_4
REMARK    4  A    between atoms: C_6  and  C_14
REMARK    5  A    between atoms: C_9  and  O_10
REMARK    6  A    between atoms: O_10  and  C_11
REMARK    7  A    between atoms: C_11  and  C_13
REMARK    8  A    between atoms: C_19  and  C_24
REMARK    9  A    between atoms: C_27  and  O_30
REMARK   10  A    between atoms: O_30  and  C_31
REMARK   11  A    between atoms: C_31  and  C_32
REMARK   12  A    between atoms: C_31  and  C_33
REMARK                            x       y       z     vdW  Elec       q    Type
REMARK                         _______ _______ _______ _____ _____    ______ ____
ROOT
ATOM      1  C   UNL     1      -2.664   0.771   0.375  0.00  0.00    +0.136 C 
ATOM      2  C   UNL     1      -2.873   0.378  -1.067  0.00  0.00    +0.036 C 
ATOM      3  C   UNL     1      -2.811  -0.870  -1.562  0.00  0.00    +0.017 C 
ATOM      4  C   UNL     1      -3.057  -1.129  -3.038  0.00  0.00    +0.059 C 
ATOM      5  C   UNL     1      -2.584   0.066  -3.864  0.00  0.00    +0.032 C 
ATOM      6  C   UNL     1      -3.371   1.297  -3.397  0.00  0.00    +0.088 C 
ATOM      7  C   UNL     1      -3.154   1.470  -1.923  0.00  0.00    +0.163 C 
ATOM      8  O   UNL     1      -3.223   2.586  -1.447  0.00  0.00    -0.292 OA
ATOM      9  N   UNL     1      -2.552  -1.980  -0.824  0.00  0.00    -0.316 N 
ATOM     10  C   UNL     1      -1.533  -2.093   0.115  0.00  0.00    +0.052 A 
ATOM     11  C   UNL     1      -0.503  -3.008  -0.018  0.00  0.00    +0.025 A 
ATOM     12  C   UNL     1       0.414  -3.151   1.009  0.00  0.00    +0.002 A 
ATOM     13  C   UNL     1       0.302  -2.385   2.156  0.00  0.00    +0.002 A 
ATOM     14  C   UNL     1      -0.714  -1.454   2.280  0.00  0.00    +0.025 A 
ATOM     15  C   UNL     1      -1.623  -1.296   1.246  0.00  0.00    +0.049 A 
ATOM     16  N   UNL     1      -2.635  -0.339   1.304  0.00  0.00    -0.331 N 
ATOM     17  H   UNL     1      -3.172  -2.880  -0.948  0.00  0.00    +0.152 HD
ATOM     18  H   UNL     1      -3.418  -0.436   2.070  0.00  0.00    +0.147 HD
ENDROOT
BRANCH   1  21
ATOM     19  C   UNL     1      -0.147   3.513   1.026  0.00  0.00    +0.163 A 
ATOM     20  C   UNL     1      -1.346   2.823   0.933  0.00  0.00    +0.055 A 
ATOM     21  C   UNL     1      -1.359   1.517   0.482  0.00  0.00    -0.019 A 
ATOM     22  C   UNL     1      -0.176   0.891   0.133  0.00  0.00    +0.009 A 
ATOM     23  C   UNL     1       1.023   1.572   0.223  0.00  0.00    +0.050 A 
ATOM     24  C   UNL     1       1.043   2.884   0.670  0.00  0.00    +0.173 A 
BRANCH  19  25
ATOM     25  O   UNL     1      -0.133   4.800   1.464  0.00  0.00    -0.489 OA
BRANCH  25  27
ATOM     26  C   UNL     1      -1.177   6.821   2.278  0.00  0.00    +0.048 C 
ATOM     27  C   UNL     1      -1.392   5.380   1.812  0.00  0.00    +0.226 C 
ENDBRANCH  25  27
ENDBRANCH  19  25
BRANCH  24  28
ATOM     28  O   UNL     1       2.221   3.556   0.759  0.00  0.00    -0.422 OA
BRANCH  28  29
ATOM     29  C   UNL     1       2.784   3.642   1.974  0.00  0.00    +0.309 C 
ATOM     30  O   UNL     1       2.292   3.057   2.910  0.00  0.00    -0.251 OA
ATOM     31  C   UNL     1       4.029   4.467   2.172  0.00  0.00    +0.136 C 
ENDBRANCH  28  29
ENDBRANCH  24  28
ENDBRANCH   1  21
BRANCH   5  32
ATOM     32  C   UNL     1      -2.851  -0.185  -5.326  0.00  0.00    -0.043 A 
ATOM     33  C   UNL     1      -4.144  -0.404  -5.764  0.00  0.00    +0.007 A 
ATOM     34  C   UNL     1      -4.391  -0.629  -7.104  0.00  0.00    +0.046 A 
ATOM     35  C   UNL     1      -3.340  -0.647  -8.009  0.00  0.00    +0.121 A 
ATOM     36  C   UNL     1      -2.043  -0.433  -7.566  0.00  0.00    +0.046 A 
ATOM     37  C   UNL     1      -1.801  -0.203  -6.226  0.00  0.00    +0.007 A 
BRANCH  35  38
ATOM     38  O   UNL     1      -3.580  -0.874  -9.327  0.00  0.00    -0.489 OA
BRANCH  38  39
ATOM     39  C   UNL     1      -2.473  -0.743 -10.221  0.00  0.00    +0.167 C 
ATOM     40  C   UNL     1      -1.819  -2.110 -10.428  0.00  0.00    +0.051 C 
ATOM     41  C   UNL     1      -2.964  -0.203 -11.566  0.00  0.00    +0.051 C 
ENDBRANCH  38  39
ENDBRANCH  35  38
ENDBRANCH   5  32
TORSDOF 8
