REMARK  Name = ZINC63140650
REMARK  12 active torsions:
REMARK  status: ('A' for Active; 'I' for Inactive)
REMARK    1  A    between atoms: C_1  and  C_2
REMARK    2  A    between atoms: C_2  and  C_3
REMARK    3  A    between atoms: C_3  and  C_4
REMARK    4  A    between atoms: C_4  and  O_5
REMARK    5  A    between atoms: O_5  and  C_6
REMARK    6  A    between atoms: C_6  and  C_7
REMARK    7  A    between atoms: C_7  and  C_8
REMARK    8  A    between atoms: C_8  and  N_9
REMARK    9  A    between atoms: C_29  and  C_31
REMARK   10  A    between atoms: C_36  and  O_37
REMARK   11  A    between atoms: O_37  and  C_38
REMARK   12  A    between atoms: C_38  and  C_39
REMARK                            x       y       z     vdW  Elec       q    Type
REMARK                         _______ _______ _______ _____ _____    ______ ____
ROOT
ATOM      1  N   UNL     1       3.048  -5.837  -5.277  0.00  0.00    -0.291 N 
ATOM      2  C   UNL     1       2.260  -6.032  -6.482  0.00  0.00    +0.203 C 
ATOM      3  C   UNL     1       3.086  -6.531  -7.621  0.00  0.00    +0.234 C 
ATOM      4  O   UNL     1       2.526  -6.731  -8.678  0.00  0.00    -0.274 OA
ATOM      5  N   UNL     1       4.401  -6.774  -7.559  0.00  0.00    -0.279 N 
ATOM      6  C   UNL     1       5.186  -6.555  -6.348  0.00  0.00    +0.167 C 
ATOM      7  C   UNL     1       4.359  -6.062  -5.208  0.00  0.00    +0.237 C 
ATOM      8  O   UNL     1       4.915  -5.858  -4.149  0.00  0.00    -0.274 OA
ATOM      9  C   UNL     1       6.319  -5.553  -6.632  0.00  0.00    +0.065 C 
ATOM     10  C   UNL     1       6.959  -5.983  -7.929  0.00  0.00    -0.034 C 
ATOM     11  C   UNL     1       8.226  -6.208  -8.253  0.00  0.00    -0.001 A 
ATOM     12  C   UNL     1       9.479  -6.014  -7.505  0.00  0.00    +0.010 A 
ATOM     13  C   UNL     1      10.622  -6.377  -8.145  0.00  0.00    +0.001 A 
ATOM     14  C   UNL     1      10.644  -6.906  -9.439  0.00  0.00    +0.002 A 
ATOM     15  C   UNL     1       9.542  -7.108 -10.204  0.00  0.00    +0.026 A 
ATOM     16  C   UNL     1       8.280  -6.758  -9.642  0.00  0.00    +0.043 A 
ATOM     17  N   UNL     1       7.085  -6.823 -10.152  0.00  0.00    -0.375 N 
ATOM     18  C   UNL     1       6.139  -6.271  -9.181  0.00  0.00    +0.131 C 
ATOM     19  C   UNL     1       5.067  -7.287  -8.777  0.00  0.00    +0.137 C 
ATOM     20  H   UNL     1       6.859  -7.177 -11.026  0.00  0.00    +0.160 HD
ENDROOT
BRANCH  19  21
ATOM     21  C   UNL     1       4.059  -7.435  -9.887  0.00  0.00    +0.017 A 
ATOM     22  C   UNL     1       3.892  -6.420 -10.810  0.00  0.00    +0.009 A 
ATOM     23  C   UNL     1       2.967  -6.556 -11.828  0.00  0.00    +0.001 A 
ATOM     24  C   UNL     1       2.207  -7.707 -11.926  0.00  0.00    +0.004 A 
ATOM     25  C   UNL     1       2.370  -8.724 -11.007  0.00  0.00    +0.046 A 
ATOM     26  C   UNL     1       3.302  -8.593  -9.987  0.00  0.00    +0.125 A 
BRANCH  26  27
ATOM     27  O   UNL     1       3.469  -9.595  -9.084  0.00  0.00    -0.492 OA
BRANCH  27  28
ATOM     28  C   UNL     1       2.655 -10.758  -9.249  0.00  0.00    +0.225 C 
ATOM     29  C   UNL     1       2.982 -11.769  -8.148  0.00  0.00    +0.048 C 
ENDBRANCH  27  28
ENDBRANCH  26  27
ENDBRANCH  19  21
BRANCH   1  30
ATOM     30  C   UNL     1       2.363  -5.360  -4.072  0.00  0.00    +0.110 C 
BRANCH  30  31
ATOM     31  C   UNL     1       2.380  -3.830  -4.048  0.00  0.00    +0.047 C 
BRANCH  31  32
ATOM     32  C   UNL     1       1.665  -3.332  -2.790  0.00  0.00    +0.161 C 
BRANCH  32  33
ATOM     33  O   UNL     1       1.681  -1.903  -2.767  0.00  0.00    -0.380 OA
BRANCH  33  34
ATOM     34  C   UNL     1       1.035  -1.333  -1.627  0.00  0.00    +0.160 C 
BRANCH  34  35
ATOM     35  C   UNL     1       1.113   0.193  -1.708  0.00  0.00    +0.028 C 
BRANCH  35  37
ATOM     36  C   UNL     1       0.499   2.330  -0.567  0.00  0.00    +0.004 C 
ATOM     37  C   UNL     1       0.421   0.804  -0.487  0.00  0.00    -0.001 C 
ENDBRANCH  35  37
ENDBRANCH  34  35
ENDBRANCH  33  34
ENDBRANCH  32  33
ENDBRANCH  31  32
ENDBRANCH  30  31
ENDBRANCH   1  30
TORSDOF 10
