REMARK  Name = ZINC33174306
REMARK  8 active torsions:
REMARK  status: ('A' for Active; 'I' for Inactive)
REMARK    1  A    between atoms: C_1  and  C_2
REMARK    2  A    between atoms: C_2  and  O_3
REMARK    3  A    between atoms: O_3  and  C_4
REMARK    4  A    between atoms: C_7  and  O_29
REMARK    5  A    between atoms: C_8  and  N_10
REMARK    6  A    between atoms: C_11  and  C_13
REMARK    7  A    between atoms: O_29  and  C_30
REMARK    8  A    between atoms: C_30  and  C_31
REMARK                            x       y       z     vdW  Elec       q    Type
REMARK                         _______ _______ _______ _____ _____    ______ ____
ROOT
ATOM      1  N   UNL     1      -0.013   0.969   0.006  0.00  0.00    -0.282 N 
ATOM      2  C   UNL     1      -1.155   1.685   0.017  0.00  0.00    +0.222 C 
ATOM      3  O   UNL     1      -1.113   2.894  -0.065  0.00  0.00    -0.275 OA
ATOM      4  H   UNL     1      -0.053  -0.131  -0.010  0.00  0.00    +0.155 HD
ENDROOT
BRANCH   2   5
ATOM      5  C   UNL     1      -2.483   0.983   0.130  0.00  0.00    +0.093 C 
ATOM      6  C   UNL     1      -2.532   0.189   1.439  0.00  0.00    +0.016 C 
ATOM      7  C   UNL     1      -3.906  -0.472   1.575  0.00  0.00    +0.020 C 
ATOM      8  C   UNL     1      -4.992   0.606   1.528  0.00  0.00    +0.106 C 
ATOM      9  N   UNL     1      -4.904   1.336   0.256  0.00  0.00    -0.315 N 
ATOM     10  C   UNL     1      -3.610   2.018   0.125  0.00  0.00    +0.119 C 
ATOM     11  C   UNL     1      -5.955   2.232   0.124  0.00  0.00    +0.107 A 
ATOM     12  C   UNL     1      -6.912   2.046  -0.910  0.00  0.00    +0.027 A 
ATOM     13  C   UNL     1      -6.989   1.008  -1.925  0.00  0.00    +0.019 A 
ATOM     14  C   UNL     1      -7.995   1.032  -2.812  0.00  0.00    +0.046 A 
ATOM     15  S   UNL     1      -8.939   2.468  -2.333  0.00  0.00    -0.096 S 
ATOM     16  C   UNL     1      -7.948   3.003  -0.965  0.00  0.00    +0.024 A 
ATOM     17  C   UNL     1      -7.998   4.052  -0.065  0.00  0.00    +0.033 A 
ATOM     18  C   UNL     1      -7.024   4.147   0.892  0.00  0.00    +0.085 A 
ATOM     19  N   UNL     1      -6.051   3.250   0.953  0.00  0.00    -0.349 N 
ATOM     20  H   UNL     1      -5.301   3.386   1.746  0.00  0.00    +0.167 HD
ENDBRANCH   2   5
BRANCH   1  25
ATOM     21  C   UNL     1       2.557   3.549   0.550  0.00  0.00    +0.122 A 
ATOM     22  C   UNL     1       3.678   2.918   0.031  0.00  0.00    +0.049 A 
ATOM     23  C   UNL     1       3.576   1.644  -0.495  0.00  0.00    +0.051 A 
ATOM     24  C   UNL     1       2.353   0.993  -0.505  0.00  0.00    +0.142 A 
ATOM     25  C   UNL     1       1.226   1.624   0.015  0.00  0.00    +0.079 A 
ATOM     26  C   UNL     1       1.330   2.905   0.537  0.00  0.00    +0.072 A 
BRANCH  21  27
ATOM     27  O   UNL     1       2.661   4.803   1.066  0.00  0.00    -0.492 OA
BRANCH  27  29
ATOM     28  C   UNL     1       3.875   6.806   1.661  0.00  0.00    +0.048 C 
ATOM     29  C   UNL     1       3.955   5.409   1.042  0.00  0.00    +0.225 C 
ENDBRANCH  27  29
ENDBRANCH  21  27
BRANCH  24  30
ATOM     30  O   UNL     1       2.253  -0.261  -1.022  0.00  0.00    -0.490 OA
BRANCH  30  31
ATOM     31  C   UNL     1       3.450  -0.847  -1.538  0.00  0.00    +0.226 C 
ATOM     32  C   UNL     1       3.143  -2.248  -2.073  0.00  0.00    +0.048 C 
ENDBRANCH  30  31
ENDBRANCH  24  30
ENDBRANCH   1  25
TORSDOF 6
