REMARK  Name = ZINC16758034
REMARK  11 active torsions:
REMARK  status: ('A' for Active; 'I' for Inactive)
REMARK    1  A    between atoms: C_1  and  C_2
REMARK    2  A    between atoms: C_6  and  C_8
REMARK    3  A    between atoms: N_10  and  C_11
REMARK    4  A    between atoms: C_11  and  C_13
REMARK    5  A    between atoms: C_11  and  C_16
REMARK    6  A    between atoms: C_13  and  C_14
REMARK    7  A    between atoms: C_13  and  C_15
REMARK    8  A    between atoms: C_16  and  O_18
REMARK    9  A    between atoms: O_18  and  C_19
REMARK   10  A    between atoms: C_19  and  C_20
REMARK   11  A    between atoms: C_30  and  N_32
REMARK                            x       y       z     vdW  Elec       q    Type
REMARK                         _______ _______ _______ _____ _____    ______ ____
ROOT
ATOM      1  C   UNL     1      -0.460   8.002   1.490  0.00  0.00    +0.328 C 
ATOM      2  O   UNL     1       0.656   7.541   1.525  0.00  0.00    -0.249 OA
ENDROOT
BRANCH   1   3
ATOM      3  C   UNL     1      -0.695   9.439   1.880  0.00  0.00    +0.185 C 
BRANCH   3   6
ATOM      4  C   UNL     1       0.593  11.113   3.096  0.00  0.00    +0.245 C 
ATOM      5  O   UNL     1      -0.451  11.554   3.535  0.00  0.00    -0.270 OA
ATOM      6  N   UNL     1       0.579  10.056   2.260  0.00  0.00    -0.298 N 
ATOM      7  H   UNL     1       1.412   9.703   1.910  0.00  0.00    +0.150 HD
BRANCH   4  13
ATOM      8  C   UNL     1       3.119  14.589   5.632  0.00  0.00    +0.044 C 
ATOM      9  C   UNL     1       3.098  13.406   4.699  0.00  0.00    -0.050 A 
ATOM     10  C   UNL     1       4.285  12.901   4.197  0.00  0.00    +0.003 A 
ATOM     11  C   UNL     1       4.274  11.816   3.339  0.00  0.00    +0.001 A 
ATOM     12  C   UNL     1       3.078  11.230   2.978  0.00  0.00    +0.013 A 
ATOM     13  C   UNL     1       1.878  11.735   3.480  0.00  0.00    +0.037 A 
ATOM     14  C   UNL     1       1.895  12.833   4.341  0.00  0.00    +0.016 A 
ENDBRANCH   4  13
ENDBRANCH   3   6
BRANCH   3  15
ATOM     15  C   UNL     1      -1.295  10.198   0.695  0.00  0.00    +0.014 C 
ATOM     16  C   UNL     1      -2.625   9.554   0.298  0.00  0.00    +0.009 C 
ATOM     17  C   UNL     1      -1.533  11.657   1.092  0.00  0.00    +0.009 C 
ENDBRANCH   3  15
ENDBRANCH   1   3
BRANCH   1  18
ATOM     18  O   UNL     1      -1.492   7.236   1.102  0.00  0.00    -0.454 OA
BRANCH  18  19
ATOM     19  C   UNL     1      -1.192   5.862   0.741  0.00  0.00    +0.328 C 
BRANCH  19  20
ATOM     20  C   UNL     1      -2.463   5.160   0.336  0.00  0.00    +0.258 C 
ATOM     21  O   UNL     1      -3.501   5.782   0.259  0.00  0.00    -0.272 OA
ATOM     22  N   UNL     1      -2.445   3.841   0.059  0.00  0.00    -0.268 N 
ATOM     23  C   UNL     1      -1.176   3.103   0.017  0.00  0.00    +0.114 C 
ATOM     24  C   UNL     1      -1.196   2.206  -1.228  0.00  0.00    +0.024 C 
ATOM     25  C   UNL     1      -2.326   1.188  -1.085  0.00  0.00    +0.038 C 
ATOM     26  C   UNL     1      -3.620   1.878  -0.742  0.00  0.00    -0.024 A 
ATOM     27  C   UNL     1      -3.639   3.151  -0.195  0.00  0.00    +0.040 A 
ATOM     28  C   UNL     1      -4.851   3.758   0.113  0.00  0.00    +0.026 A 
ATOM     29  C   UNL     1      -6.037   3.096  -0.133  0.00  0.00    +0.034 A 
ATOM     30  C   UNL     1      -6.018   1.829  -0.687  0.00  0.00    +0.127 A 
ATOM     31  C   UNL     1      -4.814   1.224  -0.993  0.00  0.00    +0.038 A 
BRANCH  30  32
ATOM     32  N   UNL     1      -7.290   1.120  -0.952  0.00  0.00    +0.056 N 
ATOM     33  O   UNL     1      -7.275   0.004  -1.440  0.00  0.00    -0.126 OA
ATOM     34  O   UNL     1      -8.352   1.653  -0.683  0.00  0.00    -0.126 OA
ENDBRANCH  30  32
ENDBRANCH  19  20
ENDBRANCH  18  19
ENDBRANCH   1  18
TORSDOF 8
