REMARK  Name = ZINC11786377
REMARK  8 active torsions:
REMARK  status: ('A' for Active; 'I' for Inactive)
REMARK    1  A    between atoms: C_1  and  C_2
REMARK    2  A    between atoms: C_3  and  C_4
REMARK    3  A    between atoms: C_4  and  N_5
REMARK    4  A    between atoms: C_8  and  C_12
REMARK    5  A    between atoms: C_8  and  C_20
REMARK    6  A    between atoms: C_12  and  C_13
REMARK    7  A    between atoms: C_25  and  C_26
REMARK    8  A    between atoms: C_25  and  N_66
REMARK                            x       y       z     vdW  Elec       q    Type
REMARK                         _______ _______ _______ _____ _____    ______ ____
ROOT
ATOM      1  N   UNL     1      -7.125  -3.055   5.809  0.00  0.00    -0.212 N 
ATOM      2  C   UNL     1      -7.347  -1.798   5.365  0.00  0.00    +0.248 C 
ATOM      3  O   UNL     1      -8.417  -1.286   5.115  0.00  0.00    -0.273 OA
ATOM      4  C   UNL     1      -5.977  -1.162   5.245  0.00  0.00    +0.119 C 
ATOM      5  N   UNL     1      -5.057  -2.229   5.676  0.00  0.00    -0.284 N 
ATOM      6  C   UNL     1      -5.820  -3.293   5.985  0.00  0.00    +0.310 C 
ATOM      7  O   UNL     1      -5.374  -4.353   6.379  0.00  0.00    -0.252 OA
ATOM      8  H   UNL     1      -4.090  -2.175   5.727  0.00  0.00    +0.151 HD
ENDROOT
BRANCH   4   9
ATOM      9  C   UNL     1      -5.695  -0.762   3.795  0.00  0.00    +0.018 C 
ATOM     10  C   UNL     1      -5.814  -1.992   2.892  0.00  0.00    -0.013 C 
ATOM     11  C   UNL     1      -5.471  -1.599   1.453  0.00  0.00    -0.078 C 
ATOM     12  C   UNL     1      -3.978   0.147   2.226  0.00  0.00    -0.078 C 
ATOM     13  C   UNL     1      -4.276  -0.195   3.687  0.00  0.00    -0.013 C 
ATOM     14  N   UNL     1      -4.086  -1.084   1.414  0.00  0.00    +0.382 N 
ATOM     15  H   UNL     1      -3.455  -1.795   1.802  0.00  0.00    -0.081 HD
BRANCH  14  16
ATOM     16  C   UNL     1      -3.692  -0.803   0.018  0.00  0.00    -0.043 C 
BRANCH  16  17
ATOM     17  C   UNL     1      -2.397  -0.033   0.016  0.00  0.00    -0.060 A 
ATOM     18  C   UNL     1      -2.415   1.349   0.026  0.00  0.00    +0.005 A 
ATOM     19  C   UNL     1      -1.229   2.059   0.019  0.00  0.00    +0.049 A 
ATOM     20  C   UNL     1      -0.017   1.385   0.010  0.00  0.00    +0.162 A 
ATOM     21  C   UNL     1       0.002  -0.004   0.002  0.00  0.00    +0.162 A 
ATOM     22  C   UNL     1      -1.192  -0.710   0.004  0.00  0.00    +0.051 A 
ATOM     23  O   UNL     1       1.181  -0.685  -0.007  0.00  0.00    -0.485 OA
ATOM     24  C   UNL     1       2.347   0.053  -0.387  0.00  0.00    +0.270 C 
ATOM     25  C   UNL     1       2.334   1.392   0.364  0.00  0.00    +0.270 C 
ATOM     26  O   UNL     1       1.143   2.098   0.002  0.00  0.00    -0.485 OA
ENDBRANCH  16  17
ENDBRANCH  14  16
ENDBRANCH   4   9
BRANCH   1  27
ATOM     27  C   UNL     1      -8.182  -4.035   6.069  0.00  0.00    +0.206 C 
BRANCH  27  30
ATOM     28  C   UNL     1      -9.437  -3.698   9.976  0.00  0.00    +0.106 C 
ATOM     29  C   UNL     1      -8.988  -3.818   8.580  0.00  0.00    -0.104 C 
ATOM     30  C   UNL     1      -8.631  -3.914   7.465  0.00  0.00    -0.083 C 
ENDBRANCH  27  30
ENDBRANCH   1  27
BRANCH   4  31
ATOM     31  C   UNL     1      -5.864   0.052   6.168  0.00  0.00    +0.070 C 
BRANCH  31  32
ATOM     32  C   UNL     1      -6.024  -0.389   7.600  0.00  0.00    -0.042 A 
ATOM     33  C   UNL     1      -4.915  -0.763   8.337  0.00  0.00    +0.004 A 
ATOM     34  C   UNL     1      -5.060  -1.168   9.650  0.00  0.00    +0.003 A 
ATOM     35  C   UNL     1      -6.315  -1.200  10.229  0.00  0.00    +0.038 A 
ATOM     36  C   UNL     1      -7.426  -0.827   9.493  0.00  0.00    +0.124 A 
ATOM     37  C   UNL     1      -7.279  -0.416   8.179  0.00  0.00    +0.042 A 
ATOM     38  F   UNL     1      -8.653  -0.858  10.058  0.00  0.00    -0.205 F 
ENDBRANCH  31  32
ENDBRANCH   4  31
TORSDOF 7
