REMARK  Name = ZINC39710324
REMARK  10 active torsions:
REMARK  status: ('A' for Active; 'I' for Inactive)
REMARK    1  A    between atoms: C_1  and  C_2
REMARK    2  A    between atoms: C_9  and  C_14
REMARK    3  A    between atoms: C_14  and  C_16
REMARK    4  A    between atoms: C_14  and  N_27
REMARK    5  A    between atoms: N_21  and  C_22
REMARK    6  A    between atoms: N_27  and  C_28
REMARK    7  A    between atoms: N_27  and  C_36
REMARK    8  A    between atoms: C_28  and  C_29
REMARK    9  A    between atoms: C_29  and  C_30
REMARK   10  A    between atoms: C_36  and  C_37
REMARK                            x       y       z     vdW  Elec       q    Type
REMARK                         _______ _______ _______ _____ _____    ______ ____
ROOT
ATOM      1  C   UNL     1       0.012  -4.618   4.261  0.00  0.00    +0.115 C 
ENDROOT
BRANCH   1  10
ATOM      2  C   UNL     1       1.909   0.850   8.445  0.00  0.00    +0.044 C 
ATOM      3  C   UNL     1       1.449   0.248   7.143  0.00  0.00    -0.050 A 
ATOM      4  C   UNL     1       0.778   1.050   6.220  0.00  0.00    +0.005 A 
ATOM      5  C   UNL     1       0.334   0.579   5.025  0.00  0.00    +0.024 A 
ATOM      6  C   UNL     1       0.540  -0.766   4.667  0.00  0.00    +0.040 A 
ATOM      7  N   UNL     1       0.100  -1.217   3.492  0.00  0.00    -0.284 N 
ATOM      8  C   UNL     1       0.260  -2.468   3.094  0.00  0.00    +0.226 C 
ATOM      9  O   UNL     1      -0.163  -2.822   2.010  0.00  0.00    -0.275 OA
ATOM     10  C   UNL     1       0.970  -3.457   3.991  0.00  0.00    +0.119 C 
ATOM     11  C   UNL     1       1.473  -2.948   5.328  0.00  0.00    -0.003 C 
ATOM     12  C   UNL     1       1.246  -1.636   5.623  0.00  0.00    -0.007 A 
ATOM     13  C   UNL     1       1.702  -1.062   6.889  0.00  0.00    +0.012 A 
ATOM     14  H   UNL     1      -0.358  -0.599   2.902  0.00  0.00    +0.155 HD
ENDBRANCH   1  10
BRANCH   1  15
ATOM     15  C   UNL     1       0.213  -5.702   3.200  0.00  0.00    +0.235 C 
ATOM     16  N   UNL     1       0.566  -5.097   1.909  0.00  0.00    -0.148 NA
ATOM     17  N   UNL     1      -0.301  -5.386   1.082  0.00  0.00    -0.069 NA
ATOM     18  N   UNL     1      -1.318  -6.177   1.617  0.00  0.00    -0.179 N 
ATOM     19  N   UNL     1      -1.057  -6.414   2.944  0.00  0.00    -0.182 NA
ATOM     20  H   UNL     1      -2.089  -6.507   1.128  0.00  0.00    +0.191 HD
BRANCH  19  21
ATOM     21  C   UNL     1      -2.135  -5.892   3.795  0.00  0.00    +0.080 C 
ATOM     22  C   UNL     1      -3.107  -7.028   4.173  0.00  0.00    +0.021 C 
ATOM     23  C   UNL     1      -4.502  -6.354   4.160  0.00  0.00    +0.002 C 
ATOM     24  C   UNL     1      -4.402  -5.386   2.956  0.00  0.00    +0.002 C 
ATOM     25  C   UNL     1      -2.958  -4.847   3.021  0.00  0.00    +0.021 C 
ENDBRANCH  19  21
ENDBRANCH   1  15
BRANCH   1  26
ATOM     26  N   UNL     1       0.285  -5.179   5.591  0.00  0.00    -0.290 NA
BRANCH  26  27
ATOM     27  C   UNL     1      -0.960  -5.374   6.346  0.00  0.00    +0.090 C 
BRANCH  27  28
ATOM     28  C   UNL     1      -0.679  -5.217   7.842  0.00  0.00    +0.050 C 
BRANCH  28  29
ATOM     29  C   UNL     1      -1.936  -5.505   8.622  0.00  0.00    -0.046 A 
ATOM     30  C   UNL     1      -2.820  -4.483   8.911  0.00  0.00    +0.003 A 
ATOM     31  C   UNL     1      -3.973  -4.747   9.626  0.00  0.00    +0.000 A 
ATOM     32  C   UNL     1      -4.242  -6.034  10.052  0.00  0.00    +0.000 A 
ATOM     33  C   UNL     1      -3.358  -7.057   9.763  0.00  0.00    +0.000 A 
ATOM     34  C   UNL     1      -2.208  -6.793   9.044  0.00  0.00    +0.003 A 
ENDBRANCH  28  29
ENDBRANCH  27  28
ENDBRANCH  26  27
BRANCH  26  35
ATOM     35  C   UNL     1       1.041  -6.435   5.489  0.00  0.00    +0.127 C 
BRANCH  35  36
ATOM     36  C   UNL     1       1.541  -6.833   6.853  0.00  0.00    +0.004 A 
ATOM     37  C   UNL     1       1.141  -7.859   7.643  0.00  0.00    +0.012 A 
ATOM     38  C   UNL     1       1.750  -8.036   8.871  0.00  0.00    +0.008 A 
ATOM     39  C   UNL     1       2.729  -7.179   9.249  0.00  0.00    +0.045 A 
ATOM     40  S   UNL     1       2.821  -6.080   7.845  0.00  0.00    -0.100 S 
ENDBRANCH  35  36
ENDBRANCH  26  35
ENDBRANCH   1  26
TORSDOF 9
