REMARK  Name = ZINC35840841
REMARK  13 active torsions:
REMARK  status: ('A' for Active; 'I' for Inactive)
REMARK    1  A    between atoms: C_1  and  C_2
REMARK    2  A    between atoms: C_7  and  O_8
REMARK    3  A    between atoms: O_8  and  C_9
REMARK    4  A    between atoms: C_9  and  C_10
REMARK    5  A    between atoms: C_10  and  C_12
REMARK    6  A    between atoms: C_10  and  O_35
REMARK    7  A    between atoms: C_12  and  N_13
REMARK    8  A    between atoms: N_13  and  C_14
REMARK    9  A    between atoms: N_13  and  C_28
REMARK   10  A    between atoms: C_14  and  C_15
REMARK   11  A    between atoms: N_19  and  C_20
REMARK   12  A    between atoms: C_20  and  C_21
REMARK   13  A    between atoms: C_28  and  C_29
REMARK                            x       y       z     vdW  Elec       q    Type
REMARK                         _______ _______ _______ _____ _____    ______ ____
ROOT
ATOM      1  N   UNL     1       0.567   0.471   7.888  0.00  0.00    +0.385 N 
ATOM      2  H   UNL     1       1.169   1.260   7.702  0.00  0.00    -0.081 HD
ENDROOT
BRANCH   1   3
ATOM      3  C   UNL     1       0.292  -0.241   6.634  0.00  0.00    -0.043 C 
BRANCH   3   4
ATOM      4  C   UNL     1       0.003   0.772   5.524  0.00  0.00    +0.135 C 
BRANCH   4   5
ATOM      5  O   UNL     1      -1.233   1.436   5.797  0.00  0.00    -0.390 OA
ATOM      6  H   UNL     1      -1.983   0.838   5.917  0.00  0.00    +0.210 HD
ENDBRANCH   4   5
BRANCH   4   7
ATOM      7  C   UNL     1      -0.095   0.044   4.182  0.00  0.00    +0.258 C 
BRANCH   7   8
ATOM      8  O   UNL     1      -0.249   1.001   3.132  0.00  0.00    -0.489 OA
BRANCH   8  15
ATOM      9  C   UNL     1      -0.556   2.876   1.041  0.00  0.00    +0.047 C 
ATOM     10  C   UNL     1      -0.504   1.390   0.799  0.00  0.00    -0.009 A 
ATOM     11  C   UNL     1      -0.601   0.895  -0.488  0.00  0.00    +0.007 A 
ATOM     12  C   UNL     1      -0.554  -0.468  -0.711  0.00  0.00    +0.000 A 
ATOM     13  C   UNL     1      -0.408  -1.341   0.352  0.00  0.00    +0.004 A 
ATOM     14  C   UNL     1      -0.310  -0.851   1.640  0.00  0.00    +0.046 A 
ATOM     15  C   UNL     1      -0.352   0.517   1.866  0.00  0.00    +0.124 A 
ENDBRANCH   8  15
ENDBRANCH   7   8
ENDBRANCH   4   7
ENDBRANCH   3   4
ENDBRANCH   1   3
BRANCH   1  16
ATOM     16  C   UNL     1       1.230  -0.438   8.833  0.00  0.00    -0.024 C 
BRANCH  16  17
ATOM     17  C   UNL     1       1.690   0.339  10.039  0.00  0.00    +0.003 A 
ATOM     18  C   UNL     1       1.006   0.487  11.192  0.00  0.00    +0.021 A 
ATOM     19  C   UNL     1       1.792   1.282  12.050  0.00  0.00    +0.019 A 
ATOM     20  C   UNL     1       2.926   1.590  11.388  0.00  0.00    +0.086 A 
ATOM     21  N   UNL     1       2.872   1.009  10.156  0.00  0.00    -0.348 N 
BRANCH  21  22
ATOM     22  C   UNL     1       3.910   1.094   9.126  0.00  0.00    +0.156 C 
BRANCH  22  23
ATOM     23  C   UNL     1       3.664   2.305   8.264  0.00  0.00    -0.025 A 
ATOM     24  C   UNL     1       2.982   2.177   7.068  0.00  0.00    +0.005 A 
ATOM     25  C   UNL     1       2.756   3.288   6.277  0.00  0.00    +0.003 A 
ATOM     26  C   UNL     1       3.213   4.528   6.680  0.00  0.00    +0.038 A 
ATOM     27  C   UNL     1       3.897   4.658   7.877  0.00  0.00    +0.124 A 
ATOM     28  C   UNL     1       4.117   3.546   8.672  0.00  0.00    +0.043 A 
ATOM     29  F   UNL     1       4.344   5.870   8.272  0.00  0.00    -0.205 F 
ENDBRANCH  22  23
ENDBRANCH  21  22
ENDBRANCH  16  17
ENDBRANCH   1  16
BRANCH   1  30
ATOM     30  C   UNL     1      -0.696   0.946   8.469  0.00  0.00    -0.075 C 
BRANCH  30  31
ATOM     31  C   UNL     1      -1.320  -0.168   9.312  0.00  0.00    -0.028 C 
ATOM     32  C   UNL     1      -1.613  -1.378   8.422  0.00  0.00    +0.002 C 
ATOM     33  C   UNL     1      -2.237  -2.492   9.265  0.00  0.00    +0.000 C 
ATOM     34  C   UNL     1      -3.541  -1.990   9.888  0.00  0.00    +0.000 C 
ATOM     35  C   UNL     1      -3.248  -0.781  10.778  0.00  0.00    +0.000 C 
ATOM     36  C   UNL     1      -2.624   0.334   9.935  0.00  0.00    +0.002 C 
ENDBRANCH  30  31
ENDBRANCH   1  30
TORSDOF 12
