REMARK  Name = ZINC58436232
REMARK  6 active torsions:
REMARK  status: ('A' for Active; 'I' for Inactive)
REMARK    1  A    between atoms: C_1  and  N_2
REMARK    2  A    between atoms: C_8  and  C_14
REMARK    3  A    between atoms: N_16  and  C_17
REMARK    4  A    between atoms: C_22  and  N_23
REMARK    5  A    between atoms: N_26  and  C_27
REMARK    6  A    between atoms: N_26  and  C_28
REMARK                            x       y       z     vdW  Elec       q    Type
REMARK                         _______ _______ _______ _____ _____    ______ ____
ROOT
ATOM      1  C   UNL     1      -1.288  -6.972   2.046  0.00  0.00    +0.248 C 
ATOM      2  O   UNL     1      -0.387  -7.703   2.409  0.00  0.00    -0.270 OA
ATOM      3  N   UNL     1      -2.163  -7.393   1.112  0.00  0.00    -0.280 N 
ATOM      4  H   UNL     1      -2.926  -6.841   0.878  0.00  0.00    +0.155 HD
ENDROOT
BRANCH   1  12
ATOM      5  C   UNL     1      -1.024  -0.080   5.810  0.00  0.00    +0.154 C 
ATOM      6  N   UNL     1      -0.928  -1.411   5.205  0.00  0.00    -0.290 N 
ATOM      7  C   UNL     1      -1.831  -1.785   4.272  0.00  0.00    +0.262 A 
ATOM      8  O   UNL     1      -2.816  -0.952   3.893  0.00  0.00    -0.267 OA
ATOM      9  C   UNL     1      -1.714  -3.072   3.706  0.00  0.00    +0.065 A 
ATOM     10  C   UNL     1      -2.613  -3.531   2.733  0.00  0.00    +0.016 A 
ATOM     11  C   UNL     1      -2.467  -4.779   2.209  0.00  0.00    +0.014 A 
ATOM     12  C   UNL     1      -1.424  -5.619   2.632  0.00  0.00    +0.039 A 
ATOM     13  C   UNL     1      -0.521  -5.193   3.593  0.00  0.00    +0.041 A 
ATOM     14  C   UNL     1      -0.654  -3.910   4.143  0.00  0.00    +0.080 A 
ATOM     15  N   UNL     1       0.197  -3.456   5.074  0.00  0.00    -0.222 NA
ATOM     16  C   UNL     1       0.060  -2.240   5.581  0.00  0.00    +0.183 A 
ATOM     17  S   UNL     1       1.179  -1.707   6.762  0.00  0.00    -0.011 S 
ENDBRANCH   1  12
BRANCH   3  18
ATOM     18  C   UNL     1      -1.972  -8.627   0.479  0.00  0.00    +0.055 A 
ATOM     19  C   UNL     1      -0.721  -9.227   0.488  0.00  0.00    +0.025 A 
ATOM     20  C   UNL     1      -0.535 -10.445  -0.138  0.00  0.00    +0.002 A 
ATOM     21  C   UNL     1      -1.593 -11.070  -0.773  0.00  0.00    +0.002 A 
ATOM     22  C   UNL     1      -2.842 -10.479  -0.786  0.00  0.00    +0.025 A 
ATOM     23  C   UNL     1      -3.040  -9.260  -0.156  0.00  0.00    +0.056 A 
BRANCH  23  24
ATOM     24  N   UNL     1      -4.307  -8.662  -0.163  0.00  0.00    -0.268 N 
ATOM     25  C   UNL     1      -5.414  -9.431  -0.200  0.00  0.00    +0.306 C 
ATOM     26  O   UNL     1      -5.313 -10.638  -0.305  0.00  0.00    -0.252 OA
ATOM     27  N   UNL     1      -6.633  -8.861  -0.121  0.00  0.00    -0.291 N 
ATOM     28  C   UNL     1      -7.830  -9.701  -0.030  0.00  0.00    +0.133 C 
ATOM     29  C   UNL     1      -6.761  -7.402  -0.125  0.00  0.00    +0.133 C 
ATOM     30  H   UNL     1      -4.388  -7.696  -0.141  0.00  0.00    +0.156 HD
ENDBRANCH  23  24
ENDBRANCH   3  18
TORSDOF 3
