REMARK  Name = ZINC41004471
REMARK  12 active torsions:
REMARK  status: ('A' for Active; 'I' for Inactive)
REMARK    1  A    between atoms: C_1  and  C_2
REMARK    2  A    between atoms: C_2  and  S_3
REMARK    3  A    between atoms: S_3  and  C_4
REMARK    4  A    between atoms: C_9  and  C_21
REMARK    5  A    between atoms: C_15  and  C_19
REMARK    6  A    between atoms: C_15  and  C_20
REMARK    7  A    between atoms: C_24  and  O_27
REMARK    8  A    between atoms: O_27  and  C_28
REMARK    9  A    between atoms: C_28  and  C_29
REMARK   10  A    between atoms: C_31  and  C_37
REMARK   11  A    between atoms: C_32  and  C_36
REMARK   12  A    between atoms: C_34  and  C_35
REMARK                            x       y       z     vdW  Elec       q    Type
REMARK                         _______ _______ _______ _____ _____    ______ ____
ROOT
ATOM      1  C   UNL     1       0.818  -2.359   1.317  0.00  0.00    +0.210 A 
ATOM      2  N   UNL     1       0.242  -3.033   0.311  0.00  0.00    -0.187 NA
ATOM      3  C   UNL     1       0.381  -4.315   0.508  0.00  0.00    +0.219 A 
ATOM      4  N   UNL     1       1.057  -4.492   1.670  0.00  0.00    -0.220 N 
ATOM      5  N   UNL     1       1.334  -3.220   2.168  0.00  0.00    -0.141 NA
ATOM      6  C   UNL     1       1.387  -5.803   2.215  0.00  0.00    +0.175 C 
ATOM      7  C   UNL     1       1.182  -6.868   1.160  0.00  0.00    +0.041 C 
ATOM      8  C   UNL     1       0.498  -6.627   0.021  0.00  0.00    +0.020 C 
ATOM      9  N   UNL     1      -0.038  -5.392  -0.255  0.00  0.00    -0.287 N 
ATOM     10  C   UNL     1       0.288  -7.718  -1.003  0.00  0.00    +0.058 C 
ATOM     11  C   UNL     1       1.481  -8.675  -0.986  0.00  0.00    -0.023 C 
ATOM     12  C   UNL     1       1.609  -9.261   0.425  0.00  0.00    +0.086 C 
ATOM     13  C   UNL     1       1.740  -8.134   1.412  0.00  0.00    +0.164 C 
ATOM     14  O   UNL     1       2.342  -8.322   2.451  0.00  0.00    -0.292 OA
ATOM     15  C   UNL     1       1.252  -9.804  -1.993  0.00  0.00    +0.011 C 
ATOM     16  C   UNL     1       2.759  -7.914  -1.345  0.00  0.00    +0.011 C 
ATOM     17  H   UNL     1      -0.690  -5.278  -0.964  0.00  0.00    +0.155 HD
ENDROOT
BRANCH   6  18
ATOM     18  C   UNL     1       0.495  -6.093   3.395  0.00  0.00    -0.018 A 
ATOM     19  C   UNL     1      -0.876  -6.139   3.228  0.00  0.00    +0.009 A 
ATOM     20  C   UNL     1      -1.696  -6.404   4.309  0.00  0.00    +0.046 A 
ATOM     21  C   UNL     1      -1.141  -6.625   5.561  0.00  0.00    +0.121 A 
ATOM     22  C   UNL     1       0.236  -6.579   5.725  0.00  0.00    +0.046 A 
ATOM     23  C   UNL     1       1.051  -6.319   4.640  0.00  0.00    +0.009 A 
BRANCH  21  24
ATOM     24  O   UNL     1      -1.945  -6.886   6.625  0.00  0.00    -0.487 OA
BRANCH  24  25
ATOM     25  C   UNL     1      -1.305  -7.103   7.884  0.00  0.00    +0.264 C 
BRANCH  25  26
ATOM     26  C   UNL     1      -2.347  -7.375   8.937  0.00  0.00    -0.007 A 
ATOM     27  C   UNL     1      -3.687  -7.389   8.597  0.00  0.00    +0.010 A 
ATOM     28  C   UNL     1      -4.644  -7.638   9.563  0.00  0.00    -0.047 A 
ATOM     29  C   UNL     1      -4.260  -7.875  10.870  0.00  0.00    -0.047 A 
ATOM     30  C   UNL     1      -2.921  -7.862  11.210  0.00  0.00    +0.007 A 
ATOM     31  C   UNL     1      -1.964  -7.617  10.243  0.00  0.00    -0.044 A 
ATOM     32  C   UNL     1      -0.503  -7.609  10.613  0.00  0.00    +0.044 C 
ATOM     33  C   UNL     1      -5.303  -8.146  11.924  0.00  0.00    +0.044 C 
ATOM     34  C   UNL     1      -6.104  -7.652   9.192  0.00  0.00    +0.044 C 
ENDBRANCH  25  26
ENDBRANCH  24  25
ENDBRANCH  21  24
ENDBRANCH   6  18
BRANCH   1  35
ATOM     35  S   UNL     1       0.879  -0.605   1.472  0.00  0.00    -0.085 S 
BRANCH  35  37
ATOM     36  C   UNL     1      -0.019   1.526   0.010  0.00  0.00    +0.016 C 
ATOM     37  C   UNL     1       0.002  -0.004   0.002  0.00  0.00    +0.074 C 
ENDBRANCH  35  37
ENDBRANCH   1  35
TORSDOF 6
