REMARK  Name = ZINC39888790
REMARK  10 active torsions:
REMARK  status: ('A' for Active; 'I' for Inactive)
REMARK    1  A    between atoms: C_1  and  C_2
REMARK    2  A    between atoms: C_3  and  C_25
REMARK    3  A    between atoms: C_4  and  C_17
REMARK    4  A    between atoms: N_8  and  C_15
REMARK    5  A    between atoms: N_11  and  C_14
REMARK    6  A    between atoms: C_25  and  O_27
REMARK    7  A    between atoms: O_27  and  C_28
REMARK    8  A    between atoms: C_28  and  C_29
REMARK    9  A    between atoms: C_29  and  C_30
REMARK   10  A    between atoms: C_29  and  C_31
REMARK                            x       y       z     vdW  Elec       q    Type
REMARK                         _______ _______ _______ _____ _____    ______ ____
ROOT
ATOM      1  C   UNL     1      -0.018   1.503   0.010  0.00  0.00    +0.061 C 
ATOM      2  C   UNL     1       0.002  -0.004   0.002  0.00  0.00    +0.017 C 
ATOM      3  C   UNL     1      -1.158  -0.682   0.004  0.00  0.00    +0.065 C 
ATOM      4  C   UNL     1      -1.194  -2.183   0.005  0.00  0.00    +0.097 C 
ATOM      5  C   UNL     1       0.139  -2.752  -0.393  0.00  0.00    +0.067 A 
ATOM      6  C   UNL     1       1.264  -1.984  -0.378  0.00  0.00    +0.116 A 
ATOM      7  N   UNL     1       2.468  -2.538  -0.742  0.00  0.00    -0.284 N 
ATOM      8  C   UNL     1       2.538  -3.829  -1.114  0.00  0.00    +0.333 A 
ATOM      9  O   UNL     1       3.610  -4.304  -1.433  0.00  0.00    -0.246 OA
ATOM     10  N   UNL     1       1.437  -4.602  -1.139  0.00  0.00    -0.264 N 
ATOM     11  C   UNL     1       0.237  -4.098  -0.788  0.00  0.00    +0.262 A 
ATOM     12  O   UNL     1      -0.756  -4.804  -0.812  0.00  0.00    -0.267 OA
ATOM     13  C   UNL     1       1.543  -6.004  -1.552  0.00  0.00    +0.157 C 
ATOM     14  C   UNL     1       3.683  -1.718  -0.725  0.00  0.00    +0.155 C 
ATOM     15  N   UNL     1       1.201  -0.662  -0.013  0.00  0.00    -0.303 N 
ATOM     16  H   UNL     1       2.012  -0.193   0.239  0.00  0.00    +0.153 HD
ENDROOT
BRANCH   4  17
ATOM     17  C   UNL     1      -1.546  -2.670   1.387  0.00  0.00    -0.017 A 
ATOM     18  C   UNL     1      -0.738  -2.345   2.461  0.00  0.00    +0.007 A 
ATOM     19  C   UNL     1      -1.061  -2.791   3.728  0.00  0.00    +0.020 A 
ATOM     20  C   UNL     1      -2.194  -3.562   3.924  0.00  0.00    +0.042 A 
ATOM     21  C   UNL     1      -3.003  -3.886   2.850  0.00  0.00    +0.040 A 
ATOM     22  C   UNL     1      -2.682  -3.436   1.582  0.00  0.00    +0.046 A 
ATOM     23 CL   UNL     1      -3.700  -3.837   0.234  0.00  0.00    -0.083 Cl
ATOM     24 CL   UNL     1      -2.599  -4.122   5.516  0.00  0.00    -0.083 Cl
ENDBRANCH   4  17
BRANCH   3  25
ATOM     25  C   UNL     1      -2.376   0.036   0.005  0.00  0.00    +0.338 C 
ATOM     26  O   UNL     1      -2.364   1.253   0.004  0.00  0.00    -0.245 OA
BRANCH  25  27
ATOM     27  O   UNL     1      -3.550  -0.628   0.007  0.00  0.00    -0.461 OA
BRANCH  27  28
ATOM     28  C   UNL     1      -4.742   0.162   0.007  0.00  0.00    +0.235 C 
BRANCH  28  29
ATOM     29  C   UNL     1      -5.964  -0.759   0.010  0.00  0.00    +0.020 C 
ATOM     30  C   UNL     1      -7.236   0.082   0.136  0.00  0.00    +0.010 C 
ATOM     31  C   UNL     1      -6.006  -1.554  -1.297  0.00  0.00    +0.010 C 
ENDBRANCH  28  29
ENDBRANCH  27  28
ENDBRANCH  25  27
ENDBRANCH   3  25
TORSDOF 5
