REMARK  Name = ZINC41585005
REMARK  8 active torsions:
REMARK  status: ('A' for Active; 'I' for Inactive)
REMARK    1  A    between atoms: C_1  and  C_2
REMARK    2  A    between atoms: C_6  and  C_7
REMARK    3  A    between atoms: C_12  and  C_36
REMARK    4  A    between atoms: C_14  and  O_35
REMARK    5  A    between atoms: C_15  and  C_18
REMARK    6  A    between atoms: C_18  and  N_19
REMARK    7  A    between atoms: N_22  and  C_25
REMARK    8  A    between atoms: C_25  and  C_26
REMARK                            x       y       z     vdW  Elec       q    Type
REMARK                         _______ _______ _______ _____ _____    ______ ____
ROOT
ATOM      1  C   UNL     1       0.030  -0.306   2.517  0.00  0.00    +0.065 C 
ATOM      2  C   UNL     1       0.052  -1.211   3.537  0.00  0.00    +0.177 C 
ATOM      3  C   UNL     1       0.055  -0.900   4.923  0.00  0.00    +0.232 C 
ATOM      4  O   UNL     1       0.039   0.208   5.434  0.00  0.00    -0.283 OA
ATOM      5  C   UNL     1       0.082  -2.202   5.611  0.00  0.00    +0.071 A 
ATOM      6  C   UNL     1       0.098  -2.579   6.954  0.00  0.00    -0.033 A 
ATOM      7  C   UNL     1       0.123  -3.904   7.288  0.00  0.00    +0.050 A 
ATOM      8  C   UNL     1       0.135  -4.878   6.293  0.00  0.00    +0.122 A 
ATOM      9  C   UNL     1       0.119  -4.518   4.955  0.00  0.00    +0.020 A 
ATOM     10  C   UNL     1       0.093  -3.177   4.599  0.00  0.00    +0.145 A 
ATOM     11  O   UNL     1       0.069  -2.558   3.399  0.00  0.00    -0.451 OA
ATOM     12  C   UNL     1       0.086  -1.528   8.034  0.00  0.00    +0.045 C 
ENDROOT
BRANCH   1  18
ATOM     13  C   UNL     1      -0.018   1.503   0.010  0.00  0.00    +0.045 C 
ATOM     14  C   UNL     1       0.002  -0.004   0.002  0.00  0.00    -0.036 A 
ATOM     15  C   UNL     1       0.007  -0.729  -1.164  0.00  0.00    +0.011 A 
ATOM     16  C   UNL     1       0.026  -2.084  -1.099  0.00  0.00    +0.046 A 
ATOM     17  S   UNL     1       0.038  -2.420   0.547  0.00  0.00    -0.097 S 
ATOM     18  C   UNL     1       0.023  -0.752   1.176  0.00  0.00    +0.019 A 
ENDBRANCH   1  18
BRANCH   8  19
ATOM     19  O   UNL     1       0.161  -6.191   6.637  0.00  0.00    -0.506 OA
ATOM     20  H   UNL     1      -0.715  -6.588   6.742  0.00  0.00    +0.292 HD
ENDBRANCH   8  19
BRANCH   9  21
ATOM     21  C   UNL     1       0.132  -5.582   3.888  0.00  0.00    -0.035 C 
BRANCH  21  22
ATOM     22  N   UNL     1      -1.248  -5.953   3.550  0.00  0.00    +0.384 N 
ATOM     23  C   UNL     1      -1.931  -4.802   2.945  0.00  0.00    -0.063 C 
ATOM     24  C   UNL     1      -3.374  -5.182   2.610  0.00  0.00    +0.066 C 
ATOM     25  N   UNL     1      -3.375  -6.319   1.678  0.00  0.00    -0.302 NA
ATOM     26  C   UNL     1      -2.673  -7.472   2.260  0.00  0.00    +0.066 C 
ATOM     27  C   UNL     1      -1.235  -7.072   2.598  0.00  0.00    -0.063 C 
ATOM     28  H   UNL     1      -1.737  -6.231   4.388  0.00  0.00    -0.081 HD
BRANCH  25  29
ATOM     29  C   UNL     1      -4.744  -6.679   1.287  0.00  0.00    +0.119 C 
BRANCH  29  30
ATOM     30  C   UNL     1      -4.699  -7.673   0.155  0.00  0.00    -0.030 A 
ATOM     31  C   UNL     1      -4.683  -7.228  -1.153  0.00  0.00    +0.009 A 
ATOM     32  C   UNL     1      -4.641  -8.136  -2.195  0.00  0.00    +0.050 A 
ATOM     33  C   UNL     1      -4.615  -9.495  -1.929  0.00  0.00    +0.166 A 
ATOM     34  C   UNL     1      -4.631  -9.944  -0.610  0.00  0.00    +0.167 A 
ATOM     35  C   UNL     1      -4.668  -9.028   0.429  0.00  0.00    +0.054 A 
ATOM     36  O   UNL     1      -4.600 -11.308  -0.613  0.00  0.00    -0.453 OA
ATOM     37  C   UNL     1      -4.976 -11.699  -1.947  0.00  0.00    +0.466 C 
ATOM     38  O   UNL     1      -4.574 -10.579  -2.757  0.00  0.00    -0.453 OA
ENDBRANCH  29  30
ENDBRANCH  25  29
ENDBRANCH  21  22
ENDBRANCH   9  21
TORSDOF 6
