REMARK  Name = ZINC26841170
REMARK  7 active torsions:
REMARK  status: ('A' for Active; 'I' for Inactive)
REMARK    1  A    between atoms: C_1  and  C_2
REMARK    2  A    between atoms: C_2  and  O_3
REMARK    3  A    between atoms: O_3  and  C_4
REMARK    4  A    between atoms: C_9  and  N_10
REMARK    5  A    between atoms: C_11  and  C_13
REMARK    6  A    between atoms: C_13  and  C_14
REMARK    7  A    between atoms: C_26  and  C_28
REMARK                            x       y       z     vdW  Elec       q    Type
REMARK                         _______ _______ _______ _____ _____    ______ ____
ROOT
ATOM      1  C   UNL     1      -3.119   0.787   1.654  0.00  0.00    +0.176 C 
ATOM      2  C   UNL     1      -3.149   2.261   1.971  0.00  0.00    +0.239 C 
ATOM      3  O   UNL     1      -4.137   2.744   2.482  0.00  0.00    -0.273 OA
ATOM      4  N   UNL     1      -2.091   3.047   1.693  0.00  0.00    -0.282 N 
ATOM      5  C   UNL     1      -0.960   2.524   1.058  0.00  0.00    +0.055 A 
ATOM      6  C   UNL     1       0.229   3.236   1.028  0.00  0.00    +0.025 A 
ATOM      7  C   UNL     1       1.334   2.703   0.390  0.00  0.00    +0.002 A 
ATOM      8  C   UNL     1       1.260   1.465  -0.220  0.00  0.00    +0.002 A 
ATOM      9  C   UNL     1       0.078   0.746  -0.195  0.00  0.00    +0.025 A 
ATOM     10  C   UNL     1      -1.032   1.274   0.440  0.00  0.00    +0.059 A 
ATOM     11  N   UNL     1      -2.240   0.563   0.497  0.00  0.00    -0.253 N 
ATOM     12  C   UNL     1      -2.586  -0.296  -0.483  0.00  0.00    +0.252 C 
ATOM     13  O   UNL     1      -1.787  -0.575  -1.356  0.00  0.00    -0.270 OA
ATOM     14  H   UNL     1      -2.111   4.112   1.966  0.00  0.00    +0.155 HD
ENDROOT
BRANCH  12  15
ATOM     15  C   UNL     1      -3.935  -0.898  -0.495  0.00  0.00    +0.037 A 
ATOM     16  C   UNL     1      -5.042  -0.146  -0.100  0.00  0.00    +0.014 A 
ATOM     17  C   UNL     1      -6.300  -0.712  -0.119  0.00  0.00    +0.021 A 
ATOM     18  C   UNL     1      -6.463  -2.029  -0.518  0.00  0.00    +0.041 A 
ATOM     19  C   UNL     1      -5.367  -2.782  -0.905  0.00  0.00    +0.021 A 
ATOM     20  C   UNL     1      -4.106  -2.225  -0.896  0.00  0.00    +0.014 A 
ATOM     21 CL   UNL     1      -8.048  -2.737  -0.531  0.00  0.00    -0.084 Cl
ENDBRANCH  12  15
BRANCH   1  22
ATOM     22  C   UNL     1      -2.583   0.015   2.861  0.00  0.00    +0.128 C 
BRANCH  22  24
ATOM     23  N   UNL     1      -2.380  -2.346   3.571  0.00  0.00    -0.283 N 
ATOM     24  C   UNL     1      -2.702  -1.465   2.603  0.00  0.00    +0.220 C 
ATOM     25  O   UNL     1      -3.087  -1.864   1.524  0.00  0.00    -0.275 OA
ATOM     26  H   UNL     1      -2.119  -1.986   4.578  0.00  0.00    +0.155 HD
BRANCH  23  32
ATOM     27  C   UNL     1      -2.562  -4.639   4.327  0.00  0.00    +0.142 A 
ATOM     28  C   UNL     1      -2.559  -5.996   4.049  0.00  0.00    +0.047 A 
ATOM     29  C   UNL     1      -2.373  -6.436   2.751  0.00  0.00    +0.004 A 
ATOM     30  C   UNL     1      -2.189  -5.524   1.728  0.00  0.00    +0.002 A 
ATOM     31  C   UNL     1      -2.197  -4.168   1.996  0.00  0.00    +0.027 A 
ATOM     32  C   UNL     1      -2.378  -3.720   3.296  0.00  0.00    +0.076 A 
BRANCH  27  33
ATOM     33  O   UNL     1      -2.745  -4.205   5.602  0.00  0.00    -0.490 OA
BRANCH  33  35
ATOM     34  C   UNL     1      -3.118  -4.529   7.968  0.00  0.00    +0.048 C 
ATOM     35  C   UNL     1      -2.929  -5.204   6.607  0.00  0.00    +0.226 C 
ENDBRANCH  33  35
ENDBRANCH  27  33
ENDBRANCH  23  32
ENDBRANCH  22  24
ENDBRANCH   1  22
TORSDOF 6
