REMARK  Name = ZINC34830350
REMARK  6 active torsions:
REMARK  status: ('A' for Active; 'I' for Inactive)
REMARK    1  A    between atoms: C_1  and  C_2
REMARK    2  A    between atoms: C_7  and  C_8
REMARK    3  A    between atoms: N_17  and  C_18
REMARK    4  A    between atoms: C_18  and  C_20
REMARK    5  A    between atoms: C_18  and  C_21
REMARK    6  A    between atoms: C_29  and  C_31
REMARK                            x       y       z     vdW  Elec       q    Type
REMARK                         _______ _______ _______ _____ _____    ______ ____
ROOT
ATOM      1  C   UNL     1      -1.755  -0.167   3.475  0.00  0.00    +0.018 C 
ATOM      2  C   UNL     1      -0.801  -1.058   2.677  0.00  0.00    -0.004 C 
ENDROOT
BRANCH   1  11
ATOM      3  C   UNL     1      -1.898   1.477   5.210  0.00  0.00    -0.005 C 
ATOM      4  C   UNL     1      -1.083   2.313   6.191  0.00  0.00    -0.047 A 
ATOM      5  C   UNL     1      -1.580   3.423   6.870  0.00  0.00    +0.010 A 
ATOM      6  C   UNL     1      -0.782   4.109   7.722  0.00  0.00    +0.045 A 
ATOM      7  S   UNL     1       0.751   3.198   7.605  0.00  0.00    -0.101 S 
ATOM      8  C   UNL     1       0.215   1.980   6.439  0.00  0.00    -0.010 A 
ATOM      9  C   UNL     1       0.967   0.836   5.840  0.00  0.00    +0.024 C 
ATOM     10  C   UNL     1      -0.060  -0.093   5.170  0.00  0.00    -0.071 C 
ATOM     11  N   UNL     1      -0.978   0.716   4.356  0.00  0.00    +0.395 N 
ATOM     12  H   UNL     1      -0.442   1.358   3.792  0.00  0.00    -0.079 HD
BRANCH   3  19
ATOM     13  C   UNL     1      -4.510   2.300   6.130  0.00  0.00    +0.044 C 
ATOM     14  C   UNL     1      -3.997   2.777   4.797  0.00  0.00    -0.049 A 
ATOM     15  C   UNL     1      -4.773   3.614   4.016  0.00  0.00    +0.003 A 
ATOM     16  C   UNL     1      -4.301   4.052   2.793  0.00  0.00    +0.000 A 
ATOM     17  C   UNL     1      -3.053   3.654   2.350  0.00  0.00    +0.000 A 
ATOM     18  C   UNL     1      -2.277   2.818   3.131  0.00  0.00    +0.002 A 
ATOM     19  C   UNL     1      -2.747   2.384   4.356  0.00  0.00    -0.054 A 
ENDBRANCH   3  19
ENDBRANCH   1  11
BRANCH   1  20
ATOM     20  C   UNL     1      -2.669  -1.029   4.308  0.00  0.00    +0.202 C 
ATOM     21  O   UNL     1      -2.403  -1.249   5.470  0.00  0.00    -0.277 OA
ATOM     22  N   UNL     1      -3.782  -1.556   3.760  0.00  0.00    -0.300 N 
ATOM     23  C   UNL     1      -4.051  -1.406   2.323  0.00  0.00    +0.126 C 
ATOM     24  C   UNL     1      -4.258  -2.799   1.715  0.00  0.00    +0.127 C 
ATOM     25  N   UNL     1      -5.223  -3.534   2.544  0.00  0.00    -0.295 N 
ATOM     26  C   UNL     1      -4.954  -3.684   3.981  0.00  0.00    +0.127 C 
ATOM     27  C   UNL     1      -4.745  -2.296   4.587  0.00  0.00    +0.126 C 
ATOM     28  C   UNL     1      -6.336  -4.062   1.996  0.00  0.00    +0.247 C 
ATOM     29  O   UNL     1      -7.176  -4.580   2.705  0.00  0.00    -0.270 OA
BRANCH  28  30
ATOM     30  C   UNL     1      -6.535  -4.009   0.534  0.00  0.00    +0.041 A 
ATOM     31  C   UNL     1      -5.485  -4.335  -0.328  0.00  0.00    +0.017 A 
ATOM     32  C   UNL     1      -5.673  -4.286  -1.692  0.00  0.00    +0.050 A 
ATOM     33  C   UNL     1      -6.904  -3.914  -2.215  0.00  0.00    +0.166 A 
ATOM     34  C   UNL     1      -7.957  -3.587  -1.359  0.00  0.00    +0.167 A 
ATOM     35  C   UNL     1      -7.776  -3.639   0.009  0.00  0.00    +0.062 A 
ATOM     36  O   UNL     1      -9.046  -3.260  -2.115  0.00  0.00    -0.453 OA
ATOM     37  C   UNL     1      -8.533  -2.994  -3.433  0.00  0.00    +0.466 C 
ATOM     38  O   UNL     1      -7.336  -3.791  -3.502  0.00  0.00    -0.453 OA
ENDBRANCH  28  30
ENDBRANCH   1  20
TORSDOF 4
