REMARK  Name = ZINC28295089
REMARK  4 active torsions:
REMARK  status: ('A' for Active; 'I' for Inactive)
REMARK    1  A    between atoms: C_4  and  O_30
REMARK    2  A    between atoms: C_5  and  C_7
REMARK    3  A    between atoms: N_23  and  C_26
REMARK    4  A    between atoms: C_26  and  C_27
REMARK                            x       y       z     vdW  Elec       q    Type
REMARK                         _______ _______ _______ _____ _____    ______ ____
ROOT
ATOM      1  C   UNL     1       1.227  -2.187  -0.022  0.00  0.00    +0.075 C 
ATOM      2  C   UNL     1       0.530  -2.708   1.203  0.00  0.00    +0.033 A 
ATOM      3  C   UNL     1      -0.308  -3.760   1.333  0.00  0.00    +0.088 A 
ATOM      4  N   UNL     1      -0.796  -3.962   2.600  0.00  0.00    -0.311 N 
ATOM      5  H   UNL     1      -1.412  -4.691   2.772  0.00  0.00    +0.170 HD
ATOM      6  C   UNL     1      -0.418  -3.147   3.604  0.00  0.00    +0.289 A 
ATOM      7  O   UNL     1      -0.749  -3.189   4.776  0.00  0.00    -0.260 OA
ATOM      8  S   UNL     1       0.623  -2.060   2.852  0.00  0.00    -0.030 S 
ATOM      9  S   UNL     1      -0.712  -4.795  -0.067  0.00  0.00    -0.093 S 
ATOM     10  C   UNL     1       0.557  -4.253  -1.241  0.00  0.00    +0.152 C 
ATOM     11  C   UNL     1       0.503  -2.696  -1.243  0.00  0.00    +0.110 C 
ATOM     12  C   UNL     1       1.060  -2.401  -2.599  0.00  0.00    +0.228 C 
ATOM     13  O   UNL     1       1.690  -1.419  -2.930  0.00  0.00    -0.275 OA
ATOM     14  N   UNL     1       0.717  -3.455  -3.385  0.00  0.00    -0.230 N 
ATOM     15  C   UNL     1       0.246  -4.544  -2.683  0.00  0.00    +0.236 C 
ATOM     16  O   UNL     1      -0.307  -5.529  -3.124  0.00  0.00    -0.274 OA
ENDROOT
BRANCH   1  21
ATOM     17  C   UNL     1      -0.017   1.378   0.010  0.00  0.00    +0.001 A 
ATOM     18  C   UNL     1       1.170   2.088   0.002  0.00  0.00    +0.004 A 
ATOM     19  C   UNL     1       2.377   1.417  -0.013  0.00  0.00    +0.046 A 
ATOM     20  C   UNL     1       2.399   0.030  -0.021  0.00  0.00    +0.121 A 
ATOM     21  C   UNL     1       1.207  -0.680  -0.013  0.00  0.00    +0.003 A 
ATOM     22  C   UNL     1       0.002  -0.004   0.002  0.00  0.00    +0.008 A 
BRANCH  20  23
ATOM     23  O   UNL     1       3.586  -0.632  -0.037  0.00  0.00    -0.506 OA
ATOM     24  H   UNL     1       3.938  -0.829   0.842  0.00  0.00    +0.292 HD
ENDBRANCH  20  23
ENDBRANCH   1  21
BRANCH  14  25
ATOM     25  C   UNL     1       0.847  -3.444  -4.844  0.00  0.00    +0.241 C 
BRANCH  25  26
ATOM     26  C   UNL     1       2.211  -3.953  -5.231  0.00  0.00    +0.373 C 
ATOM     27  O   UNL     1       3.002  -4.294  -4.368  0.00  0.00    -0.245 OA
ATOM     28  O   UNL     1       2.524  -4.024  -6.407  0.00  0.00    -0.245 OA
ENDBRANCH  25  26
ENDBRANCH  14  25
TORSDOF 4
