REMARK  Name = ZINC13198436
REMARK  8 active torsions:
REMARK  status: ('A' for Active; 'I' for Inactive)
REMARK    1  A    between atoms: C_1  and  C_2
REMARK    2  A    between atoms: C_3  and  O_26
REMARK    3  A    between atoms: C_9  and  O_13
REMARK    4  A    between atoms: O_13  and  S_14
REMARK    5  A    between atoms: S_14  and  C_17
REMARK    6  A    between atoms: C_20  and  O_25
REMARK    7  A    between atoms: C_21  and  C_23
REMARK    8  A    between atoms: O_26  and  C_27
REMARK                            x       y       z     vdW  Elec       q    Type
REMARK                         _______ _______ _______ _____ _____    ______ ____
ROOT
ATOM      1  C   UNL     1       3.582   2.328  -0.021  0.00  0.00    +0.090 C 
ATOM      2  C   UNL     1       2.337   1.478  -0.013  0.00  0.00    +0.148 A 
ATOM      3  C   UNL     1       2.471   0.137  -0.022  0.00  0.00    +0.213 A 
ATOM      4  C   UNL     1       1.308  -0.685  -0.015  0.00  0.00    +0.235 A 
ATOM      5  O   UNL     1       1.391  -1.902  -0.021  0.00  0.00    -0.283 OA
ATOM      6  C   UNL     1       0.002  -0.004   0.002  0.00  0.00    +0.068 A 
ATOM      7  C   UNL     1      -1.193  -0.724   0.010  0.00  0.00    +0.019 A 
ATOM      8  C   UNL     1      -2.385  -0.058   0.026  0.00  0.00    +0.049 A 
ATOM      9  C   UNL     1      -2.414   1.335   0.034  0.00  0.00    +0.160 A 
ATOM     10  C   UNL     1      -1.237   2.064   0.031  0.00  0.00    +0.095 A 
ATOM     11  C   UNL     1      -0.017   1.402   0.010  0.00  0.00    +0.143 A 
ATOM     12  O   UNL     1       1.144   2.087   0.002  0.00  0.00    -0.456 OA
ENDROOT
BRANCH   9  13
ATOM     13  O   UNL     1      -3.606   1.984   0.049  0.00  0.00    -0.342 OA
BRANCH  13  14
ATOM     14  S   UNL     1      -4.136   2.272   1.447  0.00  0.00    +0.151 S 
ATOM     15  O   UNL     1      -5.463   2.754   1.286  0.00  0.00    -0.131 OA
ATOM     16  O   UNL     1      -3.831   1.133   2.240  0.00  0.00    -0.131 OA
BRANCH  14  17
ATOM     17  C   UNL     1      -3.190   3.608   2.098  0.00  0.00    +0.129 A 
ATOM     18  C   UNL     1      -2.035   3.348   2.817  0.00  0.00    +0.034 A 
ATOM     19  C   UNL     1      -1.282   4.386   3.329  0.00  0.00    +0.048 A 
ATOM     20  C   UNL     1      -1.684   5.699   3.133  0.00  0.00    +0.131 A 
ATOM     21  C   UNL     1      -2.855   5.966   2.410  0.00  0.00    +0.106 A 
ATOM     22  C   UNL     1      -3.605   4.905   1.893  0.00  0.00    +0.049 A 
BRANCH  21  23
ATOM     23  C   UNL     1      -3.293   7.357   2.195  0.00  0.00    +0.390 C 
ATOM     24  O   UNL     1      -2.639   8.277   2.645  0.00  0.00    -0.240 OA
ATOM     25  O   UNL     1      -4.419   7.609   1.498  0.00  0.00    -0.240 OA
ENDBRANCH  21  23
BRANCH  20  26
ATOM     26  O   UNL     1      -0.949   6.720   3.639  0.00  0.00    -0.506 OA
ATOM     27  H   UNL     1      -1.204   6.983   4.534  0.00  0.00    +0.292 HD
ENDBRANCH  20  26
ENDBRANCH  14  17
ENDBRANCH  13  14
ENDBRANCH   9  13
BRANCH   3  28
ATOM     28  O   UNL     1       3.709  -0.428  -0.037  0.00  0.00    -0.449 OA
BRANCH  28  29
ATOM     29  C   UNL     1       4.278  -0.686  -1.245  0.00  0.00    +0.129 A 
ATOM     30  C   UNL     1       3.595  -0.379  -2.413  0.00  0.00    +0.049 A 
ATOM     31  C   UNL     1       4.176  -0.637  -3.639  0.00  0.00    +0.042 A 
ATOM     32  C   UNL     1       5.435  -1.212  -3.703  0.00  0.00    +0.124 A 
ATOM     33  C   UNL     1       6.115  -1.523  -2.538  0.00  0.00    +0.042 A 
ATOM     34  C   UNL     1       5.539  -1.261  -1.310  0.00  0.00    +0.049 A 
ATOM     35  F   UNL     1       6.000  -1.469  -4.903  0.00  0.00    -0.205 F 
ENDBRANCH  28  29
ENDBRANCH   3  28
TORSDOF 7
