REMARK  Name = ZINC26570995
REMARK  15 active torsions:
REMARK  status: ('A' for Active; 'I' for Inactive)
REMARK    1  A    between atoms: C_1  and  C_2
REMARK    2  A    between atoms: C_3  and  C_4
REMARK    3  A    between atoms: C_4  and  C_11
REMARK    4  A    between atoms: C_5  and  C_6
REMARK    5  A    between atoms: C_6  and  O_9
REMARK    6  A    between atoms: C_7  and  O_8
REMARK    7  A    between atoms: O_9  and  C_10
REMARK    8  A    between atoms: N_12  and  N_13
REMARK    9  A    between atoms: C_14  and  C_16
REMARK   10  A    between atoms: C_19  and  C_22
REMARK   11  A    between atoms: N_24  and  N_25
REMARK   12  A    between atoms: C_26  and  C_27
REMARK   13  A    between atoms: C_30  and  O_35
REMARK   14  A    between atoms: C_31  and  O_33
REMARK   15  A    between atoms: O_33  and  C_34
REMARK                            x       y       z     vdW  Elec       q    Type
REMARK                         _______ _______ _______ _____ _____    ______ ____
ROOT
ATOM      1  C   UNL     1      -8.084   0.256   3.183  0.00  0.00    +0.038 A 
ATOM      2  C   UNL     1      -8.181  -1.079   3.581  0.00  0.00    +0.014 A 
ATOM      3  C   UNL     1      -9.262  -1.500   4.324  0.00  0.00    +0.014 A 
ATOM      4  C   UNL     1     -10.267  -0.594   4.669  0.00  0.00    +0.038 A 
ATOM      5  C   UNL     1     -10.174   0.740   4.266  0.00  0.00    +0.014 A 
ATOM      6  C   UNL     1      -9.089   1.162   3.528  0.00  0.00    +0.014 A 
ENDROOT
BRANCH   1   8
ATOM      7  N   UNL     1      -5.950  -0.165   2.058  0.00  0.00    -0.203 N 
ATOM      8  C   UNL     1      -6.921   0.709   2.391  0.00  0.00    +0.263 C 
ATOM      9  O   UNL     1      -6.839   1.871   2.040  0.00  0.00    -0.268 OA
ATOM     10  H   UNL     1      -6.058  -1.230   2.313  0.00  0.00    +0.178 HD
BRANCH   7  12
ATOM     11  C   UNL     1      -3.914  -0.575   0.979  0.00  0.00    +0.138 C 
ATOM     12  N   UNL     1      -4.805   0.281   1.387  0.00  0.00    -0.187 NA
BRANCH  11  13
ATOM     13  C   UNL     1      -2.662  -0.102   0.377  0.00  0.00    -0.002 C 
ATOM     14  C   UNL     1      -1.688  -1.006   0.009  0.00  0.00    +0.058 C 
BRANCH  13  17
ATOM     15  C   UNL     1      -4.221   1.272  -1.534  0.00  0.00    +0.035 C 
ATOM     16  C   UNL     1      -3.213   2.009  -0.690  0.00  0.00    -0.030 C 
ATOM     17  C   UNL     1      -2.446   1.340   0.165  0.00  0.00    +0.005 C 
ENDBRANCH  13  17
BRANCH  14  18
ATOM     18  C   UNL     1      -0.442  -0.546  -0.472  0.00  0.00    +0.154 C 
ATOM     19  C   UNL     1       0.507  -1.432  -0.841  0.00  0.00    +0.228 C 
BRANCH  19  20
ATOM     20  O   UNL     1       1.702  -0.990  -1.302  0.00  0.00    -0.511 OA
ATOM     21  H   UNL     1       2.476  -1.712  -1.603  0.00  0.00    +0.291 HD
ENDBRANCH  19  20
BRANCH  18  22
ATOM     22  O   UNL     1      -0.199   0.790  -0.563  0.00  0.00    -0.492 OA
ATOM     23  C   UNL     1       1.082   1.185  -1.058  0.00  0.00    +0.277 C 
ENDBRANCH  18  22
ENDBRANCH  14  18
ENDBRANCH  11  13
ENDBRANCH   7  12
ENDBRANCH   1   8
BRANCH   4  24
ATOM     24  C   UNL     1     -11.431  -1.047   5.461  0.00  0.00    +0.263 C 
ATOM     25  O   UNL     1     -12.306  -0.258   5.761  0.00  0.00    -0.268 OA
ATOM     26  N   UNL     1     -11.522  -2.334   5.850  0.00  0.00    -0.203 N 
ATOM     27  H   UNL     1     -10.730  -3.048   5.579  0.00  0.00    +0.178 HD
BRANCH  26  28
ATOM     28  N   UNL     1     -12.624  -2.763   6.601  0.00  0.00    -0.187 NA
ATOM     29  C   UNL     1     -12.711  -4.003   6.975  0.00  0.00    +0.138 C 
BRANCH  29  30
ATOM     30  C   UNL     1     -13.871  -4.455   7.765  0.00  0.00    -0.002 A 
ATOM     31  C   UNL     1     -14.875  -3.548   8.116  0.00  0.00    +0.013 A 
ATOM     32  C   UNL     1     -15.962  -3.974   8.851  0.00  0.00    +0.050 A 
ATOM     33  C   UNL     1     -16.056  -5.299   9.251  0.00  0.00    +0.158 A 
ATOM     34  C   UNL     1     -15.056  -6.207   8.910  0.00  0.00    +0.162 A 
ATOM     35  C   UNL     1     -13.967  -5.789   8.169  0.00  0.00    +0.058 A 
BRANCH  34  36
ATOM     36  O   UNL     1     -15.153  -7.504   9.305  0.00  0.00    -0.491 OA
ATOM     37  C   UNL     1     -14.092  -8.380   8.919  0.00  0.00    +0.277 C 
ENDBRANCH  34  36
BRANCH  33  38
ATOM     38  O   UNL     1     -17.128  -5.712   9.979  0.00  0.00    -0.503 OA
ATOM     39  H   UNL     1     -17.204  -6.762  10.298  0.00  0.00    +0.292 HD
ENDBRANCH  33  38
ENDBRANCH  29  30
ENDBRANCH  26  28
ENDBRANCH   4  24
TORSDOF 12
