REMARK  Name = ZINC44713827
REMARK  10 active torsions:
REMARK  status: ('A' for Active; 'I' for Inactive)
REMARK    1  A    between atoms: C_1  and  C_2
REMARK    2  A    between atoms: C_3  and  C_9
REMARK    3  A    between atoms: C_4  and  C_8
REMARK    4  A    between atoms: C_9  and  C_11
REMARK    5  A    between atoms: C_9  and  N_12
REMARK    6  A    between atoms: C_13  and  C_15
REMARK    7  A    between atoms: C_26  and  C_28
REMARK    8  A    between atoms: C_28  and  C_30
REMARK    9  A    between atoms: C_28  and  O_31
REMARK   10  A    between atoms: O_31  and  C_32
REMARK                            x       y       z     vdW  Elec       q    Type
REMARK                         _______ _______ _______ _____ _____    ______ ____
ROOT
ATOM      1  C   UNL     1       2.527  -1.350  -5.170  0.00  0.00    +0.100 C 
ATOM      2  C   UNL     1       3.848  -1.513  -4.384  0.00  0.00    +0.121 C 
ATOM      3  N   UNL     1       4.910  -1.398  -5.411  0.00  0.00    -0.297 N 
ATOM      4  C   UNL     1       4.432  -0.327  -6.318  0.00  0.00    +0.115 C 
ATOM      5  C   UNL     1       2.915  -0.571  -6.437  0.00  0.00    -0.004 C 
ATOM      6  C   UNL     1       2.170   0.760  -6.488  0.00  0.00    -0.010 C 
ATOM      7  C   UNL     1       2.527   1.491  -7.785  0.00  0.00    -0.082 C 
ATOM      8  N   UNL     1       2.160   0.657  -8.936  0.00  0.00    +0.379 N 
ATOM      9  C   UNL     1       2.949  -0.581  -8.930  0.00  0.00    -0.082 C 
ATOM     10  C   UNL     1       2.610  -1.399  -7.682  0.00  0.00    -0.010 C 
ATOM     11  C   UNL     1       6.053  -2.107  -5.500  0.00  0.00    +0.256 C 
ATOM     12  O   UNL     1       6.260  -3.023  -4.732  0.00  0.00    -0.272 OA
ATOM     13  H   UNL     1       1.178   0.428  -8.885  0.00  0.00    -0.086 HD
ATOM     14  H   UNL     1       2.339   1.165  -9.789  0.00  0.00    -0.086 HD
ENDROOT
BRANCH   1  16
ATOM     15  N   UNL     1       0.211  -0.666  -4.634  0.00  0.00    -0.308 N 
ATOM     16  C   UNL     1       1.527  -0.568  -4.358  0.00  0.00    +0.219 C 
ATOM     17  O   UNL     1       1.906   0.149  -3.457  0.00  0.00    -0.275 OA
ATOM     18  H   UNL     1      -0.092  -1.239  -5.355  0.00  0.00    +0.149 HD
BRANCH  15  19
ATOM     19  C   UNL     1      -0.761   0.095  -3.845  0.00  0.00    +0.104 C 
ATOM     20  C   UNL     1      -0.894   1.506  -4.422  0.00  0.00    +0.033 C 
BRANCH  19  23
ATOM     21  C   UNL     1      -2.657  -0.425  -1.412  0.00  0.00    +0.065 C 
ATOM     22  C   UNL     1      -2.919  -0.821  -2.842  0.00  0.00    +0.038 A 
ATOM     23  C   UNL     1      -2.099  -0.597  -3.895  0.00  0.00    +0.015 A 
ATOM     24  C   UNL     1      -2.713  -1.120  -5.038  0.00  0.00    +0.065 A 
ATOM     25  N   UNL     1      -3.861  -1.639  -4.684  0.00  0.00    -0.179 NA
ATOM     26  N   UNL     1      -4.011  -1.468  -3.301  0.00  0.00    -0.281 N 
ATOM     27  H   UNL     1      -4.767  -1.761  -2.769  0.00  0.00    +0.189 HD
ATOM     28  C   UNL     1      -2.151  -1.089  -6.435  0.00  0.00    +0.068 C 
ENDBRANCH  19  23
ENDBRANCH  15  19
ENDBRANCH   1  16
BRANCH  11  29
ATOM     29  C   UNL     1       7.073  -1.763  -6.554  0.00  0.00    +0.256 C 
ATOM     30  C   UNL     1       7.702  -0.406  -6.231  0.00  0.00    +0.062 C 
BRANCH  29  31
ATOM     31  O   UNL     1       8.091  -2.766  -6.578  0.00  0.00    -0.480 OA
BRANCH  31  32
ATOM     32  C   UNL     1       8.775  -2.923  -7.742  0.00  0.00    +0.122 A 
ATOM     33  C   UNL     1       9.688  -3.959  -7.877  0.00  0.00    +0.045 A 
ATOM     34  C   UNL     1      10.381  -4.117  -9.061  0.00  0.00    +0.004 A 
ATOM     35  C   UNL     1      10.166  -3.244 -10.111  0.00  0.00    +0.000 A 
ATOM     36  C   UNL     1       9.258  -2.210  -9.979  0.00  0.00    +0.004 A 
ATOM     37  C   UNL     1       8.557  -2.052  -8.799  0.00  0.00    +0.045 A 
ENDBRANCH  31  32
ENDBRANCH  29  31
ENDBRANCH  11  29
TORSDOF 6
