REMARK  Name = ZINC36589839
REMARK  6 active torsions:
REMARK  status: ('A' for Active; 'I' for Inactive)
REMARK    1  A    between atoms: C_1  and  C_2
REMARK    2  A    between atoms: C_2  and  C_4
REMARK    3  A    between atoms: C_2  and  N_8
REMARK    4  A    between atoms: C_4  and  O_6
REMARK    5  A    between atoms: O_6  and  C_7
REMARK    6  A    between atoms: C_20  and  C_22
REMARK                            x       y       z     vdW  Elec       q    Type
REMARK                         _______ _______ _______ _____ _____    ______ ____
ROOT
ATOM      1  N   UNL     1      -1.448  -0.339   2.052  0.00  0.00    -0.286 N 
ATOM      2  C   UNL     1      -2.142  -0.758   0.975  0.00  0.00    +0.304 C 
ATOM      3  O   UNL     1      -1.672  -0.629  -0.139  0.00  0.00    -0.253 OA
ATOM      4  N   UNL     1      -3.357  -1.320   1.133  0.00  0.00    -0.273 N 
ATOM      5  C   UNL     1      -4.078  -1.889  -0.015  0.00  0.00    +0.116 C 
ATOM      6  C   UNL     1      -4.237  -3.401   0.191  0.00  0.00    +0.074 C 
ATOM      7  C   UNL     1      -4.678  -3.653   1.609  0.00  0.00    +0.040 A 
ATOM      8  C   UNL     1      -4.571  -2.765   2.620  0.00  0.00    +0.062 A 
ATOM      9  N   UNL     1      -5.057  -3.333   3.726  0.00  0.00    -0.348 N 
ATOM     10  C   UNL     1      -5.467  -4.542   3.440  0.00  0.00    +0.171 A 
ATOM     11  N   UNL     1      -5.248  -4.777   2.126  0.00  0.00    -0.349 N 
ATOM     12  H   UNL     1      -5.456  -5.593   1.644  0.00  0.00    +0.166 HD
ATOM     13  C   UNL     1      -3.992  -1.384   2.461  0.00  0.00    +0.159 C 
ATOM     14  H   UNL     1      -1.852  -0.374   2.933  0.00  0.00    +0.151 HD
ATOM     15  H   UNL     1      -5.100  -2.917   4.601  0.00  0.00    +0.167 HD
ENDROOT
BRANCH  13  16
ATOM     16  C   UNL     1      -5.092  -0.358   2.554  0.00  0.00    +0.014 A 
ATOM     17  C   UNL     1      -6.413  -0.750   2.454  0.00  0.00    +0.010 A 
ATOM     18  C   UNL     1      -7.423   0.190   2.539  0.00  0.00    +0.016 A 
ATOM     19  C   UNL     1      -7.111   1.525   2.724  0.00  0.00    +0.021 A 
ATOM     20  C   UNL     1      -5.790   1.920   2.824  0.00  0.00    +0.054 A 
ATOM     21  C   UNL     1      -4.779   0.977   2.745  0.00  0.00    +0.130 A 
ATOM     22  F   UNL     1      -3.487   1.361   2.847  0.00  0.00    -0.205 F 
ATOM     23 BR   UNL     1      -8.493   2.811   2.840  0.00  0.00    -0.050 Br
ENDBRANCH  13  16
BRANCH   1  25
ATOM     24  C   UNL     1       0.901  -1.003   1.896  0.00  0.00    +0.040 C 
ATOM     25  C   UNL     1      -0.083   0.169   1.891  0.00  0.00    +0.180 C 
BRANCH  25  26
ATOM     26  C   UNL     1       0.242   1.103   3.029  0.00  0.00    +0.327 C 
ATOM     27  O   UNL     1      -0.582   1.321   3.885  0.00  0.00    -0.249 OA
BRANCH  26  28
ATOM     28  O   UNL     1       1.447   1.691   3.090  0.00  0.00    -0.467 OA
ATOM     29  C   UNL     1       1.687   2.564   4.196  0.00  0.00    +0.280 C 
ENDBRANCH  26  28
ENDBRANCH  25  26
ENDBRANCH   1  25
TORSDOF 4
