REMARK  Name = ZINC39696003
REMARK  9 active torsions:
REMARK  status: ('A' for Active; 'I' for Inactive)
REMARK    1  A    between atoms: C_1  and  C_2
REMARK    2  A    between atoms: C_2  and  C_3
REMARK    3  A    between atoms: C_6  and  C_9
REMARK    4  A    between atoms: C_9  and  C_11
REMARK    5  A    between atoms: C_9  and  N_12
REMARK    6  A    between atoms: C_13  and  C_15
REMARK    7  A    between atoms: C_26  and  C_28
REMARK    8  A    between atoms: C_31  and  O_34
REMARK    9  A    between atoms: O_34  and  C_35
REMARK                            x       y       z     vdW  Elec       q    Type
REMARK                         _______ _______ _______ _____ _____    ______ ____
ROOT
ATOM      1  C   UNL     1       5.303  -0.012  -6.413  0.00  0.00    +0.100 C 
ATOM      2  C   UNL     1       5.467   1.450  -5.944  0.00  0.00    +0.121 C 
ATOM      3  N   UNL     1       6.420   2.049  -6.908  0.00  0.00    -0.296 N 
ATOM      4  C   UNL     1       6.029   1.476  -8.218  0.00  0.00    +0.115 C 
ATOM      5  C   UNL     1       5.672   0.008  -7.906  0.00  0.00    -0.004 C 
ATOM      6  C   UNL     1       4.481  -0.435  -8.751  0.00  0.00    -0.010 C 
ATOM      7  C   UNL     1       4.889  -0.462 -10.226  0.00  0.00    -0.082 C 
ATOM      8  N   UNL     1       6.015  -1.387 -10.408  0.00  0.00    +0.379 N 
ATOM      9  C   UNL     1       7.185  -0.903  -9.666  0.00  0.00    -0.082 C 
ATOM     10  C   UNL     1       6.874  -0.894  -8.166  0.00  0.00    -0.010 C 
ATOM     11  C   UNL     1       7.419   2.917  -6.652  0.00  0.00    +0.247 C 
ATOM     12  O   UNL     1       7.700   3.198  -5.503  0.00  0.00    -0.270 OA
ATOM     13  H   UNL     1       5.756  -2.301 -10.066  0.00  0.00    -0.086 HD
ATOM     14  H   UNL     1       6.242  -1.450 -11.389  0.00  0.00    -0.086 HD
ENDROOT
BRANCH  11  15
ATOM     15  C   UNL     1       8.171   3.527  -7.766  0.00  0.00    +0.037 A 
ATOM     16  C   UNL     1       7.612   3.572  -9.046  0.00  0.00    +0.016 A 
ATOM     17  C   UNL     1       8.316   4.143 -10.082  0.00  0.00    +0.047 A 
ATOM     18  C   UNL     1       9.581   4.673  -9.857  0.00  0.00    +0.130 A 
ATOM     19  C   UNL     1      10.140   4.630  -8.585  0.00  0.00    +0.047 A 
ATOM     20  C   UNL     1       9.440   4.066  -7.542  0.00  0.00    +0.016 A 
BRANCH  18  21
ATOM     21  O   UNL     1      10.273   5.233 -10.882  0.00  0.00    -0.406 OA
BRANCH  21  22
ATOM     22  C   UNL     1      11.567   5.759 -10.580  0.00  0.00    +0.575 C 
ATOM     23  F   UNL     1      12.384   4.734 -10.091  0.00  0.00    -0.133 F 
ATOM     24  F   UNL     1      12.134   6.295 -11.741  0.00  0.00    -0.133 F 
ATOM     25  F   UNL     1      11.448   6.763  -9.613  0.00  0.00    -0.133 F 
ENDBRANCH  21  22
ENDBRANCH  18  21
ENDBRANCH  11  15
BRANCH   1  27
ATOM     26  N   UNL     1       3.609  -1.762  -5.982  0.00  0.00    -0.308 N 
ATOM     27  C   UNL     1       3.877  -0.465  -6.231  0.00  0.00    +0.219 C 
ATOM     28  O   UNL     1       2.971   0.337  -6.309  0.00  0.00    -0.275 OA
ATOM     29  H   UNL     1       4.333  -2.404  -5.920  0.00  0.00    +0.149 HD
BRANCH  26  30
ATOM     30  C   UNL     1       2.223  -2.203  -5.805  0.00  0.00    +0.100 C 
ATOM     31  C   UNL     1       1.600  -2.488  -7.173  0.00  0.00    +0.033 C 
BRANCH  30  35
ATOM     32  C   UNL     1       2.148  -5.758  -3.439  0.00  0.00    -0.048 A 
ATOM     33  C   UNL     1       1.193  -4.779  -3.245  0.00  0.00    +0.004 A 
ATOM     34  C   UNL     1       1.217  -3.628  -4.010  0.00  0.00    +0.006 A 
ATOM     35  C   UNL     1       2.197  -3.457  -4.970  0.00  0.00    -0.027 A 
ATOM     36  C   UNL     1       3.154  -4.436  -5.163  0.00  0.00    +0.006 A 
ATOM     37  C   UNL     1       3.132  -5.585  -4.395  0.00  0.00    +0.004 A 
BRANCH  32  39
ATOM     38  C   UNL     1       2.956  -6.801  -1.339  0.00  0.00    +0.009 C 
ATOM     39  C   UNL     1       2.122  -7.013  -2.604  0.00  0.00    +0.032 C 
ENDBRANCH  32  39
ENDBRANCH  30  35
ENDBRANCH  26  30
ENDBRANCH   1  27
TORSDOF 7
