REMARK  Name = ZINC05721522
REMARK  7 active torsions:
REMARK  status: ('A' for Active; 'I' for Inactive)
REMARK    1  A    between atoms: C_1  and  C_2
REMARK    2  A    between atoms: C_2  and  C_4
REMARK    3  A    between atoms: C_2  and  O_16
REMARK    4  A    between atoms: N_6  and  N_7
REMARK    5  A    between atoms: C_8  and  C_9
REMARK    6  A    between atoms: C_13  and  O_15
REMARK    7  A    between atoms: O_16  and  C_17
REMARK                            x       y       z     vdW  Elec       q    Type
REMARK                         _______ _______ _______ _____ _____    ______ ____
ROOT
ATOM      1  C   UNL     1      -4.790   1.290  -0.135  0.00  0.00    +0.273 C 
ATOM      2  O   UNL     1      -4.855   0.093   0.051  0.00  0.00    -0.270 OA
ATOM      3  N   UNL     1      -3.591   1.880  -0.311  0.00  0.00    -0.204 N 
ATOM      4  H   UNL     1      -3.539   2.837  -0.459  0.00  0.00    +0.177 HD
ENDROOT
BRANCH   1   6
ATOM      5  C   UNL     1      -6.049   3.093   1.011  0.00  0.00    +0.062 C 
ATOM      6  C   UNL     1      -6.049   2.117  -0.168  0.00  0.00    +0.257 C 
BRANCH   6   7
ATOM      7  O   UNL     1      -7.186   1.257  -0.074  0.00  0.00    -0.478 OA
BRANCH   7   8
ATOM      8  C   UNL     1      -8.354   1.719  -0.595  0.00  0.00    +0.140 A 
ATOM      9  C   UNL     1      -8.433   3.016  -1.081  0.00  0.00    +0.048 A 
ATOM     10  C   UNL     1      -9.619   3.483  -1.613  0.00  0.00    +0.023 A 
ATOM     11  C   UNL     1     -10.731   2.661  -1.655  0.00  0.00    +0.043 A 
ATOM     12  C   UNL     1     -10.657   1.369  -1.167  0.00  0.00    +0.043 A 
ATOM     13  C   UNL     1      -9.471   0.896  -0.637  0.00  0.00    +0.084 A 
ATOM     14 CL   UNL     1      -9.378  -0.726  -0.025  0.00  0.00    -0.080 Cl
ATOM     15 CL   UNL     1     -12.222   3.253  -2.319  0.00  0.00    -0.083 Cl
ENDBRANCH   7   8
ENDBRANCH   6   7
ENDBRANCH   1   6
BRANCH   3  16
ATOM     16  N   UNL     1      -2.420   1.111  -0.280  0.00  0.00    -0.188 NA
ATOM     17  C   UNL     1      -1.266   1.679  -0.449  0.00  0.00    +0.138 C 
BRANCH  17  18
ATOM     18  C   UNL     1      -0.034   0.869  -0.417  0.00  0.00    -0.002 A 
ATOM     19  C   UNL     1      -0.106  -0.510  -0.204  0.00  0.00    +0.010 A 
ATOM     20  C   UNL     1       1.048  -1.264  -0.180  0.00  0.00    +0.004 A 
ATOM     21  C   UNL     1       2.279  -0.661  -0.366  0.00  0.00    +0.045 A 
ATOM     22  C   UNL     1       2.361   0.709  -0.578  0.00  0.00    +0.117 A 
ATOM     23  C   UNL     1       1.209   1.477  -0.605  0.00  0.00    +0.054 A 
BRANCH  22  24
ATOM     24  O   UNL     1       3.573   1.296  -0.761  0.00  0.00    -0.507 OA
ATOM     25  H   UNL     1       3.856   1.335  -1.685  0.00  0.00    +0.292 HD
ENDBRANCH  22  24
ENDBRANCH  17  18
ENDBRANCH   3  16
TORSDOF 6
