REMARK  Name = ZINC09878936
REMARK  7 active torsions:
REMARK  status: ('A' for Active; 'I' for Inactive)
REMARK    1  A    between atoms: C_1  and  C_2
REMARK    2  A    between atoms: C_2  and  C_4
REMARK    3  A    between atoms: C_2  and  S_16
REMARK    4  A    between atoms: S_16  and  C_17
REMARK    5  A    between atoms: C_20  and  C_28
REMARK    6  A    between atoms: N_21  and  C_22
REMARK    7  A    between atoms: C_28  and  N_58
REMARK                            x       y       z     vdW  Elec       q    Type
REMARK                         _______ _______ _______ _____ _____    ______ ____
ROOT
ATOM      1  C   UNL     1      -0.118  -4.466   0.917  0.00  0.00    +0.197 A 
ATOM      2  N   UNL     1       0.854  -5.099   0.302  0.00  0.00    -0.122 NA
ATOM      3  N   UNL     1       0.726  -6.367   0.471  0.00  0.00    -0.135 NA
ATOM      4  C   UNL     1      -0.326  -6.619   1.197  0.00  0.00    +0.122 A 
ATOM      5  N   UNL     1      -0.900  -5.416   1.513  0.00  0.00    -0.276 N 
ENDROOT
BRANCH   5   6
ATOM      6  C   UNL     1      -2.052  -5.203   2.285  0.00  0.00    +0.050 A 
ATOM      7  C   UNL     1      -2.060  -5.545   3.630  0.00  0.00    +0.026 A 
ATOM      8  C   UNL     1      -3.194  -5.329   4.389  0.00  0.00    +0.002 A 
ATOM      9  C   UNL     1      -4.324  -4.784   3.807  0.00  0.00    +0.000 A 
ATOM     10  C   UNL     1      -4.320  -4.448   2.466  0.00  0.00    +0.002 A 
ATOM     11  C   UNL     1      -3.188  -4.656   1.703  0.00  0.00    +0.026 A 
ENDBRANCH   5   6
BRANCH   1  12
ATOM     12  S   UNL     1      -0.363  -2.722   0.970  0.00  0.00    -0.075 S 
BRANCH  12  14
ATOM     13  C   UNL     1       0.889  -2.671  -1.458  0.00  0.00    +0.027 C 
ATOM     14  C   UNL     1       1.050  -2.175  -0.020  0.00  0.00    +0.117 C 
BRANCH  14  15
ATOM     15  C   UNL     1       1.117  -0.670  -0.012  0.00  0.00    +0.124 A 
ATOM     16  N   UNL     1       2.340  -0.078  -0.020  0.00  0.00    -0.309 N 
ATOM     17  H   UNL     1       3.139  -0.628  -0.031  0.00  0.00    +0.170 HD
ATOM     18  C   UNL     1       2.453   1.270  -0.014  0.00  0.00    +0.259 A 
ATOM     19  O   UNL     1       3.543   1.813  -0.021  0.00  0.00    -0.267 OA
ATOM     20  C   UNL     1       1.209   2.054   0.002  0.00  0.00    +0.065 A 
ATOM     21  C   UNL     1       1.216   3.447   0.009  0.00  0.00    +0.015 A 
ATOM     22  C   UNL     1       0.021   4.132   0.025  0.00  0.00    +0.001 A 
ATOM     23  C   UNL     1      -1.187   3.445   0.032  0.00  0.00    +0.002 A 
ATOM     24  C   UNL     1      -1.215   2.069   0.030  0.00  0.00    +0.028 A 
ATOM     25  C   UNL     1      -0.016   1.352   0.009  0.00  0.00    +0.078 A 
ATOM     26  N   UNL     1       0.002  -0.004   0.002  0.00  0.00    -0.233 NA
ENDBRANCH  14  15
ENDBRANCH  12  14
ENDBRANCH   1  12
BRANCH   4  27
ATOM     27  C   UNL     1      -0.817  -7.981   1.616  0.00  0.00    -0.001 C 
BRANCH  27  33
ATOM     28  C   UNL     1       1.248  -8.523   2.757  0.00  0.00    -0.078 C 
ATOM     29  C   UNL     1       1.872  -8.761   4.134  0.00  0.00    -0.019 C 
ATOM     30  C   UNL     1       1.248 -10.011   4.762  0.00  0.00    -0.004 C 
ATOM     31  C   UNL     1      -0.269  -9.823   4.854  0.00  0.00    -0.019 C 
ATOM     32  C   UNL     1      -0.831  -9.554   3.456  0.00  0.00    -0.078 C 
ATOM     33  N   UNL     1      -0.208  -8.326   2.917  0.00  0.00    +0.384 N 
ATOM     34  H   UNL     1      -0.369  -7.555   3.576  0.00  0.00    -0.081 HD
ENDBRANCH  27  33
ENDBRANCH   4  27
TORSDOF 6
