REMARK  Name = ZINC03344064
REMARK  9 active torsions:
REMARK  status: ('A' for Active; 'I' for Inactive)
REMARK    1  A    between atoms: C_1  and  O_2
REMARK    2  A    between atoms: O_2  and  C_3
REMARK    3  A    between atoms: C_3  and  C_5
REMARK    4  A    between atoms: C_9  and  N_10
REMARK    5  A    between atoms: C_11  and  C_13
REMARK    6  A    between atoms: C_13  and  N_53
REMARK    7  A    between atoms: C_14  and  C_15
REMARK    8  A    between atoms: C_14  and  C_21
REMARK    9  A    between atoms: C_14  and  N_53
REMARK                            x       y       z     vdW  Elec       q    Type
REMARK                         _______ _______ _______ _____ _____    ______ ____
ROOT
ATOM      1  C   UNL     1      -0.860   7.181  -1.339  0.00  0.00    +0.016 C 
ENDROOT
BRANCH   1   3
ATOM      2  N   UNL     1      -1.936   8.859  -2.803  0.00  0.00    -0.281 N 
ATOM      3  C   UNL     1      -1.983   7.639  -2.233  0.00  0.00    +0.201 C 
ATOM      4  O   UNL     1      -2.929   6.909  -2.440  0.00  0.00    -0.278 OA
ATOM      5  H   UNL     1      -1.179   9.443  -2.637  0.00  0.00    +0.155 HD
BRANCH   2  10
ATOM      6  C   UNL     1      -3.103  10.488  -4.290  0.00  0.00    +0.091 A 
ATOM      7  C   UNL     1      -4.301  10.682  -5.107  0.00  0.00    -0.021 A 
ATOM      8  C   UNL     1      -5.161   9.648  -5.114  0.00  0.00    -0.004 A 
ATOM      9  S   UNL     1      -4.409   8.427  -4.066  0.00  0.00    -0.077 S 
ATOM     10  C   UNL     1      -2.969   9.280  -3.626  0.00  0.00    +0.086 A 
ATOM     11  C   UNL     1      -6.366   9.923  -5.972  0.00  0.00    +0.043 C 
ATOM     12  C   UNL     1      -5.948  11.115  -6.861  0.00  0.00    +0.010 C 
ATOM     13  C   UNL     1      -4.871  11.793  -5.990  0.00  0.00    +0.037 C 
BRANCH   6  14
ATOM     14  C   UNL     1      -2.080  11.531  -4.183  0.00  0.00    +0.342 C 
ATOM     15  O   UNL     1      -1.156  11.561  -4.973  0.00  0.00    -0.245 OA
BRANCH  14  17
ATOM     16  C   UNL     1      -1.115  13.462  -3.160  0.00  0.00    +0.280 C 
ATOM     17  O   UNL     1      -2.164  12.459  -3.207  0.00  0.00    -0.464 OA
ENDBRANCH  14  17
ENDBRANCH   6  14
ENDBRANCH   2  10
ENDBRANCH   1   3
BRANCH   1  18
ATOM     18  N   UNL     1      -1.155   5.821  -0.849  0.00  0.00    +0.392 N 
ATOM     19  H   UNL     1      -1.245   5.185  -1.649  0.00  0.00    -0.084 HD
ATOM     20  H   UNL     1      -2.037   5.835  -0.323  0.00  0.00    -0.084 HD
BRANCH  18  21
ATOM     21  C   UNL     1      -0.070   5.347   0.031  0.00  0.00    -0.009 C 
BRANCH  21  22
ATOM     22  C   UNL     1      -0.050   3.840   0.023  0.00  0.00    -0.057 A 
ATOM     23  C   UNL     1       1.156   3.165   0.008  0.00  0.00    +0.002 A 
ATOM     24  C   UNL     1       1.175   1.783   0.000  0.00  0.00    +0.000 A 
ATOM     25  C   UNL     1      -0.013   1.076   0.008  0.00  0.00    +0.000 A 
ATOM     26  C   UNL     1      -1.219   1.751   0.017  0.00  0.00    +0.000 A 
ATOM     27  C   UNL     1      -1.238   3.133   0.030  0.00  0.00    +0.002 A 
ENDBRANCH  21  22
BRANCH  21  28
ATOM     28  C   UNL     1      -0.311   5.838   1.435  0.00  0.00    -0.057 A 
ATOM     29  C   UNL     1      -1.593   5.858   1.951  0.00  0.00    +0.002 A 
ATOM     30  C   UNL     1      -1.813   6.304   3.241  0.00  0.00    +0.000 A 
ATOM     31  C   UNL     1      -0.751   6.740   4.011  0.00  0.00    +0.000 A 
ATOM     32  C   UNL     1       0.530   6.726   3.494  0.00  0.00    +0.000 A 
ATOM     33  C   UNL     1       0.751   6.275   2.206  0.00  0.00    +0.002 A 
ENDBRANCH  21  28
ENDBRANCH  18  21
ENDBRANCH   1  18
TORSDOF 8
