REMARK  Name = ZINC14993297
REMARK  7 active torsions:
REMARK  status: ('A' for Active; 'I' for Inactive)
REMARK    1  A    between atoms: C_4  and  C_7
REMARK    2  A    between atoms: C_8  and  C_18
REMARK    3  A    between atoms: N_10  and  C_12
REMARK    4  A    between atoms: C_18  and  N_71
REMARK    5  A    between atoms: N_30  and  C_31
REMARK    6  A    between atoms: C_31  and  C_32
REMARK    7  A    between atoms: C_32  and  C_33
REMARK                            x       y       z     vdW  Elec       q    Type
REMARK                         _______ _______ _______ _____ _____    ______ ____
ROOT
ATOM      1  C   UNL     1      -2.730   3.862  -0.081  0.00  0.00    -0.077 C 
ATOM      2  C   UNL     1      -2.979   5.062  -0.999  0.00  0.00    +0.004 C 
ATOM      3  C   UNL     1      -3.172   6.309  -0.139  0.00  0.00    +0.076 C 
ATOM      4  C   UNL     1      -4.330   6.104   0.837  0.00  0.00    -0.007 C 
ATOM      5  C   UNL     1      -4.083   4.843   1.670  0.00  0.00    -0.073 C 
ATOM      6  C   UNL     1      -4.415   7.310   1.782  0.00  0.00    +0.013 C 
ATOM      7  C   UNL     1      -3.181   7.301   2.688  0.00  0.00    +0.096 C 
ATOM      8  C   UNL     1      -1.939   7.121   1.863  0.00  0.00    +0.216 C 
ATOM      9  O   UNL     1      -0.871   7.410   2.361  0.00  0.00    -0.276 OA
ATOM     10  N   UNL     1      -1.948   6.659   0.611  0.00  0.00    -0.298 N 
ATOM     11  N   UNL     1      -3.929   3.686   0.766  0.00  0.00    +0.383 N 
ATOM     12  H   UNL     1      -4.757   3.622   0.162  0.00  0.00    -0.081 HD
ENDROOT
BRANCH  11  13
ATOM     13  C   UNL     1      -3.812   2.441   1.554  0.00  0.00    -0.039 C 
BRANCH  13  15
ATOM     14  C   UNL     1      -6.177   1.393   1.294  0.00  0.00    +0.094 A 
ATOM     15  C   UNL     1      -5.182   2.050   2.046  0.00  0.00    -0.018 A 
ATOM     16  C   UNL     1      -5.675   2.268   3.284  0.00  0.00    +0.116 A 
ATOM     17  N   UNL     1      -6.938   1.769   3.325  0.00  0.00    -0.239 N 
ATOM     18  N   UNL     1      -7.231   1.232   2.065  0.00  0.00    -0.166 NA
BRANCH  14  22
ATOM     19  C   UNL     1      -5.842   0.167  -2.764  0.00  0.00    +0.000 A 
ATOM     20  C   UNL     1      -6.420  -0.678  -1.834  0.00  0.00    +0.001 A 
ATOM     21  C   UNL     1      -6.528  -0.287  -0.515  0.00  0.00    +0.010 A 
ATOM     22  C   UNL     1      -6.058   0.964  -0.122  0.00  0.00    +0.002 A 
ATOM     23  C   UNL     1      -5.472   1.810  -1.062  0.00  0.00    +0.010 A 
ATOM     24  C   UNL     1      -5.369   1.408  -2.378  0.00  0.00    +0.001 A 
ENDBRANCH  14  22
BRANCH  17  25
ATOM     25  C   UNL     1      -7.798   1.793   4.431  0.00  0.00    +0.065 A 
ATOM     26  C   UNL     1      -7.378   2.360   5.626  0.00  0.00    +0.028 A 
ATOM     27  C   UNL     1      -8.230   2.387   6.713  0.00  0.00    +0.002 A 
ATOM     28  C   UNL     1      -9.496   1.840   6.614  0.00  0.00    +0.000 A 
ATOM     29  C   UNL     1      -9.915   1.270   5.426  0.00  0.00    +0.002 A 
ATOM     30  C   UNL     1      -9.070   1.245   4.335  0.00  0.00    +0.028 A 
ENDBRANCH  17  25
ENDBRANCH  13  15
ENDBRANCH  11  13
BRANCH  10  31
ATOM     31  C   UNL     1      -0.662   6.480  -0.067  0.00  0.00    +0.112 C 
BRANCH  31  32
ATOM     32  C   UNL     1      -0.355   7.717  -0.913  0.00  0.00    +0.054 C 
BRANCH  32  33
ATOM     33  C   UNL     1       0.907   7.485  -1.704  0.00  0.00    -0.043 A 
ATOM     34  C   UNL     1       0.838   6.923  -2.966  0.00  0.00    +0.004 A 
ATOM     35  C   UNL     1       1.994   6.710  -3.692  0.00  0.00    +0.003 A 
ATOM     36  C   UNL     1       3.221   7.056  -3.158  0.00  0.00    +0.038 A 
ATOM     37  C   UNL     1       3.291   7.619  -1.895  0.00  0.00    +0.124 A 
ATOM     38  C   UNL     1       2.131   7.838  -1.170  0.00  0.00    +0.042 A 
ATOM     39  F   UNL     1       4.489   7.958  -1.372  0.00  0.00    -0.205 F 
ENDBRANCH  32  33
ENDBRANCH  31  32
ENDBRANCH  10  31
TORSDOF 7
