REMARK  Name = ZINC43746934
REMARK  14 active torsions:
REMARK  status: ('A' for Active; 'I' for Inactive)
REMARK    1  A    between atoms: C_1  and  C_2
REMARK    2  A    between atoms: C_2  and  C_4
REMARK    3  A    between atoms: C_4  and  O_41
REMARK    4  A    between atoms: C_9  and  C_40
REMARK    5  A    between atoms: N_21  and  O_22
REMARK    6  A    between atoms: O_22  and  C_23
REMARK    7  A    between atoms: C_23  and  C_24
REMARK    8  A    between atoms: N_26  and  CA_27
REMARK    9  A    between atoms: CA_27  and  CB_29
REMARK   10  A    between atoms: CA_27  and  C_33
REMARK   11  A    between atoms: CB_29  and  CG_30
REMARK   12  A    between atoms: CG_30  and  SD_31
REMARK   13  A    between atoms: SD_31  and  CE_32
REMARK   14  A    between atoms: C_38  and  C_39
REMARK                            x       y       z     vdW  Elec       q    Type
REMARK                         _______ _______ _______ _____ _____    ______ ____
ROOT
ATOM      1  C   UNK A   0      -0.185  -0.882  -1.377  0.00  0.00    +0.129 C 
ATOM      2  C   UNK A   0      -1.533  -1.482  -1.850  0.00  0.00    +0.043 C 
ATOM      3  C   UNK A   0      -1.311  -3.014  -1.972  0.00  0.00    +0.008 C 
ATOM      4  C   UNK A   0       0.204  -3.127  -2.174  0.00  0.00    +0.002 C 
ATOM      5  C   UNK A   0       0.735  -2.079  -1.159  0.00  0.00    +0.007 C 
ATOM      6  C   UNK A   0       2.205  -1.865  -1.464  0.00  0.00    +0.010 C 
ATOM      7  C   UNK A   0       2.926  -3.193  -1.183  0.00  0.00    +0.005 C 
ATOM      8  C   UNK A   0       2.342  -4.336  -2.009  0.00  0.00    +0.002 C 
ATOM      9  C   UNK A   0       0.820  -4.468  -1.821  0.00  0.00    -0.003 C 
ATOM     10  C   UNK A   0       0.261  -5.559  -2.735  0.00  0.00    +0.008 C 
ATOM     11  C   UNK A   0       0.865  -6.917  -2.360  0.00  0.00    +0.031 C 
ATOM     12  C   UNK A   0       2.377  -6.779  -2.417  0.00  0.00    -0.062 C 
ATOM     13  C   UNK A   0       3.069  -7.635  -3.156  0.00  0.00    +0.026 C 
ATOM     14  C   UNK A   0       4.535  -7.478  -3.249  0.00  0.00    +0.080 C 
ATOM     15  N   UNK A   0       5.316  -8.475  -3.519  0.00  0.00    -0.089 NA
ATOM     16  C   UNK A   0       5.069  -6.078  -3.009  0.00  0.00    +0.059 C 
ATOM     17  C   UNK A   0       4.501  -5.590  -1.677  0.00  0.00    +0.017 C 
ATOM     18  C   UNK A   0       3.001  -5.653  -1.599  0.00  0.00    -0.007 C 
ATOM     19  C   UNK A   0       2.636  -5.880  -0.131  0.00  0.00    +0.016 C 
ATOM     20  C   UNK A   0       0.569  -2.607   0.267  0.00  0.00    +0.015 C 
ENDROOT
BRANCH   1  22
ATOM     21  C   UNK A   0       0.628   0.920   0.327  0.00  0.00    +0.089 C 
ATOM     22  C   UNK A   0      -0.374  -0.127  -0.087  0.00  0.00    +0.162 C 
ATOM     23  O   UNK A   0      -1.329  -0.360   0.615  0.00  0.00    -0.295 OA
ENDBRANCH   1  22
BRANCH   1  24
ATOM     24  O   UNK A   0       0.354  -0.019  -2.381  0.00  0.00    -0.381 OA
ATOM     25  H   UNK A   0      -0.199   0.750  -2.577  0.00  0.00    +0.211 HD
ENDBRANCH   1  24
BRANCH  15  26
ATOM     26  O   UNK A   0       6.716  -8.276  -3.597  0.00  0.00    -0.384 OA
BRANCH  26  27
ATOM     27  C   UNK A   0       7.455  -9.461  -3.902  0.00  0.00    +0.358 C 
BRANCH  27  28
ATOM     28  C   UNK A   0       8.925  -9.134  -3.961  0.00  0.00    +0.254 C 
ATOM     29  O   UNK A   0       9.303  -7.999  -3.761  0.00  0.00    -0.272 OA
ATOM     30  N   MET A   1       9.820 -10.104  -4.235  0.00  0.00    -0.299 N 
ATOM     31  H   MET A   1       9.518 -11.011  -4.394  0.00  0.00    +0.150 HD
BRANCH  30  32
ATOM     32  CA  MET A   1      11.249  -9.786  -4.292  0.00  0.00    +0.187 C 
BRANCH  32  33
ATOM     33  C   MET A   1      11.597  -9.277  -5.667  0.00  0.00    +0.376 C 
ATOM     34  O   MET A   1      12.505  -8.477  -5.809  0.00  0.00    -0.244 OA
ATOM     35  OXT MET A   1      10.969  -9.665  -6.637  0.00  0.00    -0.244 OA
ENDBRANCH  32  33
BRANCH  32  36
ATOM     36  CB  MET A   1      12.064 -11.047  -3.994  0.00  0.00    +0.044 C 
BRANCH  36  37
ATOM     37  CG  MET A   1      11.806 -11.493  -2.554  0.00  0.00    +0.071 C 
BRANCH  37  38
ATOM     38  SD  MET A   1      12.771 -12.987  -2.200  0.00  0.00    -0.164 S 
ATOM     39  CE  MET A   1      12.358 -13.380  -0.478  0.00  0.00    +0.084 C 
ENDBRANCH  37  38
ENDBRANCH  36  37
ENDBRANCH  32  36
ENDBRANCH  30  32
ENDBRANCH  27  28
ENDBRANCH  26  27
ENDBRANCH  15  26
TORSDOF 10
