REMARK  Name = ZINC09869958
REMARK  10 active torsions:
REMARK  status: ('A' for Active; 'I' for Inactive)
REMARK    1  A    between atoms: C_1  and  C_2
REMARK    2  A    between atoms: C_2  and  C_3
REMARK    3  A    between atoms: C_4  and  C_29
REMARK    4  A    between atoms: C_6  and  N_13
REMARK    5  A    between atoms: C_7  and  C_8
REMARK    6  A    between atoms: C_8  and  O_10
REMARK    7  A    between atoms: O_10  and  C_11
REMARK    8  A    between atoms: C_11  and  C_12
REMARK    9  A    between atoms: C_14  and  C_16
REMARK   10  A    between atoms: C_16  and  C_17
REMARK                            x       y       z     vdW  Elec       q    Type
REMARK                         _______ _______ _______ _____ _____    ______ ____
ROOT
ATOM      1  N   UNL     1      -3.680   5.096   3.804  0.00  0.00    -0.279 N 
ATOM      2  C   UNL     1      -3.706   4.735   2.506  0.00  0.00    +0.220 C 
ATOM      3  O   UNL     1      -3.848   5.578   1.645  0.00  0.00    -0.275 OA
ATOM      4  H   UNL     1      -3.567   4.423   4.493  0.00  0.00    +0.155 HD
ENDROOT
BRANCH   1   8
ATOM      5  C   UNL     1      -3.974   8.426   5.503  0.00  0.00    -0.022 A 
ATOM      6  C   UNL     1      -4.112   9.091   4.341  0.00  0.00    -0.008 A 
ATOM      7  S   UNL     1      -4.027   7.800   3.118  0.00  0.00    -0.078 S 
ATOM      8  C   UNL     1      -3.815   6.430   4.156  0.00  0.00    +0.086 A 
ATOM      9  C   UNL     1      -3.819   6.993   5.428  0.00  0.00    +0.091 A 
ATOM     10  C   UNL     1      -4.294  10.571   4.127  0.00  0.00    +0.052 C 
BRANCH   5  12
ATOM     11  C   UNL     1      -5.423   9.226   7.349  0.00  0.00    +0.009 C 
ATOM     12  C   UNL     1      -3.988   9.147   6.826  0.00  0.00    +0.033 C 
ENDBRANCH   5  12
BRANCH   9  13
ATOM     13  C   UNL     1      -3.670   6.172   6.631  0.00  0.00    +0.342 C 
ATOM     14  O   UNL     1      -2.562   5.951   7.082  0.00  0.00    -0.245 OA
BRANCH  13  15
ATOM     15  O   UNL     1      -4.760   5.662   7.240  0.00  0.00    -0.461 OA
BRANCH  15  16
ATOM     16  C   UNL     1      -4.536   4.858   8.428  0.00  0.00    +0.229 C 
ATOM     17  C   UNL     1      -5.879   4.370   8.974  0.00  0.00    +0.048 C 
ENDBRANCH  15  16
ENDBRANCH  13  15
ENDBRANCH   9  13
ENDBRANCH   1   8
BRANCH   2  18
ATOM     18  C   UNL     1      -3.559   3.285   2.124  0.00  0.00    +0.127 C 
BRANCH  18  19
ATOM     19  C   UNL     1      -3.623   3.150   0.602  0.00  0.00    +0.166 C 
ATOM     20  C   UNL     1      -3.599   1.690   0.223  0.00  0.00    +0.238 C 
ATOM     21  O   UNL     1      -4.644   1.085   0.103  0.00  0.00    -0.273 OA
ATOM     22  N   UNL     1      -2.433   1.052   0.018  0.00  0.00    -0.282 N 
ATOM     23  C   UNL     1      -1.221   1.753   0.017  0.00  0.00    +0.055 A 
ATOM     24  C   UNL     1      -0.013   1.076   0.008  0.00  0.00    +0.025 A 
ATOM     25  C   UNL     1       1.175   1.784   0.000  0.00  0.00    +0.002 A 
ATOM     26  C   UNL     1       1.163   3.167   0.007  0.00  0.00    +0.002 A 
ATOM     27  C   UNL     1      -0.038   3.852   0.017  0.00  0.00    +0.025 A 
ATOM     28  C   UNL     1      -1.230   3.149   0.020  0.00  0.00    +0.049 A 
ATOM     29  N   UNL     1      -2.462   3.819   0.007  0.00  0.00    -0.331 N 
ATOM     30  H   UNL     1      -2.431   0.094  -0.130  0.00  0.00    +0.155 HD
ATOM     31  H   UNL     1      -2.547   4.699  -0.392  0.00  0.00    +0.147 HD
ENDBRANCH  18  19
ENDBRANCH   2  18
TORSDOF 7
