REMARK  Name = ZINC12131704
REMARK  9 active torsions:
REMARK  status: ('A' for Active; 'I' for Inactive)
REMARK    1  A    between atoms: C_1  and  O_2
REMARK    2  A    between atoms: O_2  and  C_3
REMARK    3  A    between atoms: C_6  and  C_11
REMARK    4  A    between atoms: C_7  and  O_9
REMARK    5  A    between atoms: O_9  and  C_10
REMARK    6  A    between atoms: N_13  and  C_14
REMARK    7  A    between atoms: C_14  and  C_15
REMARK    8  A    between atoms: C_15  and  N_56
REMARK    9  A    between atoms: C_24  and  C_27
REMARK                            x       y       z     vdW  Elec       q    Type
REMARK                         _______ _______ _______ _____ _____    ______ ____
ROOT
ATOM      1  C   UNL     1      -1.661  -8.954   1.224  0.00  0.00    -0.039 C 
ATOM      2  C   UNL     1      -0.947 -10.260   0.931  0.00  0.00    -0.022 A 
ATOM      3  C   UNL     1       0.429 -10.330   1.004  0.00  0.00    +0.005 A 
ATOM      4  C   UNL     1       1.067 -11.532   0.752  0.00  0.00    +0.000 A 
ATOM      5  C   UNL     1       0.329 -12.656   0.432  0.00  0.00    +0.004 A 
ATOM      6  C   UNL     1      -1.049 -12.584   0.353  0.00  0.00    +0.046 A 
ATOM      7  C   UNL     1      -1.689 -11.377   0.596  0.00  0.00    +0.123 A 
ATOM      8  O   UNL     1      -3.041 -11.283   0.472  0.00  0.00    -0.486 OA
ATOM      9  C   UNL     1      -3.502 -10.513  -0.645  0.00  0.00    +0.188 C 
ATOM     10  C   UNL     1      -3.562  -9.042  -0.294  0.00  0.00    -0.028 C 
ATOM     11  N   UNL     1      -2.229  -8.453  -0.050  0.00  0.00    +0.386 N 
ATOM     12  H   UNL     1      -1.604  -8.722  -0.819  0.00  0.00    -0.081 HD
ENDROOT
BRANCH   9  13
ATOM     13  C   UNL     1      -4.878 -10.985  -1.038  0.00  0.00    -0.002 A 
ATOM     14  C   UNL     1      -5.228 -11.095  -2.371  0.00  0.00    +0.015 A 
ATOM     15  C   UNL     1      -6.473 -11.523  -2.691  0.00  0.00    +0.045 A 
ATOM     16  S   UNL     1      -7.198 -11.786  -1.081  0.00  0.00    -0.105 S 
ATOM     17  C   UNL     1      -5.790 -11.313  -0.091  0.00  0.00    +0.052 A 
ENDBRANCH   9  13
BRANCH  11  18
ATOM     18  C   UNL     1      -2.331  -6.985  -0.011  0.00  0.00    -0.059 C 
BRANCH  18  19
ATOM     19  C   UNL     1      -0.917  -6.401  -0.022  0.00  0.00    +0.086 C 
BRANCH  19  22
ATOM     20  C   UNL     1       0.139  -4.205  -0.021  0.00  0.00    +0.249 C 
ATOM     21  O   UNL     1       1.222  -4.758  -0.035  0.00  0.00    -0.270 OA
ATOM     22  N   UNL     1      -0.992  -4.938  -0.014  0.00  0.00    -0.313 N 
ATOM     23  H   UNL     1      -1.856  -4.497  -0.003  0.00  0.00    +0.149 HD
BRANCH  20  27
ATOM     24  C   UNL     1       0.002  -0.004   0.002  0.00  0.00    +0.218 A 
ATOM     25  C   UNL     1      -1.200  -0.705   0.010  0.00  0.00    +0.068 A 
ATOM     26  C   UNL     1      -1.180  -2.084   0.002  0.00  0.00    +0.023 A 
ATOM     27  C   UNL     1       0.063  -2.734  -0.013  0.00  0.00    +0.098 A 
ATOM     28  C   UNL     1       1.233  -1.960  -0.020  0.00  0.00    +0.230 A 
ATOM     29  N   UNL     1       1.163  -0.639  -0.018  0.00  0.00    -0.177 NA
BRANCH  24  31
ATOM     30  C   UNL     1       1.248   2.017   0.001  0.00  0.00    +0.279 C 
ATOM     31  O   UNL     1      -0.016   1.351   0.009  0.00  0.00    -0.480 OA
ENDBRANCH  24  31
BRANCH  28  32
ATOM     32  O   UNL     1       2.442  -2.569  -0.035  0.00  0.00    -0.479 OA
ATOM     33  C   UNL     1       3.594  -1.724  -0.041  0.00  0.00    +0.279 C 
ENDBRANCH  28  32
ENDBRANCH  20  27
ENDBRANCH  19  22
ENDBRANCH  18  19
ENDBRANCH  11  18
TORSDOF 7
