REMARK  Name = ZINC12281201
REMARK  10 active torsions:
REMARK  status: ('A' for Active; 'I' for Inactive)
REMARK    1  A    between atoms: C_1  and  C_2
REMARK    2  A    between atoms: C_2  and  C_3
REMARK    3  A    between atoms: C_2  and  C_4
REMARK    4  A    between atoms: N_6  and  C_7
REMARK    5  A    between atoms: C_7  and  C_9
REMARK    6  A    between atoms: C_7  and  C_10
REMARK    7  A    between atoms: C_19  and  C_20
REMARK    8  A    between atoms: C_19  and  N_62
REMARK    9  A    between atoms: C_23  and  O_30
REMARK   10  A    between atoms: O_30  and  C_31
REMARK                            x       y       z     vdW  Elec       q    Type
REMARK                         _______ _______ _______ _____ _____    ______ ____
ROOT
ATOM      1  C   UNL     1      -7.257  -0.312  -2.017  0.00  0.00    +0.154 A 
ATOM      2  N   UNL     1      -7.439  -0.897  -3.171  0.00  0.00    -0.132 NA
ATOM      3  N   UNL     1      -6.317  -0.980  -3.799  0.00  0.00    -0.134 NA
ATOM      4  C   UNL     1      -5.375  -0.446  -3.077  0.00  0.00    +0.132 A 
ATOM      5  N   UNL     1      -5.942  -0.024  -1.920  0.00  0.00    -0.315 N 
ATOM      6  C   UNL     1      -5.242   0.597  -0.796  0.00  0.00    +0.106 C 
ATOM      7  C   UNL     1      -3.997   1.323  -1.317  0.00  0.00    -0.056 C 
ATOM      8  C   UNL     1      -3.075  -0.738  -2.224  0.00  0.00    -0.071 C 
ATOM      9  C   UNL     1      -3.917  -0.299  -3.426  0.00  0.00    +0.058 C 
ATOM     10  N   UNL     1      -2.823   0.421  -1.340  0.00  0.00    +0.384 N 
ATOM     11  H   UNL     1      -2.014   0.941  -1.699  0.00  0.00    -0.081 HD
ENDROOT
BRANCH   1  12
ATOM     12  C   UNL     1      -8.317  -0.015  -0.988  0.00  0.00    +0.138 C 
ATOM     13  C   UNL     1      -9.162   1.173  -1.454  0.00  0.00    +0.036 C 
BRANCH  12  16
ATOM     14  C   UNL     1      -9.842  -1.375   0.339  0.00  0.00    +0.216 C 
ATOM     15  O   UNL     1      -9.731  -0.570   1.239  0.00  0.00    -0.276 OA
ATOM     16  N   UNL     1      -9.176  -1.189  -0.818  0.00  0.00    -0.306 N 
ATOM     17  H   UNL     1      -9.265  -1.833  -1.538  0.00  0.00    +0.149 HD
BRANCH  14  19
ATOM     18  C   UNL     1     -11.361  -2.553   1.906  0.00  0.00    +0.017 C 
ATOM     19  C   UNL     1     -10.726  -2.583   0.514  0.00  0.00    +0.069 C 
ATOM     20  C   UNL     1     -11.827  -2.567  -0.549  0.00  0.00    +0.017 C 
ENDBRANCH  14  19
ENDBRANCH  12  16
ENDBRANCH   1  12
BRANCH  10  21
ATOM     21  C   UNL     1      -2.522  -0.046   0.025  0.00  0.00    -0.042 C 
BRANCH  21  22
ATOM     22  C   UNL     1      -1.189  -0.750   0.009  0.00  0.00    -0.056 A 
ATOM     23  C   UNL     1      -1.135  -2.111   0.002  0.00  0.00    +0.006 A 
ATOM     24  C   UNL     1       0.085  -2.780  -0.014  0.00  0.00    +0.046 A 
ATOM     25  C   UNL     1       1.265  -2.091  -0.021  0.00  0.00    +0.128 A 
ATOM     26  C   UNL     1       1.247  -0.681  -0.013  0.00  0.00    +0.024 A 
ATOM     27  C   UNL     1       0.002  -0.004   0.002  0.00  0.00    -0.013 A 
ATOM     28  C   UNL     1      -0.017   1.401   0.010  0.00  0.00    +0.009 A 
ATOM     29  C   UNL     1       1.157   2.091   0.002  0.00  0.00    +0.001 A 
ATOM     30  C   UNL     1       2.380   1.424  -0.014  0.00  0.00    +0.001 A 
ATOM     31  C   UNL     1       2.437   0.064  -0.021  0.00  0.00    +0.012 A 
BRANCH  25  32
ATOM     32  O   UNL     1       2.447  -2.759  -0.036  0.00  0.00    -0.495 OA
ATOM     33  C   UNL     1       2.386  -4.187  -0.043  0.00  0.00    +0.277 C 
ENDBRANCH  25  32
ENDBRANCH  21  22
ENDBRANCH  10  21
TORSDOF 6
