REMARK  Name = ZINC40010987
REMARK  13 active torsions:
REMARK  status: ('A' for Active; 'I' for Inactive)
REMARK    1  A    between atoms: C_1  and  C_2
REMARK    2  A    between atoms: C_6  and  C_15
REMARK    3  A    between atoms: C_13  and  C_14
REMARK    4  A    between atoms: C_19  and  O_35
REMARK    5  A    between atoms: C_20  and  O_33
REMARK    6  A    between atoms: N_25  and  C_26
REMARK    7  A    between atoms: C_26  and  N_28
REMARK    8  A    between atoms: N_28  and  C_29
REMARK    9  A    between atoms: C_29  and  C_30
REMARK   10  A    between atoms: C_30  and  O_31
REMARK   11  A    between atoms: O_31  and  C_32
REMARK   12  A    between atoms: O_33  and  C_34
REMARK   13  A    between atoms: O_35  and  C_36
REMARK                            x       y       z     vdW  Elec       q    Type
REMARK                         _______ _______ _______ _____ _____    ______ ____
ROOT
ATOM      1  C   UNL     1       1.286  -4.944  -2.868  0.00  0.00    +0.121 C 
ATOM      2  C   UNL     1       1.470  -6.440  -2.794  0.00  0.00    -0.019 A 
ATOM      3  C   UNL     1       0.350  -7.239  -2.983  0.00  0.00    +0.055 A 
ATOM      4  C   UNL     1       0.454  -8.616  -2.938  0.00  0.00    +0.162 A 
ATOM      5  C   UNL     1       1.694  -9.204  -2.702  0.00  0.00    +0.162 A 
ATOM      6  C   UNL     1       2.805  -8.405  -2.510  0.00  0.00    +0.053 A 
ATOM      7  C   UNL     1       2.695  -7.019  -2.550  0.00  0.00    -0.037 A 
ATOM      8  C   UNL     1       3.945  -6.215  -2.304  0.00  0.00    +0.054 C 
ATOM      9  C   UNL     1       3.791  -4.793  -2.841  0.00  0.00    +0.112 C 
ATOM     10  N   UNL     1       2.495  -4.273  -2.378  0.00  0.00    -0.304 N 
ENDROOT
BRANCH   1  16
ATOM     11  C   UNL     1      -0.600  -7.078   3.682  0.00  0.00    +0.044 C 
ATOM     12  C   UNL     1      -0.882  -6.766   2.235  0.00  0.00    -0.047 A 
ATOM     13  C   UNL     1      -0.058  -5.920   1.565  0.00  0.00    +0.013 A 
ATOM     14  C   UNL     1      -0.341  -5.626   0.159  0.00  0.00    -0.007 A 
ATOM     15  C   UNL     1       0.459  -4.783  -0.554  0.00  0.00    -0.003 C 
ATOM     16  C   UNL     1       0.091  -4.536  -2.003  0.00  0.00    +0.123 C 
ATOM     17  C   UNL     1      -1.132  -5.243  -2.540  0.00  0.00    +0.226 C 
ATOM     18  O   UNL     1      -1.473  -5.081  -3.697  0.00  0.00    -0.275 OA
ATOM     19  N   UNL     1      -1.830  -6.040  -1.748  0.00  0.00    -0.284 N 
ATOM     20  C   UNL     1      -1.510  -6.260  -0.473  0.00  0.00    +0.041 A 
ATOM     21  C   UNL     1      -2.300  -7.121   0.311  0.00  0.00    +0.027 A 
ATOM     22  C   UNL     1      -1.980  -7.358   1.611  0.00  0.00    -0.046 A 
ATOM     23  C   UNL     1      -2.850  -8.292   2.411  0.00  0.00    +0.044 C 
ATOM     24  H   UNL     1      -2.612  -6.484  -2.112  0.00  0.00    +0.155 HD
ENDBRANCH   1  16
BRANCH  10  25
ATOM     25  C   UNL     1       2.421  -3.222  -1.538  0.00  0.00    +0.133 C 
ATOM     26  S   UNL     1       0.894  -2.604  -1.071  0.00  0.00    -0.019 S 
BRANCH  25  27
ATOM     27  N   UNL     1       3.550  -2.656  -1.066  0.00  0.00    -0.324 N 
ATOM     28  H   UNL     1       4.414  -2.958  -1.386  0.00  0.00    +0.148 HD
BRANCH  27  29
ATOM     29  C   UNL     1       3.471  -1.585  -0.069  0.00  0.00    +0.131 C 
BRANCH  29  30
ATOM     30  C   UNL     1       4.883  -1.123   0.295  0.00  0.00    +0.178 C 
BRANCH  30  31
ATOM     31  O   UNL     1       5.499  -0.529  -0.849  0.00  0.00    -0.381 OA
ATOM     32  C   UNL     1       6.829  -0.060  -0.616  0.00  0.00    +0.194 C 
ENDBRANCH  30  31
ENDBRANCH  29  30
ENDBRANCH  27  29
ENDBRANCH  25  27
ENDBRANCH  10  25
BRANCH   5  33
ATOM     33  O   UNL     1       1.811 -10.559  -2.660  0.00  0.00    -0.491 OA
ATOM     34  C   UNL     1       3.115 -11.089  -2.413  0.00  0.00    +0.277 C 
ENDBRANCH   5  33
BRANCH   4  35
ATOM     35  O   UNL     1      -0.647  -9.392  -3.123  0.00  0.00    -0.491 OA
ATOM     36  C   UNL     1      -1.884  -8.717  -3.360  0.00  0.00    +0.277 C 
ENDBRANCH   4  35
TORSDOF 8
