REMARK  Name = ZINC22474180
REMARK  12 active torsions:
REMARK  status: ('A' for Active; 'I' for Inactive)
REMARK    1  A    between atoms: C_1  and  C_2
REMARK    2  A    between atoms: C_2  and  O_3
REMARK    3  A    between atoms: O_3  and  C_4
REMARK    4  A    between atoms: C_4  and  C_6
REMARK    5  A    between atoms: C_10  and  N_11
REMARK    6  A    between atoms: C_12  and  C_14
REMARK    7  A    between atoms: C_14  and  C_16
REMARK    8  A    between atoms: C_14  and  O_17
REMARK    9  A    between atoms: O_17  and  C_18
REMARK   10  A    between atoms: C_18  and  C_20
REMARK   11  A    between atoms: C_20  and  N_21
REMARK   12  A    between atoms: C_33  and  C_37
REMARK                            x       y       z     vdW  Elec       q    Type
REMARK                         _______ _______ _______ _____ _____    ______ ____
ROOT
ATOM      1  N   UNL     1       2.223   4.103  -0.920  0.00  0.00    -0.276 N 
ATOM      2  C   UNL     1       1.133   3.341  -0.701  0.00  0.00    +0.258 C 
ATOM      3  O   UNL     1       0.042   3.724  -1.070  0.00  0.00    -0.271 OA
ATOM      4  H   UNL     1       3.212   3.756  -0.585  0.00  0.00    +0.155 HD
ENDROOT
BRANCH   1   9
ATOM      5  C   UNL     1       3.093   6.242  -1.873  0.00  0.00    +0.091 A 
ATOM      6  C   UNL     1       2.693   7.457  -2.565  0.00  0.00    -0.021 A 
ATOM      7  C   UNL     1       1.373   7.561  -2.827  0.00  0.00    -0.004 A 
ATOM      8  S   UNL     1       0.662   6.075  -2.178  0.00  0.00    -0.077 S 
ATOM      9  C   UNL     1       2.098   5.323  -1.565  0.00  0.00    +0.086 A 
ATOM     10  C   UNL     1       0.675   8.694  -3.516  0.00  0.00    +0.046 C 
ATOM     11  C   UNL     1       1.628   9.898  -3.553  0.00  0.00    -0.009 C 
ATOM     12  C   UNL     1       3.000   9.426  -4.044  0.00  0.00    +0.008 C 
ATOM     13  C   UNL     1       3.664   8.556  -2.975  0.00  0.00    +0.037 C 
ATOM     14  C   UNL     1       1.076  10.960  -4.506  0.00  0.00    +0.008 C 
BRANCH   5  15
ATOM     15  C   UNL     1       4.492   5.995  -1.518  0.00  0.00    +0.342 C 
ATOM     16  O   UNL     1       5.225   5.418  -2.299  0.00  0.00    -0.245 OA
BRANCH  15  17
ATOM     17  O   UNL     1       4.968   6.408  -0.325  0.00  0.00    -0.461 OA
BRANCH  17  19
ATOM     18  C   UNL     1       6.719   6.668   1.347  0.00  0.00    +0.048 C 
ATOM     19  C   UNL     1       6.364   6.129  -0.041  0.00  0.00    +0.229 C 
ENDBRANCH  17  19
ENDBRANCH  15  17
ENDBRANCH   5  15
ENDBRANCH   1   9
BRANCH   2  20
ATOM     20  C   UNL     1       1.268   2.015   0.001  0.00  0.00    +0.259 C 
ATOM     21  C   UNL     1       1.734   2.245   1.440  0.00  0.00    +0.062 C 
BRANCH  20  22
ATOM     22  O   UNL     1      -0.016   1.338   0.009  0.00  0.00    -0.451 OA
BRANCH  22  23
ATOM     23  C   UNL     1       0.002  -0.004   0.002  0.00  0.00    +0.328 C 
ATOM     24  O   UNL     1       1.056  -0.594  -0.011  0.00  0.00    -0.249 OA
BRANCH  23  25
ATOM     25  C   UNL     1      -1.293  -0.775   0.010  0.00  0.00    +0.246 C 
BRANCH  25  26
ATOM     26  N   UNL     1      -1.005  -2.212  -0.000  0.00  0.00    -0.295 N 
ATOM     27  C   UNL     1      -0.857  -2.906   1.184  0.00  0.00    +0.071 A 
ATOM     28  C   UNL     1      -0.978  -2.248   2.404  0.00  0.00    +0.028 A 
ATOM     29  C   UNL     1      -0.828  -2.951   3.580  0.00  0.00    +0.002 A 
ATOM     30  C   UNL     1      -0.556  -4.313   3.557  0.00  0.00    +0.002 A 
ATOM     31  C   UNL     1      -0.433  -4.978   2.373  0.00  0.00    +0.030 A 
ATOM     32  C   UNL     1      -0.581  -4.286   1.161  0.00  0.00    +0.088 A 
ATOM     33  N   UNL     1      -0.461  -4.940  -0.010  0.00  0.00    -0.248 NA
ATOM     34  C   UNL     1      -0.595  -4.317  -1.145  0.00  0.00    +0.181 A 
ATOM     35  C   UNL     1      -0.888  -2.880  -1.169  0.00  0.00    +0.270 A 
ATOM     36  O   UNL     1      -1.018  -2.295  -2.229  0.00  0.00    -0.266 OA
ENDBRANCH  25  26
ENDBRANCH  23  25
ENDBRANCH  22  23
ENDBRANCH  20  22
ENDBRANCH   2  20
TORSDOF 9
