REMARK  Name = ZINC33402186
REMARK  8 active torsions:
REMARK  status: ('A' for Active; 'I' for Inactive)
REMARK    1  A    between atoms: C_1  and  C_2
REMARK    2  A    between atoms: C_2  and  C_3
REMARK    3  A    between atoms: C_3  and  N_4
REMARK    4  A    between atoms: C_8  and  C_9
REMARK    5  A    between atoms: C_10  and  N_21
REMARK    6  A    between atoms: C_13  and  C_20
REMARK    7  A    between atoms: N_24  and  C_27
REMARK    8  A    between atoms: C_27  and  C_28
REMARK                            x       y       z     vdW  Elec       q    Type
REMARK                         _______ _______ _______ _____ _____    ______ ____
ROOT
ATOM      1  C   UNL     1       4.633  -3.597  -5.786  0.00  0.00    +0.081 A 
ATOM      2  C   UNL     1       5.411  -2.753  -4.959  0.00  0.00    +0.136 A 
ATOM      3  N   UNL     1       6.485  -2.158  -5.459  0.00  0.00    -0.213 NA
ATOM      4  C   UNL     1       6.853  -2.330  -6.729  0.00  0.00    +0.145 A 
ATOM      5  C   UNL     1       8.002  -1.672  -7.203  0.00  0.00    -0.007 A 
ATOM      6  C   UNL     1       8.386  -1.842  -8.500  0.00  0.00    +0.008 A 
ATOM      7  C   UNL     1       7.631  -2.670  -9.342  0.00  0.00    +0.019 A 
ATOM      8  C   UNL     1       6.529  -3.293  -8.869  0.00  0.00    +0.096 A 
ATOM      9  N   UNL     1       6.136  -3.130  -7.574  0.00  0.00    -0.267 N 
ATOM     10  C   UNL     1       5.030  -3.768  -7.134  0.00  0.00    +0.267 A 
ATOM     11  O   UNL     1       4.388  -4.483  -7.883  0.00  0.00    -0.267 OA
ATOM     12  C   UNL     1       8.803  -0.786  -6.284  0.00  0.00    +0.047 C 
ENDROOT
BRANCH   1  17
ATOM     13  N   UNL     1       4.240  -7.834  -5.224  0.00  0.00    -0.255 N 
ATOM     14  C   UNL     1       4.510  -6.552  -5.397  0.00  0.00    +0.258 C 
ATOM     15  O   UNL     1       5.620  -6.186  -5.741  0.00  0.00    -0.269 OA
ATOM     16  C   UNL     1       3.466  -5.610  -5.172  0.00  0.00    +0.077 C 
ATOM     17  C   UNL     1       3.485  -4.250  -5.280  0.00  0.00    +0.037 C 
ATOM     18  S   UNL     1       2.124  -6.694  -4.702  0.00  0.00    -0.061 S 
ATOM     19  C   UNL     1       3.008  -8.240  -4.844  0.00  0.00    +0.121 C 
ATOM     20  S   UNL     1       2.441  -9.831  -4.563  0.00  0.00    -0.027 S 
BRANCH  13  21
ATOM     21  C   UNL     1       5.292  -8.829  -5.448  0.00  0.00    +0.115 C 
BRANCH  21  23
ATOM     22  C   UNL     1       7.149 -10.112  -4.376  0.00  0.00    +0.005 C 
ATOM     23  C   UNL     1       6.051  -9.072  -4.142  0.00  0.00    +0.016 C 
ENDBRANCH  21  23
ENDBRANCH  13  21
ENDBRANCH   1  17
BRANCH   2  24
ATOM     24  N   UNL     1       5.058  -2.555  -3.642  0.00  0.00    -0.312 N 
ATOM     25  C   UNL     1       5.801  -3.462  -2.756  0.00  0.00    +0.122 C 
ATOM     26  C   UNL     1       5.324  -3.267  -1.315  0.00  0.00    +0.103 C 
ATOM     27  N   UNL     1       5.527  -1.867  -0.920  0.00  0.00    -0.295 NA
ATOM     28  C   UNL     1       4.785  -0.959  -1.806  0.00  0.00    +0.103 C 
ATOM     29  C   UNL     1       5.262  -1.154  -3.247  0.00  0.00    +0.122 C 
BRANCH  27  30
ATOM     30  C   UNL     1       5.151  -1.656   0.484  0.00  0.00    +0.119 C 
BRANCH  30  31
ATOM     31  C   UNL     1       5.598  -0.285   0.924  0.00  0.00    -0.033 A 
ATOM     32  C   UNL     1       4.752   0.798   0.776  0.00  0.00    +0.005 A 
ATOM     33  C   UNL     1       5.162   2.055   1.179  0.00  0.00    +0.000 A 
ATOM     34  C   UNL     1       6.418   2.229   1.731  0.00  0.00    +0.000 A 
ATOM     35  C   UNL     1       7.263   1.145   1.879  0.00  0.00    +0.000 A 
ATOM     36  C   UNL     1       6.853  -0.112   1.476  0.00  0.00    +0.005 A 
ENDBRANCH  30  31
ENDBRANCH  27  30
ENDBRANCH   2  24
TORSDOF 6
