REMARK  Name = ZINC17889541
REMARK  8 active torsions:
REMARK  status: ('A' for Active; 'I' for Inactive)
REMARK    1  A    between atoms: C_1  and  C_2
REMARK    2  A    between atoms: N_4  and  C_5
REMARK    3  A    between atoms: C_14  and  C_17
REMARK    4  A    between atoms: C_17  and  O_19
REMARK    5  A    between atoms: O_19  and  C_20
REMARK    6  A    between atoms: C_20  and  C_21
REMARK    7  A    between atoms: N_23  and  C_24
REMARK    8  A    between atoms: C_25  and  C_34
REMARK                            x       y       z     vdW  Elec       q    Type
REMARK                         _______ _______ _______ _____ _____    ______ ____
ROOT
ATOM      1  O   UNL     1      -4.192  -6.062   0.009  0.00  0.00    -0.455 OA
ENDROOT
BRANCH   1   2
ATOM      2  C   UNL     1      -3.964  -4.740   0.015  0.00  0.00    +0.314 C 
ATOM      3  O   UNL     1      -4.893  -3.967   0.028  0.00  0.00    -0.250 OA
BRANCH   2  11
ATOM      4  C   UNL     1      -1.136  -2.159   0.001  0.00  0.00    +0.036 C 
ATOM      5  C   UNL     1      -0.396  -2.665   1.241  0.00  0.00    +0.029 C 
ATOM      6  C   UNL     1      -0.375  -4.195   1.232  0.00  0.00    -0.008 C 
ATOM      7  C   UNL     1       0.341  -4.689  -0.026  0.00  0.00    +0.007 C 
ATOM      8  C   UNL     1      -0.399  -4.182  -1.266  0.00  0.00    -0.008 C 
ATOM      9  C   UNL     1      -0.420  -2.652  -1.258  0.00  0.00    +0.029 C 
ATOM     10  C   UNL     1      -1.835  -4.711  -1.255  0.00  0.00    +0.021 C 
ATOM     11  C   UNL     1      -2.551  -4.218   0.004  0.00  0.00    +0.070 C 
ATOM     12  C   UNL     1      -1.811  -4.725   1.243  0.00  0.00    +0.021 C 
ATOM     13  C   UNL     1      -2.571  -2.688   0.012  0.00  0.00    +0.043 C 
BRANCH   4  17
ATOM     14  C   UNL     1      -0.018   1.503   0.010  0.00  0.00    +0.109 C 
ATOM     15  C   UNL     1       0.002  -0.004   0.002  0.00  0.00    +0.210 C 
ATOM     16  O   UNL     1       1.060  -0.596  -0.011  0.00  0.00    -0.276 OA
ATOM     17  N   UNL     1      -1.156  -0.694   0.009  0.00  0.00    -0.310 N 
ATOM     18  H   UNL     1      -2.002  -0.220   0.020  0.00  0.00    +0.149 HD
ENDBRANCH   4  17
ENDBRANCH   2  11
ENDBRANCH   1   2
BRANCH   1  19
ATOM     19  C   UNL     1      -5.556  -6.486   0.020  0.00  0.00    +0.328 C 
BRANCH  19  20
ATOM     20  C   UNL     1      -5.615  -7.992   0.013  0.00  0.00    +0.255 C 
ATOM     21  O   UNL     1      -4.589  -8.639  -0.001  0.00  0.00    -0.272 OA
ATOM     22  N   UNL     1      -6.807  -8.620   0.021  0.00  0.00    -0.276 N 
ATOM     23  H   UNL     1      -7.628  -8.103   0.031  0.00  0.00    +0.155 HD
BRANCH  22  24
ATOM     24  C   UNL     1      -6.861 -10.007   0.014  0.00  0.00    +0.090 A 
ATOM     25  C   UNL     1      -7.984 -10.815   0.015  0.00  0.00    +0.084 A 
ATOM     26  C   UNL     1      -7.774 -12.256   0.007  0.00  0.00    -0.018 A 
ATOM     27  C   UNL     1      -6.473 -12.618   0.005  0.00  0.00    -0.004 A 
ATOM     28  S   UNL     1      -5.579 -11.090  -0.005  0.00  0.00    -0.077 S 
ATOM     29  C   UNL     1      -5.911 -14.005   0.017  0.00  0.00    +0.043 C 
ATOM     30  C   UNL     1      -6.611 -14.841  -1.063  0.00  0.00    +0.005 C 
ATOM     31  C   UNL     1      -7.848 -15.491  -0.450  0.00  0.00    +0.001 C 
ATOM     32  C   UNL     1      -8.453 -14.576   0.613  0.00  0.00    +0.005 C 
ATOM     33  C   UNL     1      -8.914 -13.264  -0.013  0.00  0.00    +0.037 C 
BRANCH  25  34
ATOM     34  C   UNL     1      -9.302 -10.256   0.023  0.00  0.00    +0.102 C 
ATOM     35  N   UNL     1     -10.348  -9.812   0.030  0.00  0.00    -0.191 NA
ENDBRANCH  25  34
ENDBRANCH  22  24
ENDBRANCH  19  20
ENDBRANCH   1  19
TORSDOF 7
