REMARK  Name = ZINC09539220
REMARK  9 active torsions:
REMARK  status: ('A' for Active; 'I' for Inactive)
REMARK    1  A    between atoms: C_1  and  C_2
REMARK    2  A    between atoms: C_5  and  N_8
REMARK    3  A    between atoms: C_9  and  C_31
REMARK    4  A    between atoms: C_11  and  C_16
REMARK    5  A    between atoms: C_16  and  O_18
REMARK    6  A    between atoms: O_18  and  C_19
REMARK    7  A    between atoms: C_19  and  C_20
REMARK    8  A    between atoms: N_22  and  C_23
REMARK    9  A    between atoms: C_24  and  C_28
REMARK                            x       y       z     vdW  Elec       q    Type
REMARK                         _______ _______ _______ _____ _____    ______ ____
ROOT
ATOM      1  N   UNL     1       0.057  -4.170  -0.021  0.00  0.00    -0.263 N 
ATOM      2  C   UNL     1      -0.056  -4.993  -1.231  0.00  0.00    +0.132 C 
ATOM      3  C   UNL     1       0.447  -6.397  -0.820  0.00  0.00    +0.132 C 
ATOM      4  C   UNL     1       0.167  -6.397   0.700  0.00  0.00    +0.113 C 
ATOM      5  C   UNL     1       0.173  -4.933   1.080  0.00  0.00    +0.221 C 
ATOM      6  O   UNL     1       0.270  -4.509   2.212  0.00  0.00    -0.275 OA
ENDROOT
BRANCH   1  11
ATOM      7  C   UNL     1      -0.018   1.503   0.010  0.00  0.00    +0.044 C 
ATOM      8  C   UNL     1       0.002  -0.004   0.002  0.00  0.00    -0.050 A 
ATOM      9  C   UNL     1       0.010  -0.687  -1.200  0.00  0.00    +0.005 A 
ATOM     10  C   UNL     1       0.034  -2.068  -1.211  0.00  0.00    +0.024 A 
ATOM     11  C   UNL     1       0.039  -2.771  -0.013  0.00  0.00    +0.037 A 
ATOM     12  C   UNL     1       0.025  -2.082   1.192  0.00  0.00    +0.024 A 
ATOM     13  C   UNL     1       0.007  -0.701   1.197  0.00  0.00    +0.005 A 
ENDBRANCH   1  11
BRANCH   2  14
ATOM     14  C   UNL     1      -1.491  -5.061  -1.684  0.00  0.00    +0.011 A 
ATOM     15  C   UNL     1      -1.990  -5.039  -2.944  0.00  0.00    +0.013 A 
ATOM     16  C   UNL     1      -3.359  -5.118  -3.124  0.00  0.00    +0.008 A 
ATOM     17  C   UNL     1      -4.161  -5.204  -2.035  0.00  0.00    +0.045 A 
ATOM     18  S   UNL     1      -2.976  -5.183  -0.701  0.00  0.00    -0.100 S 
ENDBRANCH   2  14
BRANCH   3  19
ATOM     19  C   UNL     1       1.921  -6.551  -1.097  0.00  0.00    +0.313 C 
ATOM     20  O   UNL     1       2.520  -5.679  -1.680  0.00  0.00    -0.250 OA
BRANCH  19  21
ATOM     21  O   UNL     1       2.567  -7.657  -0.695  0.00  0.00    -0.455 OA
BRANCH  21  22
ATOM     22  C   UNL     1       3.985  -7.738  -0.995  0.00  0.00    +0.328 C 
BRANCH  22  23
ATOM     23  C   UNL     1       4.536  -9.039  -0.472  0.00  0.00    +0.255 C 
ATOM     24  O   UNL     1       3.805  -9.821   0.098  0.00  0.00    -0.272 OA
ATOM     25  N   UNL     1       5.841  -9.333  -0.637  0.00  0.00    -0.277 N 
ATOM     26  H   UNL     1       6.425  -8.708  -1.093  0.00  0.00    +0.155 HD
BRANCH  25  27
ATOM     27  C   UNL     1       6.348 -10.531  -0.156  0.00  0.00    +0.084 A 
ATOM     28  C   UNL     1       7.651 -11.008  -0.229  0.00  0.00    +0.065 A 
ATOM     29  C   UNL     1       7.903 -12.301   0.362  0.00  0.00    +0.022 A 
ATOM     30  C   UNL     1       6.859 -12.930   0.930  0.00  0.00    +0.048 A 
ATOM     31  S   UNL     1       5.512 -11.790   0.689  0.00  0.00    -0.081 S 
BRANCH  28  32
ATOM     32  C   UNL     1       8.718 -10.236  -0.874  0.00  0.00    +0.244 C 
ATOM     33  O   UNL     1       8.472  -9.149  -1.362  0.00  0.00    -0.270 OA
ATOM     34  N   UNL     1       9.970 -10.731  -0.926  0.00  0.00    -0.325 N 
ATOM     35  H   UNL     1      10.166 -11.597  -0.537  0.00  0.00    +0.145 HD
ATOM     36  H   UNL     1      10.676 -10.220  -1.353  0.00  0.00    +0.145 HD
ENDBRANCH  28  32
ENDBRANCH  25  27
ENDBRANCH  22  23
ENDBRANCH  21  22
ENDBRANCH  19  21
ENDBRANCH   3  19
TORSDOF 8
