REMARK  Name = ZINC63634503
REMARK  7 active torsions:
REMARK  status: ('A' for Active; 'I' for Inactive)
REMARK    1  A    between atoms: C_1  and  C_2
REMARK    2  A    between atoms: C_5  and  O_35
REMARK    3  A    between atoms: C_6  and  N_8
REMARK    4  A    between atoms: C_9  and  C_11
REMARK    5  A    between atoms: N_14  and  S_17
REMARK    6  A    between atoms: S_17  and  C_20
REMARK    7  A    between atoms: O_35  and  C_36
REMARK                            x       y       z     vdW  Elec       q    Type
REMARK                         _______ _______ _______ _____ _____    ______ ____
ROOT
ATOM      1  C   UNL     1       0.279  -2.894   4.860  0.00  0.00    +0.078 C 
ATOM      2  C   UNL     1      -0.946  -3.792   5.047  0.00  0.00    +0.030 C 
ATOM      3  C   UNL     1      -0.795  -4.593   6.344  0.00  0.00    +0.110 C 
ATOM      4  N   UNL     1      -0.559  -3.657   7.452  0.00  0.00    -0.177 NA
ATOM      5  C   UNL     1       0.539  -2.688   7.336  0.00  0.00    +0.110 C 
ATOM      6  C   UNL     1       0.373  -1.909   6.027  0.00  0.00    +0.030 C 
ENDROOT
BRANCH   1   8
ATOM      7  N   UNL     1       0.050  -2.795   2.399  0.00  0.00    -0.282 N 
ATOM      8  C   UNL     1       0.149  -2.130   3.568  0.00  0.00    +0.220 C 
ATOM      9  O   UNL     1       0.134  -0.917   3.579  0.00  0.00    -0.275 OA
ATOM     10  H   UNL     1      -0.018  -3.762   2.396  0.00  0.00    +0.155 HD
BRANCH   7  16
ATOM     11  C   UNL     1       1.263   1.227  -0.157  0.00  0.00    +0.044 C 
ATOM     12  C   UNL     1       0.627  -0.137  -0.079  0.00  0.00    -0.048 A 
ATOM     13  C   UNL     1       0.039  -0.689  -1.202  0.00  0.00    +0.007 A 
ATOM     14  C   UNL     1      -0.546  -1.940  -1.136  0.00  0.00    +0.048 A 
ATOM     15  C   UNL     1      -0.545  -2.643   0.058  0.00  0.00    +0.141 A 
ATOM     16  C   UNL     1       0.047  -2.088   1.189  0.00  0.00    +0.076 A 
ATOM     17  C   UNL     1       0.637  -0.835   1.114  0.00  0.00    +0.030 A 
BRANCH  15  18
ATOM     18  O   UNL     1      -1.121  -3.873   0.124  0.00  0.00    -0.493 OA
ATOM     19  C   UNL     1      -1.709  -4.380  -1.076  0.00  0.00    +0.277 C 
ENDBRANCH  15  18
ENDBRANCH   7  16
ENDBRANCH   1   8
BRANCH   4  20
ATOM     20  S   UNL     1      -1.512  -3.695   8.806  0.00  0.00    +0.061 S 
ATOM     21  O   UNL     1      -1.433  -2.403   9.394  0.00  0.00    -0.153 OA
ATOM     22  O   UNL     1      -2.747  -4.280   8.416  0.00  0.00    -0.153 OA
BRANCH  20  23
ATOM     23  C   UNL     1      -0.760  -4.812   9.941  0.00  0.00    +0.106 C 
ATOM     24  C   UNL     1      -0.184  -4.337  11.087  0.00  0.00    +0.035 C 
ATOM     25  C   UNL     1       0.332  -5.323  11.947  0.00  0.00    -0.013 C 
ATOM     26  C   UNL     1       1.367  -5.331  12.808  0.00  0.00    -0.021 C 
ATOM     27  C   UNL     1       2.150  -4.115  13.250  0.00  0.00    +0.037 C 
ATOM     28  C   UNL     1       3.581  -4.535  13.591  0.00  0.00    +0.005 C 
ATOM     29  C   UNL     1       3.672  -4.938  15.059  0.00  0.00    +0.001 C 
ATOM     30  C   UNL     1       2.790  -6.147  15.349  0.00  0.00    +0.006 C 
ATOM     31  C   UNL     1       2.757  -7.077  14.135  0.00  0.00    +0.055 C 
ATOM     32  C   UNL     1       1.629  -6.660  13.216  0.00  0.00    +0.040 C 
ATOM     33  N   UNL     1       0.748  -7.498  12.733  0.00  0.00    -0.276 NA
ATOM     34  C   UNL     1      -0.243  -6.728  12.000  0.00  0.00    +0.159 C 
ATOM     35  C   UNL     1      -0.491  -7.169  10.589  0.00  0.00    +0.006 C 
ATOM     36  C   UNL     1      -0.759  -6.245   9.661  0.00  0.00    +0.027 C 
ENDBRANCH  20  23
ENDBRANCH   4  20
TORSDOF 5
