REMARK  Name = ZINC62876112
REMARK  5 active torsions:
REMARK  status: ('A' for Active; 'I' for Inactive)
REMARK    1  A    between atoms: C_1  and  C_2
REMARK    2  A    between atoms: C_2  and  C_3
REMARK    3  A    between atoms: C_3  and  C_18
REMARK    4  A    between atoms: N_11  and  C_12
REMARK    5  A    between atoms: C_12  and  C_13
REMARK                            x       y       z     vdW  Elec       q    Type
REMARK                         _______ _______ _______ _____ _____    ______ ____
ROOT
ATOM      1  C   UNL     1       0.716  -0.496  -1.254  0.00  0.00    +0.087 C 
ATOM      2  C   UNL     1       0.740  -2.027  -1.261  0.00  0.00    +0.021 C 
ATOM      3  C   UNL     1       1.452  -2.533  -0.004  0.00  0.00    +0.020 C 
ATOM      4  C   UNL     1       2.898  -2.027  -0.003  0.00  0.00    +0.109 C 
ATOM      5  N   UNL     1       2.887  -0.564  -0.143  0.00  0.00    -0.285 N 
ATOM      6  C   UNL     1       2.153   0.033  -1.267  0.00  0.00    +0.127 C 
ATOM      7  C   UNL     1       3.538   0.215   0.744  0.00  0.00    +0.303 C 
ATOM      8  O   UNL     1       3.599   1.416   0.567  0.00  0.00    -0.253 OA
ATOM      9  N   UNL     1       4.121  -0.338   1.826  0.00  0.00    -0.292 N 
ATOM     10  H   UNL     1       4.136  -1.302   1.930  0.00  0.00    +0.151 HD
ENDROOT
BRANCH   1  11
ATOM     11  C   UNL     1      -0.015   0.001  -2.474  0.00  0.00    +0.364 C 
ATOM     12  O   UNL     1      -0.145   1.199  -2.661  0.00  0.00    -0.246 OA
ATOM     13  O   UNL     1      -0.475  -0.794  -3.276  0.00  0.00    -0.246 OA
ENDBRANCH   1  11
BRANCH   1  15
ATOM     14  C   UNL     1      -0.019   1.527   0.014  0.00  0.00    +0.005 C 
ATOM     15  C   UNL     1       0.001  -0.003   0.006  0.00  0.00    +0.016 C 
ENDBRANCH   1  15
BRANCH   9  16
ATOM     16  C   UNL     1       4.731   0.518   2.846  0.00  0.00    +0.186 C 
BRANCH  16  17
ATOM     17  C   UNL     1       5.308  -0.340   3.943  0.00  0.00    +0.194 A 
ATOM     18  N   UNL     1       4.682  -0.754   5.035  0.00  0.00    -0.110 NA
ATOM     19  N   UNL     1       5.515  -1.463   5.717  0.00  0.00    -0.021 NA
ATOM     20  N   UNL     1       6.639  -1.507   5.090  0.00  0.00    -0.021 NA
ATOM     21  N   UNL     1       6.538  -0.831   3.997  0.00  0.00    -0.110 NA
ENDBRANCH  16  17
ENDBRANCH   9  16
TORSDOF 4
