REMARK  Name = ZINC38696230
REMARK  3 active torsions:
REMARK  status: ('A' for Active; 'I' for Inactive)
REMARK    1  A    between atoms: C_4  and  C_7
REMARK    2  A    between atoms: C_9  and  C_13
REMARK    3  A    between atoms: C_20  and  C_23
REMARK                            x       y       z     vdW  Elec       q    Type
REMARK                         _______ _______ _______ _____ _____    ______ ____
ROOT
ATOM      1  C   UNL     1       5.782  -3.012   1.181  0.00  0.00    +0.230 C 
ATOM      2  N   UNL     1       5.504  -2.226   2.400  0.00  0.00    -0.242 N 
ATOM      3  N   UNL     1       6.747  -1.996   3.012  0.00  0.00    -0.161 NA
ATOM      4  C   UNL     1       7.698  -2.520   2.344  0.00  0.00    +0.195 C 
ATOM      5  N   UNL     1       7.233  -3.177   1.188  0.00  0.00    -0.176 N 
ATOM      6  N   UNL     1       8.075  -3.825   0.290  0.00  0.00    -0.179 NA
ATOM      7  C   UNL     1       9.260  -4.250   0.579  0.00  0.00    +0.077 C 
ATOM      8  C   UNL     1       9.891  -4.151   1.947  0.00  0.00    +0.134 C 
ATOM      9  S   UNL     1       9.444  -2.524   2.674  0.00  0.00    -0.081 S 
ATOM     10  H   UNL     1       4.636  -1.928   2.715  0.00  0.00    +0.170 HD
ENDROOT
BRANCH   7  11
ATOM     11  C   UNL     1      10.049  -4.872  -0.498  0.00  0.00    -0.001 A 
ATOM     12  C   UNL     1      11.344  -5.354  -0.227  0.00  0.00    +0.010 A 
ATOM     13  C   UNL     1      12.089  -5.931  -1.203  0.00  0.00    +0.009 A 
ATOM     14  C   UNL     1      11.571  -6.055  -2.506  0.00  0.00    -0.018 A 
ATOM     15  C   UNL     1      12.325  -6.649  -3.531  0.00  0.00    +0.008 A 
ATOM     16  C   UNL     1      11.797  -6.756  -4.782  0.00  0.00    +0.001 A 
ATOM     17  C   UNL     1      10.517  -6.283  -5.064  0.00  0.00    +0.001 A 
ATOM     18  C   UNL     1       9.757  -5.701  -4.096  0.00  0.00    +0.008 A 
ATOM     19  C   UNL     1      10.268  -5.574  -2.792  0.00  0.00    -0.017 A 
ATOM     20  C   UNL     1       9.509  -4.984  -1.770  0.00  0.00    +0.018 A 
ENDBRANCH   7  11
BRANCH   1  23
ATOM     21  C   UNL     1       3.699  -0.689  -0.037  0.00  0.00    +0.091 C 
ATOM     22  C   UNL     1       3.832  -2.029  -0.051  0.00  0.00    +0.035 C 
ATOM     23  C   UNL     1       5.335  -2.245  -0.065  0.00  0.00    +0.194 C 
ATOM     24  N   UNL     1       5.871  -0.874  -0.056  0.00  0.00    -0.176 NA
ATOM     25  N   UNL     1       4.919  -0.090  -0.047  0.00  0.00    -0.154 NA
BRANCH  21  29
ATOM     26  C   UNL     1      -0.017   1.379   0.010  0.00  0.00    +0.000 A 
ATOM     27  C   UNL     1       1.169   2.092   0.002  0.00  0.00    +0.001 A 
ATOM     28  C   UNL     1       2.377   1.426  -0.013  0.00  0.00    +0.010 A 
ATOM     29  C   UNL     1       2.402   0.033  -0.021  0.00  0.00    +0.002 A 
ATOM     30  C   UNL     1       1.205  -0.680  -0.013  0.00  0.00    +0.010 A 
ATOM     31  C   UNL     1       0.002  -0.004   0.002  0.00  0.00    +0.001 A 
ENDBRANCH  21  29
ENDBRANCH   1  23
TORSDOF 3
