REMARK  Name = ZINC52004723
REMARK  4 active torsions:
REMARK  status: ('A' for Active; 'I' for Inactive)
REMARK    1  A    between atoms: C_2  and  S_8
REMARK    2  A    between atoms: S_8  and  N_11
REMARK    3  A    between atoms: N_11  and  C_12
REMARK    4  A    between atoms: C_18  and  O_20
REMARK                            x       y       z     vdW  Elec       q    Type
REMARK                         _______ _______ _______ _____ _____    ______ ____
ROOT
ATOM      1  S   UNL     1       1.245   3.957  -0.044  0.00  0.00    +0.060 S 
ATOM      2  O   UNL     1       2.171   4.579  -0.925  0.00  0.00    -0.153 OA
ATOM      3  O   UNL     1      -0.145   4.250  -0.070  0.00  0.00    -0.153 OA
ENDROOT
BRANCH   1   5
ATOM      4  C   UNL     1       2.288   1.722  -1.232  0.00  0.00    +0.052 A 
ATOM      5  C   UNL     1       1.399   2.220  -0.297  0.00  0.00    +0.127 A 
ATOM      6  C   UNL     1       0.646   1.350   0.421  0.00  0.00    +0.082 A 
ATOM      7  S   UNL     1       1.189  -0.225  -0.219  0.00  0.00    -0.073 S 
ATOM      8  C   UNL     1       2.381   0.380  -1.401  0.00  0.00    +0.058 A 
ATOM      9 BR   UNL     1       3.488  -0.597  -2.583  0.00  0.00    -0.042 Br
ATOM     10 BR   UNL     1      -0.643   1.713   1.756  0.00  0.00    -0.041 Br
ENDBRANCH   1   5
BRANCH   1  11
ATOM     11  N   UNL     1       1.768   4.275   1.494  0.00  0.00    -0.184 NA
ATOM     12  H   UNL     1       1.145   4.606   2.160  0.00  0.00    +0.148 HD
BRANCH  11  13
ATOM     13  C   UNL     1       3.172   4.057   1.850  0.00  0.00    +0.105 C 
ATOM     14  C   UNL     1       3.323   2.688   2.516  0.00  0.00    +0.023 C 
ATOM     15  C   UNL     1       2.463   2.639   3.780  0.00  0.00    +0.002 C 
ATOM     16  C   UNL     1       2.918   3.731   4.751  0.00  0.00    +0.003 C 
ATOM     17  C   UNL     1       2.768   5.100   4.085  0.00  0.00    +0.033 C 
ATOM     18  C   UNL     1       3.628   5.149   2.820  0.00  0.00    +0.133 C 
BRANCH  18  19
ATOM     19  O   UNL     1       3.487   6.428   2.198  0.00  0.00    -0.390 OA
ATOM     20  H   UNL     1       3.758   7.169   2.757  0.00  0.00    +0.210 HD
ENDBRANCH  18  19
ENDBRANCH  11  13
ENDBRANCH   1  11
TORSDOF 4
