REMARK  Name = ZINC04955971
REMARK  5 active torsions:
REMARK  status: ('A' for Active; 'I' for Inactive)
REMARK    1  A    between atoms: C_1  and  C_2
REMARK    2  A    between atoms: C_2  and  C_3
REMARK    3  A    between atoms: C_10  and  N_23
REMARK    4  A    between atoms: C_11  and  C_21
REMARK    5  A    between atoms: C_12  and  C_14
REMARK                            x       y       z     vdW  Elec       q    Type
REMARK                         _______ _______ _______ _____ _____    ______ ____
ROOT
ATOM      1  C   UNL     1       0.654  -0.517  -0.712  0.00  0.00    +0.043 A 
ATOM      2  C   UNL     1       1.958  -0.644  -1.002  0.00  0.00    +0.045 A 
ATOM      3  C   UNL     1       2.071  -1.031  -2.355  0.00  0.00    +0.244 A 
ATOM      4  N   UNL     1       0.871  -1.128  -2.848  0.00  0.00    -0.135 NA
ATOM      5  N   UNL     1      -0.045  -0.814  -1.831  0.00  0.00    -0.278 N 
ATOM      6  H   UNL     1      -1.012  -0.809  -1.917  0.00  0.00    +0.189 HD
ATOM      7  O   UNL     1       3.278  -1.243  -2.946  0.00  0.00    -0.422 OA
ATOM      8  C   UNL     1       4.355  -1.339  -2.142  0.00  0.00    +0.200 C 
ATOM      9  C   UNL     1       4.370  -0.989  -0.839  0.00  0.00    +0.094 C 
ATOM     10  C   UNL     1       3.164  -0.435  -0.122  0.00  0.00    +0.078 C 
ENDROOT
BRANCH  10  11
ATOM     11  C   UNL     1       3.360   1.059   0.141  0.00  0.00    +0.024 C 
ATOM     12  C   UNL     1       4.475   1.252   1.170  0.00  0.00    +0.009 C 
ATOM     13  C   UNL     1       4.832   2.742   1.226  0.00  0.00    +0.005 C 
ATOM     14  C   UNL     1       5.478   3.135  -0.105  0.00  0.00    +0.027 C 
ATOM     15  C   UNL     1       4.636   2.653  -1.250  0.00  0.00    -0.031 C 
ATOM     16  C   UNL     1       3.721   1.746  -1.143  0.00  0.00    -0.027 C 
ENDBRANCH  10  11
BRANCH   8  17
ATOM     17  N   UNL     1       5.517  -1.828  -2.685  0.00  0.00    -0.328 N 
ATOM     18  H   UNL     1       5.543  -2.090  -3.619  0.00  0.00    +0.145 HD
ATOM     19  H   UNL     1       6.312  -1.911  -2.135  0.00  0.00    +0.145 HD
ENDBRANCH   8  17
BRANCH   1  21
ATOM     20  C   UNL     1       0.052  -1.339   1.549  0.00  0.00    +0.010 C 
ATOM     21  C   UNL     1       0.074  -0.122   0.621  0.00  0.00    +0.052 C 
ENDBRANCH   1  21
BRANCH   9  22
ATOM     22  C   UNL     1       5.587  -1.150  -0.102  0.00  0.00    +0.100 C 
ATOM     23  N   UNL     1       6.553  -1.277   0.482  0.00  0.00    -0.191 NA
ENDBRANCH   9  22
TORSDOF 4
