REMARK  Name = ZINC04944752
REMARK  5 active torsions:
REMARK  status: ('A' for Active; 'I' for Inactive)
REMARK    1  A    between atoms: C_1  and  C_2
REMARK    2  A    between atoms: C_9  and  C_27
REMARK    3  A    between atoms: C_10  and  N_26
REMARK    4  A    between atoms: N_11  and  C_19
REMARK    5  A    between atoms: C_24  and  C_25
REMARK                            x       y       z     vdW  Elec       q    Type
REMARK                         _______ _______ _______ _____ _____    ______ ____
ROOT
ATOM      1  C   UNL     1      -4.997   3.426   4.738  0.00  0.00    +0.044 C 
ATOM      2  C   UNL     1      -5.366   2.964   3.352  0.00  0.00    -0.050 A 
ATOM      3  C   UNL     1      -6.644   2.503   3.111  0.00  0.00    +0.005 A 
ATOM      4  C   UNL     1      -7.043   2.064   1.858  0.00  0.00    +0.024 A 
ATOM      5  C   UNL     1      -6.093   2.107   0.835  0.00  0.00    +0.038 A 
ATOM      6  C   UNL     1      -4.801   2.577   1.093  0.00  0.00    -0.001 A 
ATOM      7  C   UNL     1      -4.411   3.011   2.342  0.00  0.00    +0.010 A 
ATOM      8  C   UNL     1      -4.054   2.490  -0.203  0.00  0.00    +0.141 C 
ATOM      9  C   UNL     1      -2.885   1.559  -0.087  0.00  0.00    +0.089 C 
ATOM     10  C   UNL     1      -1.614   2.038  -0.031  0.00  0.00    +0.108 C 
ATOM     11  N   UNL     1      -1.384   3.394  -0.079  0.00  0.00    -0.260 N 
ATOM     12  C   UNL     1      -2.337   4.248  -0.573  0.00  0.00    +0.025 C 
ATOM     13  C   UNL     1      -3.628   3.861  -0.658  0.00  0.00    +0.037 C 
ATOM     14  C   UNL     1      -4.611   4.724  -1.173  0.00  0.00    +0.162 C 
ATOM     15  O   UNL     1      -5.765   4.348  -1.228  0.00  0.00    -0.292 OA
ATOM     16  C   UNL     1      -4.260   6.104  -1.657  0.00  0.00    +0.080 C 
ATOM     17  C   UNL     1      -2.810   6.105  -2.153  0.00  0.00    +0.014 C 
ATOM     18  C   UNL     1      -1.908   5.625  -1.013  0.00  0.00    +0.052 C 
ATOM     19  C   UNL     1      -5.069   1.926  -1.178  0.00  0.00    +0.238 C 
ATOM     20  O   UNL     1      -4.885   1.690  -2.353  0.00  0.00    -0.274 OA
ATOM     21  N   UNL     1      -6.215   1.737  -0.492  0.00  0.00    -0.284 N 
ATOM     22  H   UNL     1      -7.029   1.383  -0.884  0.00  0.00    +0.155 HD
ENDROOT
BRANCH  11  23
ATOM     23  C   UNL     1      -0.162   3.905   0.376  0.00  0.00    +0.043 A 
ATOM     24  C   UNL     1      -0.032   4.328   1.693  0.00  0.00    +0.024 A 
ATOM     25  C   UNL     1       1.174   4.831   2.138  0.00  0.00    +0.002 A 
ATOM     26  C   UNL     1       2.252   4.914   1.275  0.00  0.00    +0.000 A 
ATOM     27  C   UNL     1       2.125   4.494  -0.036  0.00  0.00    +0.005 A 
ATOM     28  C   UNL     1       0.923   3.985  -0.487  0.00  0.00    -0.029 A 
ATOM     29  C   UNL     1       0.788   3.521  -1.914  0.00  0.00    +0.045 C 
ENDBRANCH  11  23
BRANCH  10  30
ATOM     30  N   UNL     1      -0.557   1.166   0.081  0.00  0.00    -0.345 N 
ATOM     31  H   UNL     1      -0.719   0.210   0.118  0.00  0.00    +0.144 HD
ATOM     32  H   UNL     1       0.350   1.506   0.117  0.00  0.00    +0.144 HD
ENDBRANCH  10  30
BRANCH   9  33
ATOM     33  C   UNL     1      -3.110   0.146  -0.036  0.00  0.00    +0.100 C 
ATOM     34  N   UNL     1      -3.288  -0.975   0.004  0.00  0.00    -0.191 NA
ENDBRANCH   9  33
TORSDOF 3
