REMARK  Name = ZINC09260633
REMARK  9 active torsions:
REMARK  status: ('A' for Active; 'I' for Inactive)
REMARK    1  A    between atoms: C_1  and  C_2
REMARK    2  A    between atoms: C_5  and  C_8
REMARK    3  A    between atoms: C_11  and  C_14
REMARK    4  A    between atoms: N_16  and  C_25
REMARK    5  A    between atoms: C_18  and  C_19
REMARK    6  A    between atoms: C_31  and  C_33
REMARK    7  A    between atoms: C_33  and  C_34
REMARK    8  A    between atoms: C_34  and  C_35
REMARK    9  A    between atoms: C_35  and  C_36
REMARK                            x       y       z     vdW  Elec       q    Type
REMARK                         _______ _______ _______ _____ _____    ______ ____
ROOT
ATOM      1  C   UNL     1       2.477   1.078  -0.016  0.00  0.00    +0.069 C 
ATOM      2  N   UNL     1       2.617  -0.203  -0.019  0.00  0.00    -0.181 NA
ATOM      3  N   UNL     1       3.943  -0.630  -0.041  0.00  0.00    -0.185 N 
ATOM      4  C   UNL     1       4.823   0.549  -0.042  0.00  0.00    +0.140 C 
ATOM      5  C   UNL     1       3.838   1.735  -0.026  0.00  0.00    +0.087 C 
ATOM      6  C   UNL     1       4.353  -1.914  -0.051  0.00  0.00    +0.235 C 
ATOM      7  O   UNL     1       5.538  -2.172  -0.064  0.00  0.00    -0.274 OA
ENDROOT
BRANCH   1  12
ATOM      8  C   UNL     1      -2.554   3.865   0.047  0.00  0.00    +0.044 C 
ATOM      9  C   UNL     1      -1.236   3.134   0.031  0.00  0.00    -0.050 A 
ATOM     10  C   UNL     1      -1.215   1.751   0.017  0.00  0.00    +0.004 A 
ATOM     11  C   UNL     1      -0.013   1.076   0.008  0.00  0.00    +0.010 A 
ATOM     12  C   UNL     1       1.187   1.792   0.000  0.00  0.00    -0.002 A 
ATOM     13  C   UNL     1       1.158   3.189   0.008  0.00  0.00    +0.010 A 
ATOM     14  C   UNL     1      -0.052   3.851   0.023  0.00  0.00    +0.004 A 
ENDBRANCH   1  12
BRANCH   4  15
ATOM     15  C   UNL     1       5.670   0.581  -1.288  0.00  0.00    +0.021 A 
ATOM     16  C   UNL     1       5.426  -0.093  -2.433  0.00  0.00    +0.120 A 
ATOM     17  N   UNL     1       6.419   0.204  -3.312  0.00  0.00    -0.239 N 
ATOM     18  N   UNL     1       7.307   1.084  -2.680  0.00  0.00    -0.166 NA
ATOM     19  C   UNL     1       6.861   1.314  -1.463  0.00  0.00    +0.098 A 
BRANCH  19  20
ATOM     20  C   UNL     1       7.500   2.191  -0.451  0.00  0.00    +0.002 A 
ATOM     21  C   UNL     1       6.714   2.936   0.426  0.00  0.00    +0.010 A 
ATOM     22  C   UNL     1       7.314   3.745   1.369  0.00  0.00    +0.001 A 
ATOM     23  C   UNL     1       8.693   3.828   1.436  0.00  0.00    +0.000 A 
ATOM     24  C   UNL     1       9.479   3.095   0.564  0.00  0.00    +0.001 A 
ATOM     25  C   UNL     1       8.889   2.278  -0.378  0.00  0.00    +0.010 A 
ENDBRANCH  19  20
BRANCH  17  26
ATOM     26  C   UNL     1       6.536  -0.287  -4.618  0.00  0.00    +0.065 A 
ATOM     27  C   UNL     1       5.582  -1.162  -5.121  0.00  0.00    +0.028 A 
ATOM     28  C   UNL     1       5.698  -1.640  -6.412  0.00  0.00    +0.002 A 
ATOM     29  C   UNL     1       6.769  -1.258  -7.199  0.00  0.00    +0.000 A 
ATOM     30  C   UNL     1       7.724  -0.392  -6.699  0.00  0.00    +0.002 A 
ATOM     31  C   UNL     1       7.610   0.095  -5.411  0.00  0.00    +0.028 A 
ENDBRANCH  17  26
ENDBRANCH   4  15
BRANCH   6  32
ATOM     32  C   UNL     1       3.338  -3.029  -0.048  0.00  0.00    +0.098 C 
BRANCH  32  33
ATOM     33  C   UNL     1       4.062  -4.377  -0.062  0.00  0.00    +0.020 C 
BRANCH  33  34
ATOM     34  C   UNL     1       3.033  -5.508  -0.058  0.00  0.00    +0.125 C 
BRANCH  34  35
ATOM     35  C   UNL     1       3.745  -6.836  -0.072  0.00  0.00    +0.356 C 
ATOM     36  O   UNL     1       4.953  -6.873  -0.083  0.00  0.00    -0.246 OA
ATOM     37  O   UNL     1       3.038  -7.977  -0.071  0.00  0.00    -0.246 OA
ENDBRANCH  34  35
ENDBRANCH  33  34
ENDBRANCH  32  33
ENDBRANCH   6  32
TORSDOF 8
