REMARK  Name = ZINC34830141
REMARK  5 active torsions:
REMARK  status: ('A' for Active; 'I' for Inactive)
REMARK    1  A    between atoms: C_1  and  C_2
REMARK    2  A    between atoms: C_2  and  C_4
REMARK    3  A    between atoms: C_2  and  N_24
REMARK    4  A    between atoms: C_12  and  C_14
REMARK    5  A    between atoms: C_32  and  C_34
REMARK                            x       y       z     vdW  Elec       q    Type
REMARK                         _______ _______ _______ _____ _____    ______ ____
ROOT
ATOM      1  C   UNL     1       1.000  -0.303   1.525  0.00  0.00    +0.202 C 
ATOM      2  O   UNL     1       1.944  -1.063   1.474  0.00  0.00    -0.277 OA
ATOM      3  N   UNL     1       0.367  -0.093   2.696  0.00  0.00    -0.300 N 
ATOM      4  C   UNL     1      -0.715   0.897   2.794  0.00  0.00    +0.126 C 
ATOM      5  C   UNL     1      -1.965   0.203   3.351  0.00  0.00    +0.127 C 
ATOM      6  N   UNL     1      -1.586  -0.553   4.552  0.00  0.00    -0.295 N 
ATOM      7  C   UNL     1      -0.504  -1.543   4.454  0.00  0.00    +0.127 C 
ATOM      8  C   UNL     1       0.742  -0.854   3.897  0.00  0.00    +0.126 C 
ATOM      9  C   UNL     1      -2.219  -0.343   5.723  0.00  0.00    +0.247 C 
ATOM     10  O   UNL     1      -1.838  -0.907   6.730  0.00  0.00    -0.270 OA
ENDROOT
BRANCH   9  11
ATOM     11  C   UNL     1      -3.377   0.574   5.783  0.00  0.00    +0.037 A 
ATOM     12  C   UNL     1      -4.344   0.544   4.762  0.00  0.00    +0.013 A 
ATOM     13  C   UNL     1      -5.416   1.376   4.795  0.00  0.00    +0.009 A 
ATOM     14  C   UNL     1      -5.571   2.283   5.859  0.00  0.00    -0.018 A 
ATOM     15  C   UNL     1      -6.672   3.154   5.914  0.00  0.00    +0.008 A 
ATOM     16  C   UNL     1      -6.795   4.021   6.957  0.00  0.00    +0.001 A 
ATOM     17  C   UNL     1      -5.844   4.060   7.974  0.00  0.00    +0.001 A 
ATOM     18  C   UNL     1      -4.764   3.232   7.955  0.00  0.00    +0.008 A 
ATOM     19  C   UNL     1      -4.603   2.323   6.894  0.00  0.00    -0.017 A 
ATOM     20  C   UNL     1      -3.505   1.451   6.847  0.00  0.00    +0.021 A 
ENDBRANCH   9  11
BRANCH   1  22
ATOM     21  C   UNL     1       1.178   1.793   0.212  0.00  0.00    -0.004 C 
ATOM     22  C   UNL     1       0.535   0.406   0.279  0.00  0.00    +0.018 C 
BRANCH  22  23
ATOM     23  N   UNL     1       0.928  -0.373  -0.903  0.00  0.00    +0.395 N 
ATOM     24  C   UNL     1       2.393  -0.472  -0.952  0.00  0.00    -0.071 C 
ATOM     25  C   UNL     1       2.810  -0.989  -2.340  0.00  0.00    +0.024 C 
ATOM     26  C   UNL     1       1.949  -2.167  -2.659  0.00  0.00    -0.010 A 
ATOM     27  C   UNL     1       0.813  -2.539  -2.005  0.00  0.00    -0.047 A 
ATOM     28  C   UNL     1       0.171  -3.682  -2.476  0.00  0.00    +0.010 A 
ATOM     29  C   UNL     1       0.680  -4.357  -3.533  0.00  0.00    +0.045 A 
ATOM     30  S   UNL     1       2.129  -3.388  -3.927  0.00  0.00    -0.101 S 
ATOM     31  C   UNL     1       0.317  -1.706  -0.827  0.00  0.00    -0.005 C 
ATOM     32  H   UNL     1       0.600   0.096  -1.733  0.00  0.00    -0.079 HD
BRANCH  31  33
ATOM     33  C   UNL     1      -1.183  -1.579  -0.894  0.00  0.00    -0.057 A 
ATOM     34  C   UNL     1      -1.762  -0.670  -1.760  0.00  0.00    +0.002 A 
ATOM     35  C   UNL     1      -3.138  -0.553  -1.821  0.00  0.00    +0.000 A 
ATOM     36  C   UNL     1      -3.935  -1.346  -1.016  0.00  0.00    +0.000 A 
ATOM     37  C   UNL     1      -3.356  -2.256  -0.151  0.00  0.00    +0.000 A 
ATOM     38  C   UNL     1      -1.980  -2.375  -0.093  0.00  0.00    +0.002 A 
ENDBRANCH  31  33
ENDBRANCH  22  23
ENDBRANCH   1  22
TORSDOF 4
