REMARK  Name = ZINC63328735
REMARK  9 active torsions:
REMARK  status: ('A' for Active; 'I' for Inactive)
REMARK    1  A    between atoms: C_1  and  O_2
REMARK    2  A    between atoms: O_2  and  C_3
REMARK    3  A    between atoms: C_9  and  C_12
REMARK    4  A    between atoms: C_12  and  C_13
REMARK    5  A    between atoms: C_13  and  N_14
REMARK    6  A    between atoms: C_15  and  C_31
REMARK    7  A    between atoms: C_25  and  C_26
REMARK    8  A    between atoms: C_36  and  O_37
REMARK    9  A    between atoms: O_37  and  C_38
REMARK                            x       y       z     vdW  Elec       q    Type
REMARK                         _______ _______ _______ _____ _____    ______ ____
ROOT
ATOM      1  N   UNL     1      -0.247  -6.959  -1.143  0.00  0.00    -0.292 N 
ATOM      2  C   UNL     1      -0.382  -8.372  -1.505  0.00  0.00    +0.121 C 
ATOM      3  C   UNL     1      -1.724  -8.868  -0.848  0.00  0.00    +0.098 C 
ATOM      4  C   UNL     1      -1.534  -7.964   0.450  0.00  0.00    +0.186 C 
ATOM      5  C   UNL     1      -0.918  -6.741   0.007  0.00  0.00    +0.239 C 
ATOM      6  O   UNL     1      -0.993  -5.675   0.579  0.00  0.00    -0.273 OA
ATOM      7  N   UNL     1      -2.055  -8.749   1.459  0.00  0.00    -0.256 N 
ATOM      8  N   UNL     1      -1.675 -10.065   1.138  0.00  0.00    -0.187 NA
ATOM      9  C   UNL     1      -1.469 -10.239  -0.161  0.00  0.00    +0.108 C 
ATOM     10  H   UNL     1      -2.574  -8.456   2.224  0.00  0.00    +0.169 HD
ENDROOT
BRANCH   2  11
ATOM     11  C   UNL     1      -0.452  -8.519  -3.003  0.00  0.00    +0.015 A 
ATOM     12  C   UNL     1       0.323  -9.469  -3.642  0.00  0.00    +0.009 A 
ATOM     13  C   UNL     1       0.259  -9.604  -5.016  0.00  0.00    +0.001 A 
ATOM     14  C   UNL     1      -0.579  -8.789  -5.755  0.00  0.00    +0.004 A 
ATOM     15  C   UNL     1      -1.356  -7.839  -5.122  0.00  0.00    +0.046 A 
ATOM     16  C   UNL     1      -1.298  -7.705  -3.742  0.00  0.00    +0.125 A 
BRANCH  16  17
ATOM     17  O   UNL     1      -2.065  -6.774  -3.115  0.00  0.00    -0.495 OA
ATOM     18  C   UNL     1      -2.815  -5.886  -3.946  0.00  0.00    +0.277 C 
ENDBRANCH  16  17
ENDBRANCH   2  11
BRANCH   9  19
ATOM     19  C   UNL     1      -1.068 -11.478  -0.837  0.00  0.00    +0.151 A 
ATOM     20  C   UNL     1      -0.884 -12.692  -0.243  0.00  0.00    +0.051 A 
ATOM     21  C   UNL     1      -0.507 -13.588  -1.262  0.00  0.00    +0.042 A 
ATOM     22  C   UNL     1      -0.478 -12.889  -2.414  0.00  0.00    +0.196 A 
ATOM     23  O   UNL     1      -0.822 -11.616  -2.155  0.00  0.00    -0.462 OA
ENDBRANCH   9  19
BRANCH   1  24
ATOM     24  C   UNL     1       0.499  -5.951  -1.901  0.00  0.00    +0.113 C 
BRANCH  24  25
ATOM     25  C   UNL     1       1.920  -5.842  -1.344  0.00  0.00    +0.052 C 
BRANCH  25  32
ATOM     26  C   UNL     1       2.706  -1.376  -0.619  0.00  0.00    +0.121 A 
ATOM     27  C   UNL     1       3.489  -0.753  -1.607  0.00  0.00    +0.047 A 
ATOM     28  C   UNL     1       3.967  -1.418  -2.681  0.00  0.00    +0.029 A 
ATOM     29  C   UNL     1       3.673  -2.845  -2.843  0.00  0.00    +0.043 A 
ATOM     30  N   UNL     1       4.006  -3.708  -3.771  0.00  0.00    -0.380 N 
ATOM     31  C   UNL     1       3.431  -5.012  -3.424  0.00  0.00    +0.144 C 
ATOM     32  C   UNL     1       2.687  -4.806  -2.124  0.00  0.00    -0.040 C 
ATOM     33  C   UNL     1       2.850  -3.502  -1.802  0.00  0.00    +0.002 A 
ATOM     34  C   UNL     1       2.383  -2.690  -0.673  0.00  0.00    +0.055 A 
ATOM     35  H   UNL     1       4.543  -3.516  -4.556  0.00  0.00    +0.160 HD
BRANCH  26  37
ATOM     36  C   UNL     1       2.628   0.747   0.449  0.00  0.00    +0.277 C 
ATOM     37  O   UNL     1       2.264  -0.634   0.431  0.00  0.00    -0.495 OA
ENDBRANCH  26  37
ENDBRANCH  25  32
ENDBRANCH  24  25
ENDBRANCH   1  24
TORSDOF 7
