REMARK  Name = ZINC34706149
REMARK  10 active torsions:
REMARK  status: ('A' for Active; 'I' for Inactive)
REMARK    1  A    between atoms: C_1  and  C_2
REMARK    2  A    between atoms: C_2  and  C_4
REMARK    3  A    between atoms: C_2  and  N_12
REMARK    4  A    between atoms: C_4  and  C_5
REMARK    5  A    between atoms: C_5  and  C_6
REMARK    6  A    between atoms: C_32  and  C_34
REMARK    7  A    between atoms: C_36  and  O_42
REMARK    8  A    between atoms: C_39  and  O_40
REMARK    9  A    between atoms: O_40  and  C_41
REMARK   10  A    between atoms: O_42  and  C_43
REMARK                            x       y       z     vdW  Elec       q    Type
REMARK                         _______ _______ _______ _____ _____    ______ ____
ROOT
ATOM      1  N   UNL     1       0.536  -0.446   1.317  0.00  0.00    -0.288 N 
ATOM      2  C   UNL     1       0.079  -0.104   2.654  0.00  0.00    +0.204 C 
ATOM      3  C   UNL     1       0.915  -0.742   3.714  0.00  0.00    +0.234 C 
ATOM      4  O   UNL     1       0.609  -0.545   4.871  0.00  0.00    -0.274 OA
ATOM      5  N   UNL     1       1.976  -1.516   3.474  0.00  0.00    -0.276 N 
ATOM      6  C   UNL     1       2.496  -1.764   2.131  0.00  0.00    +0.167 C 
ATOM      7  C   UNL     1       1.611  -1.192   1.071  0.00  0.00    +0.237 C 
ATOM      8  O   UNL     1       1.892  -1.419  -0.087  0.00  0.00    -0.274 OA
ATOM      9  C   UNL     1       3.903  -1.161   2.016  0.00  0.00    +0.069 C 
ATOM     10  C   UNL     1       4.695  -1.536   3.242  0.00  0.00    -0.015 A 
ATOM     11  C   UNL     1       6.131  -1.507   3.429  0.00  0.00    +0.003 A 
ATOM     12  C   UNL     1       7.189  -1.147   2.588  0.00  0.00    +0.010 A 
ATOM     13  C   UNL     1       8.456  -1.246   3.108  0.00  0.00    +0.001 A 
ATOM     14  C   UNL     1       8.688  -1.682   4.402  0.00  0.00    +0.002 A 
ATOM     15  C   UNL     1       7.660  -2.044   5.256  0.00  0.00    +0.026 A 
ATOM     16  C   UNL     1       6.363  -1.952   4.755  0.00  0.00    +0.047 A 
ATOM     17  N   UNL     1       5.146  -2.223   5.311  0.00  0.00    -0.356 N 
ATOM     18  H   UNL     1       5.005  -2.543   6.216  0.00  0.00    +0.166 HD
ATOM     19  C   UNL     1       4.155  -1.975   4.400  0.00  0.00    +0.046 A 
ATOM     20  C   UNL     1       2.669  -2.156   4.612  0.00  0.00    +0.158 C 
ENDROOT
BRANCH  20  21
ATOM     21  C   UNL     1       2.333  -3.625   4.655  0.00  0.00    +0.024 A 
ATOM     22  C   UNL     1       3.251  -4.556   4.208  0.00  0.00    +0.055 A 
ATOM     23  C   UNL     1       2.942  -5.908   4.248  0.00  0.00    +0.121 A 
ATOM     24  C   UNL     1       1.712  -6.324   4.736  0.00  0.00    +0.049 A 
ATOM     25  C   UNL     1       0.795  -5.393   5.183  0.00  0.00    +0.049 A 
ATOM     26  C   UNL     1       1.106  -4.042   5.148  0.00  0.00    +0.126 A 
BRANCH  26  27
ATOM     27  O   UNL     1       0.205  -3.125   5.593  0.00  0.00    -0.495 OA
ATOM     28  C   UNL     1      -1.039  -3.626   6.087  0.00  0.00    +0.277 C 
ENDBRANCH  26  27
BRANCH  23  29
ATOM     29  O   UNL     1       3.845  -6.824   3.808  0.00  0.00    -0.495 OA
ATOM     30  C   UNL     1       3.460  -8.199   3.877  0.00  0.00    +0.277 C 
ENDBRANCH  23  29
ENDBRANCH  20  21
BRANCH   1  32
ATOM     31  C   UNL     1      -0.251   1.584   0.203  0.00  0.00    +0.028 C 
ATOM     32  C   UNL     1      -0.233   0.055   0.175  0.00  0.00    +0.074 C 
BRANCH  32  33
ATOM     33  C   UNL     1      -1.667  -0.473   0.255  0.00  0.00    +0.027 C 
BRANCH  33  34
ATOM     34  C   UNL     1      -1.659  -1.996   0.102  0.00  0.00    +0.037 C 
BRANCH  34  35
ATOM     35  C   UNL     1      -3.071  -2.516   0.181  0.00  0.00    -0.047 A 
ATOM     36  C   UNL     1      -3.611  -2.868   1.404  0.00  0.00    +0.003 A 
ATOM     37  C   UNL     1      -4.906  -3.345   1.476  0.00  0.00    +0.000 A 
ATOM     38  C   UNL     1      -5.662  -3.469   0.326  0.00  0.00    +0.000 A 
ATOM     39  C   UNL     1      -5.123  -3.116  -0.897  0.00  0.00    +0.000 A 
ATOM     40  C   UNL     1      -3.829  -2.635  -0.969  0.00  0.00    +0.003 A 
ENDBRANCH  34  35
ENDBRANCH  33  34
ENDBRANCH  32  33
ENDBRANCH   1  32
TORSDOF 7
