REMARK  Name = ZINC13040450
REMARK  8 active torsions:
REMARK  status: ('A' for Active; 'I' for Inactive)
REMARK    1  A    between atoms: C_1  and  N_52
REMARK    2  A    between atoms: C_2  and  C_3
REMARK    3  A    between atoms: C_2  and  N_52
REMARK    4  A    between atoms: C_11  and  C_12
REMARK    5  A    between atoms: C_11  and  N_52
REMARK    6  A    between atoms: N_14  and  C_15
REMARK    7  A    between atoms: C_17  and  S_22
REMARK    8  A    between atoms: S_22  and  N_25
REMARK                            x       y       z     vdW  Elec       q    Type
REMARK                         _______ _______ _______ _____ _____    ______ ____
ROOT
ATOM      1  C   UNL     1      -3.769  -0.636   3.092  0.00  0.00    +0.201 C 
ATOM      2  O   UNL     1      -3.145  -0.974   2.107  0.00  0.00    -0.278 OA
ATOM      3  N   UNL     1      -3.493   0.538   3.694  0.00  0.00    -0.286 N 
ATOM      4  H   UNL     1      -3.934   0.771   4.525  0.00  0.00    +0.155 HD
ENDROOT
BRANCH   3   5
ATOM      5  C   UNL     1      -2.570   1.419   3.119  0.00  0.00    +0.054 A 
ATOM      6  C   UNL     1      -2.325   1.378   1.753  0.00  0.00    +0.053 A 
ATOM      7  C   UNL     1      -1.414   2.249   1.189  0.00  0.00    +0.107 A 
ATOM      8  C   UNL     1      -0.741   3.159   1.984  0.00  0.00    +0.030 A 
ATOM      9  C   UNL     1      -0.985   3.207   3.344  0.00  0.00    +0.024 A 
ATOM     10  C   UNL     1      -1.896   2.338   3.915  0.00  0.00    +0.062 A 
ATOM     11 CL   UNL     1      -2.198   2.394   5.623  0.00  0.00    -0.082 Cl
BRANCH   7  12
ATOM     12  S   UNL     1      -1.104   2.197  -0.545  0.00  0.00    +0.061 S 
ATOM     13  O   UNL     1      -1.452   0.890  -0.980  0.00  0.00    -0.153 OA
ATOM     14  O   UNL     1       0.192   2.746  -0.742  0.00  0.00    -0.153 OA
BRANCH  12  15
ATOM     15  N   UNL     1      -2.173   3.236  -1.265  0.00  0.00    -0.177 NA
ATOM     16  C   UNL     1      -3.512   2.882  -1.758  0.00  0.00    +0.109 C 
ATOM     17  C   UNL     1      -4.128   4.159  -2.368  0.00  0.00    +0.018 C 
ATOM     18  C   UNL     1      -2.881   5.019  -2.702  0.00  0.00    +0.018 C 
ATOM     19  C   UNL     1      -1.937   4.668  -1.524  0.00  0.00    +0.109 C 
ENDBRANCH  12  15
ENDBRANCH   7  12
ENDBRANCH   3   5
BRANCH   1  20
ATOM     20  C   UNL     1      -4.851  -1.529   3.641  0.00  0.00    +0.019 C 
BRANCH  20  22
ATOM     21  C   UNL     1      -3.740  -3.556   2.921  0.00  0.00    -0.095 C 
ATOM     22  N   UNL     1      -4.959  -2.730   2.786  0.00  0.00    +0.386 N 
ATOM     23  H   UNL     1      -5.055  -2.435   1.807  0.00  0.00    -0.081 HD
BRANCH  22  24
ATOM     24  C   UNL     1      -6.149  -3.518   3.169  0.00  0.00    -0.041 C 
BRANCH  24  25
ATOM     25  C   UNL     1      -6.359  -4.608   2.150  0.00  0.00    -0.044 A 
ATOM     26  C   UNL     1      -6.051  -5.918   2.466  0.00  0.00    +0.003 A 
ATOM     27  C   UNL     1      -6.243  -6.918   1.531  0.00  0.00    +0.002 A 
ATOM     28  C   UNL     1      -6.743  -6.609   0.280  0.00  0.00    +0.021 A 
ATOM     29  C   UNL     1      -7.051  -5.299  -0.038  0.00  0.00    +0.059 A 
ATOM     30  C   UNL     1      -6.865  -4.298   0.901  0.00  0.00    +0.061 A 
ATOM     31 CL   UNL     1      -7.258  -2.654   0.507  0.00  0.00    -0.082 Cl
ATOM     32 CL   UNL     1      -7.679  -4.910  -1.609  0.00  0.00    -0.082 Cl
ENDBRANCH  24  25
ENDBRANCH  22  24
ENDBRANCH  20  22
ENDBRANCH   1  20
TORSDOF 7
