REMARK  Name = ZINC59334220
REMARK  8 active torsions:
REMARK  status: ('A' for Active; 'I' for Inactive)
REMARK    1  A    between atoms: C_1  and  N_2
REMARK    2  A    between atoms: N_2  and  C_3
REMARK    3  A    between atoms: C_4  and  C_6
REMARK    4  A    between atoms: C_6  and  C_20
REMARK    5  A    between atoms: C_7  and  C_8
REMARK    6  A    between atoms: C_11  and  O_15
REMARK    7  A    between atoms: O_15  and  C_16
REMARK    8  A    between atoms: C_16  and  C_17
REMARK                            x       y       z     vdW  Elec       q    Type
REMARK                         _______ _______ _______ _____ _____    ______ ____
ROOT
ATOM      1  C   UNL     1      -0.179  -1.989  -3.340  0.00  0.00    -0.021 A 
ATOM      2  C   UNL     1      -0.240  -0.595  -3.196  0.00  0.00    +0.026 A 
ATOM      3  C   UNL     1      -0.244   0.210  -4.312  0.00  0.00    +0.057 A 
ATOM      4  C   UNL     1      -0.188  -0.357  -5.582  0.00  0.00    +0.148 A 
ATOM      5  C   UNL     1      -0.128  -1.739  -5.731  0.00  0.00    +0.057 A 
ATOM      6  C   UNL     1      -0.117  -2.554  -4.622  0.00  0.00    +0.026 A 
ATOM      7  I   UNL     1      -0.044  -2.582  -7.647  0.00  0.00    -0.040 I 
ATOM      8  I   UNL     1      -0.335   2.292  -4.100  0.00  0.00    -0.040 I 
ENDROOT
BRANCH   1  10
ATOM      9  C   UNL     1      -0.760  -4.096  -2.208  0.00  0.00    +0.114 C 
ATOM     10  C   UNL     1      -0.175  -2.850  -2.156  0.00  0.00    +0.032 C 
BRANCH   9  14
ATOM     11  C   UNL     1      -3.531  -4.474  -4.769  0.00  0.00    +0.132 C 
ATOM     12  N   UNL     1      -2.735  -3.988  -3.640  0.00  0.00    -0.303 N 
ATOM     13  C   UNL     1      -3.267  -2.938  -2.767  0.00  0.00    +0.132 C 
ATOM     14  C   UNL     1      -1.514  -4.505  -3.404  0.00  0.00    +0.256 C 
ATOM     15  O   UNL     1      -1.034  -5.311  -4.179  0.00  0.00    -0.269 OA
ENDBRANCH   9  14
BRANCH   9  16
ATOM     16  C   UNL     1      -0.634  -4.994  -1.099  0.00  0.00    +0.104 C 
ATOM     17  N   UNL     1      -0.535  -5.705  -0.219  0.00  0.00    -0.191 NA
ENDBRANCH   9  16
ENDBRANCH   1  10
BRANCH   4  18
ATOM     18  O   UNL     1      -0.193   0.441  -6.679  0.00  0.00    -0.477 OA
BRANCH  18  19
ATOM     19  C   UNL     1       1.076   0.875  -7.171  0.00  0.00    +0.317 C 
BRANCH  19  20
ATOM     20  C   UNL     1       0.878   1.726  -8.356  0.00  0.00    -0.065 C 
ATOM     21  C   UNL     1       0.721   2.405  -9.301  0.00  0.00    +0.007 C 
ENDBRANCH  19  20
ENDBRANCH  18  19
ENDBRANCH   4  18
TORSDOF 6
