REMARK  Name = ZINC40035717
REMARK  9 active torsions:
REMARK  status: ('A' for Active; 'I' for Inactive)
REMARK    1  A    between atoms: C_1  and  C_2
REMARK    2  A    between atoms: C_2  and  C_3
REMARK    3  A    between atoms: C_3  and  C_36
REMARK    4  A    between atoms: N_15  and  C_29
REMARK    5  A    between atoms: N_18  and  N_19
REMARK    6  A    between atoms: C_20  and  C_21
REMARK    7  A    between atoms: C_24  and  S_27
REMARK    8  A    between atoms: S_27  and  C_28
REMARK    9  A    between atoms: C_32  and  C_35
REMARK                            x       y       z     vdW  Elec       q    Type
REMARK                         _______ _______ _______ _____ _____    ______ ____
ROOT
ATOM      1  C   UNL     1       1.143  -1.156   1.806  0.00  0.00    +0.004 C 
ATOM      2  C   UNL     1       0.975  -2.664   1.974  0.00  0.00    +0.047 C 
ATOM      3  C   UNL     1      -0.483  -3.038   1.960  0.00  0.00    -0.037 A 
ATOM      4  C   UNL     1      -0.895  -4.223   1.385  0.00  0.00    +0.004 A 
ATOM      5  C   UNL     1      -2.236  -4.561   1.381  0.00  0.00    +0.000 A 
ATOM      6  C   UNL     1      -3.174  -3.717   1.950  0.00  0.00    +0.001 A 
ATOM      7  C   UNL     1      -2.774  -2.528   2.527  0.00  0.00    +0.010 A 
ATOM      8  C   UNL     1      -1.426  -2.183   2.533  0.00  0.00    +0.004 A 
ATOM      9  C   UNL     1      -0.969  -0.911   3.135  0.00  0.00    +0.084 A 
ATOM     10  C   UNL     1       0.279  -0.414   2.786  0.00  0.00    +0.050 A 
ATOM     11  C   UNL     1       0.714   0.786   3.363  0.00  0.00    +0.264 A 
ATOM     12  O   UNL     1       1.806   1.252   3.082  0.00  0.00    -0.267 OA
ATOM     13  N   UNL     1      -0.101   1.416   4.237  0.00  0.00    -0.248 N 
ATOM     14  C   UNL     1      -1.321   0.887   4.541  0.00  0.00    +0.223 A 
ATOM     15  N   UNL     1      -1.735  -0.242   4.002  0.00  0.00    -0.214 NA
ATOM     16  N   UNL     1      -2.134   1.545   5.427  0.00  0.00    -0.206 N 
ATOM     17  C   UNL     1       2.608  -0.783   2.042  0.00  0.00    +0.016 C 
ATOM     18  H   UNL     1      -1.821   2.351   5.866  0.00  0.00    +0.177 HD
ENDROOT
BRANCH  13  19
ATOM     19  C   UNL     1       0.308   2.615   4.832  0.00  0.00    +0.053 A 
ATOM     20  C   UNL     1       0.981   2.595   6.047  0.00  0.00    +0.026 A 
ATOM     21  C   UNL     1       1.383   3.780   6.631  0.00  0.00    +0.005 A 
ATOM     22  C   UNL     1       1.117   4.986   6.008  0.00  0.00    -0.050 A 
ATOM     23  C   UNL     1       0.447   5.009   4.799  0.00  0.00    +0.005 A 
ATOM     24  C   UNL     1       0.047   3.827   4.206  0.00  0.00    +0.026 A 
ATOM     25  C   UNL     1       1.557   6.277   6.649  0.00  0.00    +0.044 C 
ENDBRANCH  13  19
BRANCH   1  27
ATOM     26  C   UNL     1       0.940   0.747   0.200  0.00  0.00    +0.005 C 
ATOM     27  C   UNL     1       0.746  -0.759   0.383  0.00  0.00    +0.008 C 
ENDBRANCH   1  27
BRANCH  16  28
ATOM     28  N   UNL     1      -3.418   1.053   5.698  0.00  0.00    -0.188 NA
ATOM     29  C   UNL     1      -4.188   1.676   6.537  0.00  0.00    +0.138 C 
BRANCH  29  30
ATOM     30  C   UNL     1      -5.538   1.159   6.822  0.00  0.00    -0.005 A 
ATOM     31  C   UNL     1      -5.989  -0.006   6.194  0.00  0.00    +0.010 A 
ATOM     32  C   UNL     1      -7.251  -0.487   6.463  0.00  0.00    +0.015 A 
ATOM     33  C   UNL     1      -8.078   0.186   7.358  0.00  0.00    +0.008 A 
ATOM     34  C   UNL     1      -7.632   1.345   7.984  0.00  0.00    +0.015 A 
ATOM     35  C   UNL     1      -6.369   1.829   7.725  0.00  0.00    +0.010 A 
BRANCH  33  36
ATOM     36  S   UNL     1      -9.692  -0.433   7.699  0.00  0.00    -0.129 S 
ATOM     37  C   UNL     1     -10.372   0.750   8.894  0.00  0.00    +0.090 C 
ENDBRANCH  33  36
ENDBRANCH  29  30
ENDBRANCH  16  28
TORSDOF 5
