REMARK  Name = ZINC37867727
REMARK  7 active torsions:
REMARK  status: ('A' for Active; 'I' for Inactive)
REMARK    1  A    between atoms: C_1  and  O_2
REMARK    2  A    between atoms: O_2  and  C_3
REMARK    3  A    between atoms: C_6  and  N_9
REMARK    4  A    between atoms: N_9  and  C_10
REMARK    5  A    between atoms: C_10  and  C_11
REMARK    6  A    between atoms: N_13  and  C_14
REMARK    7  A    between atoms: C_19  and  C_20
REMARK                            x       y       z     vdW  Elec       q    Type
REMARK                         _______ _______ _______ _____ _____    ______ ____
ROOT
ATOM      1  N   UNL     1       2.493  -2.464   4.242  0.00  0.00    -0.273 N 
ATOM      2  C   UNL     1       2.442  -3.838   4.314  0.00  0.00    +0.136 C 
ATOM      3  N   UNL     1       2.906  -4.615   5.290  0.00  0.00    -0.362 N 
ATOM      4  C   UNL     1       2.852  -6.024   5.072  0.00  0.00    +0.117 C 
ATOM      5  C   UNL     1       3.012  -7.079   6.154  0.00  0.00    +0.191 C 
ATOM      6  S   UNL     1       2.481  -8.584   5.211  0.00  0.00    -0.028 S 
ATOM      7  O   UNL     1       1.381  -9.185   5.878  0.00  0.00    -0.174 OA
ATOM      8  O   UNL     1       3.627  -9.366   4.903  0.00  0.00    -0.174 OA
ATOM      9  C   UNL     1       1.874  -7.760   3.662  0.00  0.00    +0.182 C 
ATOM     10  C   UNL     1       1.541  -6.379   4.271  0.00  0.00    +0.099 C 
ATOM     11  S   UNL     1       1.728  -4.972   3.113  0.00  0.00    -0.085 S 
ATOM     12  H   UNL     1       3.265  -4.241   6.110  0.00  0.00    +0.162 HD
ENDROOT
BRANCH   1  16
ATOM     13  C   UNL     1       0.580  -0.470   1.119  0.00  0.00    +0.120 A 
ATOM     14  C   UNL     1       1.936  -0.274   1.339  0.00  0.00    +0.047 A 
ATOM     15  C   UNL     1       2.570  -0.934   2.373  0.00  0.00    +0.027 A 
ATOM     16  C   UNL     1       1.850  -1.794   3.193  0.00  0.00    +0.036 A 
ATOM     17  C   UNL     1       0.493  -1.990   2.971  0.00  0.00    +0.027 A 
ATOM     18  C   UNL     1      -0.140  -1.325   1.940  0.00  0.00    +0.047 A 
BRANCH  13  20
ATOM     19  C   UNL     1       0.759   1.045  -0.706  0.00  0.00    +0.277 C 
ATOM     20  O   UNL     1      -0.043   0.180   0.100  0.00  0.00    -0.495 OA
ENDBRANCH  13  20
ENDBRANCH   1  16
BRANCH   1  21
ATOM     21  C   UNL     1       3.219  -1.703   5.261  0.00  0.00    +0.208 C 
BRANCH  21  22
ATOM     22  C   UNL     1       2.283  -1.357   6.391  0.00  0.00    +0.235 C 
ATOM     23  O   UNL     1       1.124  -1.712   6.348  0.00  0.00    -0.274 OA
ATOM     24  N   UNL     1       2.734  -0.654   7.449  0.00  0.00    -0.284 N 
ATOM     25  H   UNL     1       3.645  -0.321   7.456  0.00  0.00    +0.155 HD
BRANCH  24  26
ATOM     26  C   UNL     1       1.889  -0.406   8.536  0.00  0.00    +0.045 A 
ATOM     27  C   UNL     1       0.531  -0.202   8.329  0.00  0.00    +0.024 A 
ATOM     28  C   UNL     1      -0.301   0.043   9.404  0.00  0.00    +0.002 A 
ATOM     29  C   UNL     1       0.218   0.085  10.685  0.00  0.00    +0.001 A 
ATOM     30  C   UNL     1       1.569  -0.118  10.895  0.00  0.00    +0.014 A 
ATOM     31  C   UNL     1       2.405  -0.370   9.824  0.00  0.00    +0.076 A 
BRANCH  31  32
ATOM     32  C   UNL     1       3.877  -0.598  10.054  0.00  0.00    +0.419 C 
ATOM     33  F   UNL     1       4.154  -0.513  11.423  0.00  0.00    -0.166 F 
ATOM     34  F   UNL     1       4.231  -1.867   9.584  0.00  0.00    -0.166 F 
ATOM     35  F   UNL     1       4.612   0.375   9.368  0.00  0.00    -0.166 F 
ENDBRANCH  31  32
ENDBRANCH  24  26
ENDBRANCH  21  22
ENDBRANCH   1  21
TORSDOF 6
