REMARK  Name = ZINC00679218
REMARK  10 active torsions:
REMARK  status: ('A' for Active; 'I' for Inactive)
REMARK    1  A    between atoms: C_1  and  C_2
REMARK    2  A    between atoms: C_3  and  C_32
REMARK    3  A    between atoms: C_4  and  C_25
REMARK    4  A    between atoms: C_10  and  C_15
REMARK    5  A    between atoms: C_18  and  O_23
REMARK    6  A    between atoms: C_19  and  O_21
REMARK    7  A    between atoms: O_21  and  C_22
REMARK    8  A    between atoms: O_23  and  C_24
REMARK    9  A    between atoms: C_32  and  O_34
REMARK   10  A    between atoms: O_34  and  C_35
REMARK                            x       y       z     vdW  Elec       q    Type
REMARK                         _______ _______ _______ _____ _____    ______ ____
ROOT
ATOM      1  C   UNL     1       2.361  -0.231   0.212  0.00  0.00    +0.061 C 
ATOM      2  C   UNL     1       2.365   1.271   0.094  0.00  0.00    +0.016 C 
ATOM      3  C   UNL     1       1.230   1.919  -0.221  0.00  0.00    +0.065 C 
ATOM      4  C   UNL     1       1.193   3.415  -0.334  0.00  0.00    +0.095 C 
ATOM      5  C   UNL     1       2.583   3.980  -0.491  0.00  0.00    +0.024 C 
ATOM      6  C   UNL     1       3.667   3.245  -0.164  0.00  0.00    +0.016 C 
ATOM      7  N   UNL     1       3.524   1.966   0.303  0.00  0.00    -0.321 N 
ATOM      8  C   UNL     1       5.059   3.808  -0.306  0.00  0.00    +0.059 C 
ATOM      9  C   UNL     1       5.094   4.807  -1.464  0.00  0.00    +0.032 C 
ATOM     10  C   UNL     1       4.071   5.913  -1.183  0.00  0.00    +0.088 C 
ATOM     11  C   UNL     1       2.716   5.288  -0.987  0.00  0.00    +0.162 C 
ATOM     12  O   UNL     1       1.720   5.926  -1.263  0.00  0.00    -0.292 OA
ATOM     13  H   UNL     1       4.354   1.498   0.852  0.00  0.00    +0.152 HD
ENDROOT
BRANCH   4  14
ATOM     14  C   UNL     1       0.563   3.990   0.908  0.00  0.00    -0.000 A 
ATOM     15  C   UNL     1       1.132   3.753   2.145  0.00  0.00    +0.007 A 
ATOM     16  C   UNL     1       0.557   4.285   3.284  0.00  0.00    +0.000 A 
ATOM     17  C   UNL     1      -0.595   5.045   3.188  0.00  0.00    +0.003 A 
ATOM     18  C   UNL     1      -1.169   5.278   1.953  0.00  0.00    +0.038 A 
ATOM     19  C   UNL     1      -0.590   4.750   0.810  0.00  0.00    +0.127 A 
ATOM     20  F   UNL     1      -1.151   4.977  -0.398  0.00  0.00    -0.205 F 
ENDBRANCH   4  14
BRANCH   9  21
ATOM     21  C   UNL     1       6.473   5.404  -1.577  0.00  0.00    -0.040 A 
ATOM     22  C   UNL     1       7.008   6.108  -0.514  0.00  0.00    +0.008 A 
ATOM     23  C   UNL     1       8.273   6.658  -0.612  0.00  0.00    +0.049 A 
ATOM     24  C   UNL     1       9.007   6.504  -1.777  0.00  0.00    +0.161 A 
ATOM     25  C   UNL     1       8.468   5.795  -2.847  0.00  0.00    +0.162 A 
ATOM     26  C   UNL     1       7.202   5.242  -2.740  0.00  0.00    +0.053 A 
BRANCH  25  27
ATOM     27  O   UNL     1       9.184   5.641  -3.992  0.00  0.00    -0.491 OA
ATOM     28  C   UNL     1       8.568   4.901  -5.048  0.00  0.00    +0.277 C 
ENDBRANCH  25  27
BRANCH  24  29
ATOM     29  O   UNL     1      10.251   7.044  -1.876  0.00  0.00    -0.491 OA
ATOM     30  C   UNL     1      10.740   7.759  -0.739  0.00  0.00    +0.277 C 
ENDBRANCH  24  29
ENDBRANCH   9  21
BRANCH   3  31
ATOM     31  C   UNL     1       0.047   1.177  -0.444  0.00  0.00    +0.338 C 
ATOM     32  O   UNL     1       0.087  -0.039  -0.472  0.00  0.00    -0.245 OA
BRANCH  31  33
ATOM     33  O   UNL     1      -1.126   1.818  -0.632  0.00  0.00    -0.458 OA
BRANCH  33  34
ATOM     34  C   UNL     1      -2.280   1.006  -0.859  0.00  0.00    +0.177 C 
ATOM     35  C   UNL     1      -2.442   0.756  -2.359  0.00  0.00    +0.044 C 
ATOM     36  C   UNL     1      -3.677  -0.114  -2.601  0.00  0.00    +0.004 C 
ATOM     37  C   UNL     1      -4.918   0.604  -2.067  0.00  0.00    +0.000 C 
ATOM     38  C   UNL     1      -4.756   0.853  -0.566  0.00  0.00    +0.004 C 
ATOM     39  C   UNL     1      -3.521   1.723  -0.324  0.00  0.00    +0.044 C 
ENDBRANCH  33  34
ENDBRANCH  31  33
ENDBRANCH   3  31
TORSDOF 7
