REMARK  Name = ZINC35931246
REMARK  11 active torsions:
REMARK  status: ('A' for Active; 'I' for Inactive)
REMARK    1  A    between atoms: C_1  and  C_2
REMARK    2  A    between atoms: C_5  and  C_11
REMARK    3  A    between atoms: C_7  and  N_8
REMARK    4  A    between atoms: N_13  and  C_14
REMARK    5  A    between atoms: N_13  and  C_35
REMARK    6  A    between atoms: C_14  and  C_15
REMARK    7  A    between atoms: N_18  and  C_20
REMARK    8  A    between atoms: C_25  and  O_26
REMARK    9  A    between atoms: O_26  and  C_27
REMARK   10  A    between atoms: N_30  and  C_32
REMARK   11  A    between atoms: C_32  and  C_33
REMARK                            x       y       z     vdW  Elec       q    Type
REMARK                         _______ _______ _______ _____ _____    ______ ____
ROOT
ATOM      1  C   UNL     1      -0.936  -7.358  -1.097  0.00  0.00    +0.082 A 
ATOM      2  C   UNL     1      -1.757  -7.723  -0.035  0.00  0.00    -0.018 A 
ATOM      3  C   UNL     1      -2.768  -8.487  -0.531  0.00  0.00    +0.045 A 
ATOM      4  N   UNL     1      -2.592  -8.594  -1.857  0.00  0.00    -0.233 N 
ATOM      5  N   UNL     1      -1.436  -7.874  -2.195  0.00  0.00    -0.169 NA
ATOM      6  C   UNL     1      -3.854  -9.073   0.337  0.00  0.00    +0.037 C 
ATOM      7  C   UNL     1      -3.383  -8.984   1.796  0.00  0.00    -0.072 C 
ATOM      8  N   UNL     1      -2.917  -7.622   2.083  0.00  0.00    +0.385 N 
ATOM      9  C   UNL     1      -1.622  -7.376   1.426  0.00  0.00    -0.039 C 
ATOM     10  H   UNL     1      -3.596  -6.957   1.743  0.00  0.00    -0.081 HD
ENDROOT
BRANCH   4  11
ATOM     11  C   UNL     1      -3.419  -9.296  -2.747  0.00  0.00    +0.107 A 
ATOM     12  C   UNL     1      -4.793  -9.102  -2.720  0.00  0.00    +0.031 A 
ATOM     13  C   UNL     1      -5.605  -9.795  -3.598  0.00  0.00    +0.002 A 
ATOM     14  C   UNL     1      -5.052 -10.682  -4.504  0.00  0.00    +0.004 A 
ATOM     15  C   UNL     1      -3.685 -10.881  -4.536  0.00  0.00    +0.048 A 
ATOM     16  C   UNL     1      -2.863 -10.185  -3.663  0.00  0.00    +0.145 A 
BRANCH  16  17
ATOM     17  O   UNL     1      -1.517 -10.375  -3.698  0.00  0.00    -0.493 OA
ATOM     18  C   UNL     1      -1.017 -11.302  -4.664  0.00  0.00    +0.277 C 
ENDBRANCH  16  17
ENDBRANCH   4  11
BRANCH   1  19
ATOM     19  C   UNL     1       0.307  -6.511  -1.003  0.00  0.00    +0.165 C 
BRANCH  19  22
ATOM     20  C   UNL     1       0.698  -4.555   0.396  0.00  0.00    +0.247 C 
ATOM     21  O   UNL     1       0.418  -3.428   0.757  0.00  0.00    -0.270 OA
ATOM     22  N   UNL     1      -0.051  -5.167  -0.541  0.00  0.00    -0.289 N 
BRANCH  20  27
ATOM     23  C   UNL     1       5.223  -7.272   2.689  0.00  0.00    +0.046 C 
ATOM     24  C   UNL     1       4.038  -6.561   2.089  0.00  0.00    -0.020 A 
ATOM     25  C   UNL     1       2.841  -7.235   1.923  0.00  0.00    +0.006 A 
ATOM     26  C   UNL     1       1.753  -6.589   1.373  0.00  0.00    +0.013 A 
ATOM     27  C   UNL     1       1.861  -5.253   0.986  0.00  0.00    +0.039 A 
ATOM     28  C   UNL     1       3.070  -4.578   1.157  0.00  0.00    +0.046 A 
ATOM     29  C   UNL     1       4.150  -5.234   1.712  0.00  0.00    +0.130 A 
BRANCH  29  30
ATOM     30  N   UNL     1       5.432  -4.519   1.899  0.00  0.00    +0.057 N 
ATOM     31  O   UNL     1       6.194  -4.863   2.773  0.00  0.00    -0.126 OA
ATOM     32  O   UNL     1       5.717  -3.591   1.179  0.00  0.00    -0.126 OA
ENDBRANCH  29  30
ENDBRANCH  20  27
BRANCH  22  33
ATOM     33  C   UNL     1      -1.224  -4.489  -1.100  0.00  0.00    +0.077 C 
ATOM     34  C   UNL     1      -1.338  -2.980  -0.881  0.00  0.00    +0.024 C 
ATOM     35  C   UNL     1      -2.255  -3.935  -0.115  0.00  0.00    +0.024 C 
ENDBRANCH  22  33
ENDBRANCH  19  22
ENDBRANCH   1  19
BRANCH   8  36
ATOM     36  C   UNL     1      -2.764  -7.456   3.535  0.00  0.00    -0.051 C 
BRANCH  36  37
ATOM     37  C   UNL     1      -4.113  -7.566   4.198  0.00  0.00    -0.053 C 
ATOM     38  C   UNL     1      -4.302  -8.436   5.159  0.00  0.00    +0.002 C 
ENDBRANCH  36  37
ENDBRANCH   8  36
TORSDOF 9
