REMARK  Name = ZINC09957011
REMARK  9 active torsions:
REMARK  status: ('A' for Active; 'I' for Inactive)
REMARK    1  A    between atoms: C_1  and  C_2
REMARK    2  A    between atoms: C_5  and  O_33
REMARK    3  A    between atoms: C_6  and  N_8
REMARK    4  A    between atoms: C_9  and  S_13
REMARK    5  A    between atoms: S_13  and  C_14
REMARK    6  A    between atoms: C_14  and  C_16
REMARK    7  A    between atoms: C_14  and  C_17
REMARK    8  A    between atoms: C_23  and  C_28
REMARK    9  A    between atoms: O_33  and  C_34
REMARK                            x       y       z     vdW  Elec       q    Type
REMARK                         _______ _______ _______ _____ _____    ______ ____
ROOT
ATOM      1  C   UNL     1      -0.130   1.432  -0.278  0.00  0.00    +0.117 C 
ATOM      2  C   UNL     1      -0.757   1.843  -1.612  0.00  0.00    +0.027 C 
ENDROOT
BRANCH   1   3
ATOM      3  C   UNL     1      -0.895   2.069   0.854  0.00  0.00    +0.124 A 
ATOM      4  N   UNL     1      -0.457   3.243   1.377  0.00  0.00    -0.309 N 
ATOM      5  H   UNL     1       0.342   3.657   1.014  0.00  0.00    +0.170 HD
ATOM      6  C   UNL     1      -1.111   3.845   2.388  0.00  0.00    +0.260 A 
ATOM      7  O   UNL     1      -0.705   4.899   2.847  0.00  0.00    -0.267 OA
ATOM      8  C   UNL     1      -2.289   3.228   2.916  0.00  0.00    +0.080 A 
ATOM      9  C   UNL     1      -3.161   3.678   3.996  0.00  0.00    +0.010 A 
ATOM     10  C   UNL     1      -4.235   2.917   4.325  0.00  0.00    +0.057 A 
ATOM     11  S   UNL     1      -4.131   1.544   3.193  0.00  0.00    -0.076 S 
ATOM     12  C   UNL     1      -2.665   2.017   2.313  0.00  0.00    +0.116 A 
ATOM     13  N   UNL     1      -1.970   1.485   1.311  0.00  0.00    -0.225 NA
BRANCH   9  14
ATOM     14  C   UNL     1      -2.880   4.937   4.717  0.00  0.00    +0.021 A 
ATOM     15  C   UNL     1      -3.721   5.984   4.985  0.00  0.00    +0.016 A 
ATOM     16  C   UNL     1      -3.230   7.065   5.686  0.00  0.00    +0.008 A 
ATOM     17  C   UNL     1      -1.931   7.064   6.077  0.00  0.00    +0.046 A 
ATOM     18  S   UNL     1      -1.354   5.493   5.457  0.00  0.00    -0.097 S 
ENDBRANCH   9  14
ENDBRANCH   1   3
BRANCH   1  19
ATOM     19  S   UNL     1       1.593   1.982  -0.227  0.00  0.00    -0.073 S 
BRANCH  19  21
ATOM     20  N   UNL     1       3.556   0.994  -1.947  0.00  0.00    -0.184 N 
ATOM     21  C   UNL     1       2.268   0.997  -1.523  0.00  0.00    +0.215 A 
ATOM     22  N   UNL     1       1.615   0.130  -2.267  0.00  0.00    -0.101 NA
ATOM     23  N   UNL     1       2.405  -0.416  -3.119  0.00  0.00    -0.022 NA
ATOM     24  N   UNL     1       3.599   0.051  -2.988  0.00  0.00    -0.038 NA
BRANCH  20  30
ATOM     25  C   UNL     1       6.115   2.707   1.889  0.00  0.00    +0.044 C 
ATOM     26  C   UNL     1       5.881   2.612   0.403  0.00  0.00    -0.048 A 
ATOM     27  C   UNL     1       6.716   3.286  -0.470  0.00  0.00    +0.007 A 
ATOM     28  C   UNL     1       6.507   3.203  -1.834  0.00  0.00    +0.048 A 
ATOM     29  C   UNL     1       5.462   2.439  -2.330  0.00  0.00    +0.146 A 
ATOM     30  C   UNL     1       4.619   1.765  -1.450  0.00  0.00    +0.112 A 
ATOM     31  C   UNL     1       4.835   1.853  -0.083  0.00  0.00    +0.035 A 
BRANCH  29  32
ATOM     32  O   UNL     1       5.259   2.352  -3.671  0.00  0.00    -0.493 OA
ATOM     33  C   UNL     1       6.163   3.070  -4.513  0.00  0.00    +0.277 C 
ENDBRANCH  29  32
ENDBRANCH  20  30
ENDBRANCH  19  21
ENDBRANCH   1  19
TORSDOF 6
