REMARK  Name = ZINC36597176
REMARK  12 active torsions:
REMARK  status: ('A' for Active; 'I' for Inactive)
REMARK    1  A    between atoms: C_1  and  C_2
REMARK    2  A    between atoms: C_2  and  C_3
REMARK    3  A    between atoms: C_3  and  C_4
REMARK    4  A    between atoms: C_4  and  N_5
REMARK    5  A    between atoms: C_6  and  C_8
REMARK    6  A    between atoms: C_8  and  C_10
REMARK    7  A    between atoms: C_8  and  N_24
REMARK    8  A    between atoms: N_24  and  C_25
REMARK    9  A    between atoms: C_25  and  C_26
REMARK   10  A    between atoms: C_29  and  C_31
REMARK   11  A    between atoms: C_32  and  C_34
REMARK   12  A    between atoms: C_37  and  O_40
REMARK                            x       y       z     vdW  Elec       q    Type
REMARK                         _______ _______ _______ _____ _____    ______ ____
ROOT
ATOM      1  C   UNL     1      -4.939  -4.149   0.398  0.00  0.00    +0.193 C 
ENDROOT
BRANCH   1   2
ATOM      2  C   UNL     1      -5.579  -4.426  -0.938  0.00  0.00    -0.010 A 
ATOM      3  C   UNL     1      -5.395  -3.554  -1.950  0.00  0.00    +0.015 A 
ATOM      4  C   UNL     1      -5.974  -3.768  -3.223  0.00  0.00    -0.017 A 
ATOM      5  C   UNL     1      -5.777  -2.856  -4.269  0.00  0.00    +0.008 A 
ATOM      6  C   UNL     1      -6.347  -3.088  -5.486  0.00  0.00    +0.001 A 
ATOM      7  C   UNL     1      -7.124  -4.219  -5.707  0.00  0.00    +0.001 A 
ATOM      8  C   UNL     1      -7.334  -5.127  -4.708  0.00  0.00    +0.009 A 
ATOM      9  C   UNL     1      -6.764  -4.918  -3.451  0.00  0.00    -0.010 A 
ATOM     10  C   UNL     1      -6.963  -5.865  -2.352  0.00  0.00    -0.010 A 
ATOM     11  C   UNL     1      -6.353  -5.597  -1.105  0.00  0.00    -0.012 A 
ATOM     12  C   UNL     1      -6.533  -6.501  -0.048  0.00  0.00    +0.009 A 
ATOM     13  C   UNL     1      -7.286  -7.622  -0.237  0.00  0.00    +0.001 A 
ATOM     14  C   UNL     1      -7.879  -7.886  -1.466  0.00  0.00    +0.001 A 
ATOM     15  C   UNL     1      -7.733  -7.019  -2.512  0.00  0.00    +0.009 A 
ENDBRANCH   1   2
BRANCH   1  17
ATOM     16  N   UNL     1      -5.323  -1.706   0.410  0.00  0.00    -0.313 N 
ATOM     17  C   UNL     1      -4.443  -2.727   0.433  0.00  0.00    +0.238 C 
ATOM     18  O   UNL     1      -3.253  -2.501   0.481  0.00  0.00    -0.273 OA
ATOM     19  H   UNL     1      -6.270  -1.884   0.297  0.00  0.00    +0.149 HD
BRANCH  16  20
ATOM     20  C   UNL     1      -4.849  -0.327   0.554  0.00  0.00    +0.104 C 
BRANCH  20  21
ATOM     21  C   UNL     1      -6.040   0.631   0.494  0.00  0.00    +0.018 C 
BRANCH  21  23
ATOM     22  C   UNL     1      -6.737   3.028   0.584  0.00  0.00    +0.004 C 
ATOM     23  C   UNL     1      -5.545   2.071   0.645  0.00  0.00    -0.002 C 
ENDBRANCH  21  23
ENDBRANCH  20  21
ENDBRANCH  16  20
ENDBRANCH   1  17
BRANCH   1  24
ATOM     24  N   UNL     1      -3.812  -5.064   0.599  0.00  0.00    -0.275 N 
ATOM     25  C   UNL     1      -3.761  -5.838   1.701  0.00  0.00    +0.248 C 
ATOM     26  O   UNL     1      -4.704  -5.868   2.468  0.00  0.00    -0.270 OA
BRANCH  25  27
ATOM     27  C   UNL     1      -2.559  -6.648   1.978  0.00  0.00    +0.037 A 
ATOM     28  C   UNL     1      -2.027  -7.475   0.986  0.00  0.00    +0.016 A 
ATOM     29  C   UNL     1      -0.905  -8.229   1.248  0.00  0.00    +0.046 A 
ATOM     30  C   UNL     1      -0.302  -8.169   2.498  0.00  0.00    +0.117 A 
ATOM     31  C   UNL     1      -0.828  -7.348   3.489  0.00  0.00    +0.046 A 
ATOM     32  C   UNL     1      -1.946  -6.586   3.233  0.00  0.00    +0.016 A 
BRANCH  30  33
ATOM     33  O   UNL     1       0.803  -8.915   2.753  0.00  0.00    -0.507 OA
ATOM     34  H   UNL     1       1.635  -8.467   2.548  0.00  0.00    +0.292 HD
ENDBRANCH  30  33
ENDBRANCH  25  27
BRANCH  24  35
ATOM     35  C   UNL     1      -2.742  -5.138  -0.399  0.00  0.00    +0.183 C 
BRANCH  35  36
ATOM     36  C   UNL     1      -3.207  -5.960  -1.574  0.00  0.00    +0.122 A 
ATOM     37  C   UNL     1      -3.679  -5.475  -2.736  0.00  0.00    +0.046 A 
ATOM     38  C   UNL     1      -3.994  -6.589  -3.547  0.00  0.00    +0.045 A 
ATOM     39  C   UNL     1      -3.696  -7.689  -2.832  0.00  0.00    +0.102 A 
ATOM     40  O   UNL     1      -3.214  -7.302  -1.640  0.00  0.00    -0.463 OA
ATOM     41  C   UNL     1      -3.868  -9.113  -3.293  0.00  0.00    +0.086 C 
ENDBRANCH  35  36
ENDBRANCH  24  35
ENDBRANCH   1  24
TORSDOF 10
