REMARK  Name = ZINC06301765
REMARK  9 active torsions:
REMARK  status: ('A' for Active; 'I' for Inactive)
REMARK    1  A    between atoms: C_1  and  C_2
REMARK    2  A    between atoms: C_4  and  C_35
REMARK    3  A    between atoms: C_7  and  C_14
REMARK    4  A    between atoms: C_14  and  C_16
REMARK    5  A    between atoms: C_14  and  N_72
REMARK    6  A    between atoms: N_20  and  C_21
REMARK    7  A    between atoms: C_21  and  C_22
REMARK    8  A    between atoms: C_21  and  C_23
REMARK    9  A    between atoms: C_21  and  C_24
REMARK                            x       y       z     vdW  Elec       q    Type
REMARK                         _______ _______ _______ _____ _____    ______ ____
ROOT
ATOM      1  C   UNL     1       4.656   4.088   0.146  0.00  0.00    +0.039 C 
ENDROOT
BRANCH   1   8
ATOM      2  C   UNL     1      -1.687  -0.558   1.494  0.00  0.00    +0.044 C 
ATOM      3  C   UNL     1      -0.362   0.126   1.270  0.00  0.00    -0.048 A 
ATOM      4  C   UNL     1       0.811  -0.613   1.335  0.00  0.00    +0.007 A 
ATOM      5  C   UNL     1       2.022  -0.013   1.134  0.00  0.00    -0.041 A 
ATOM      6  C   UNL     1       2.080   1.357   0.861  0.00  0.00    +0.002 A 
ATOM      7  C   UNL     1       3.361   2.032   0.640  0.00  0.00    +0.018 A 
ATOM      8  C   UNL     1       3.355   3.363   0.378  0.00  0.00    +0.011 A 
ATOM      9  C   UNL     1       2.136   4.071   0.323  0.00  0.00    +0.251 A 
ATOM     10  O   UNL     1       2.153   5.267   0.087  0.00  0.00    -0.268 OA
ATOM     11  N   UNL     1       0.955   3.460   0.525  0.00  0.00    -0.322 N 
ATOM     12  H   UNL     1       0.136   3.977   0.480  0.00  0.00    +0.169 HD
ATOM     13  C   UNL     1       0.892   2.110   0.794  0.00  0.00    +0.050 A 
ATOM     14  C   UNL     1      -0.329   1.477   1.002  0.00  0.00    +0.029 A 
ATOM     15  C   UNL     1       3.290  -0.825   1.207  0.00  0.00    +0.044 C 
ENDBRANCH   1   8
BRANCH   1  26
ATOM     16  C   UNL     1       4.423   3.837  -2.250  0.00  0.00    -0.077 C 
ATOM     17  C   UNL     1       4.228   4.605  -3.559  0.00  0.00    -0.018 C 
ATOM     18  C   UNL     1       5.453   5.488  -3.815  0.00  0.00    +0.003 C 
ATOM     19  C   UNL     1       5.646   6.434  -2.627  0.00  0.00    -0.044 C 
ATOM     20  C   UNL     1       5.801   5.613  -1.345  0.00  0.00    -0.071 C 
ATOM     21  C   UNL     1       4.427   7.350  -2.502  0.00  0.00    +0.005 C 
ATOM     22  C   UNL     1       4.271   8.168  -3.786  0.00  0.00    +0.000 C 
ATOM     23  C   UNL     1       5.526   9.014  -4.008  0.00  0.00    +0.000 C 
ATOM     24  C   UNL     1       6.745   8.098  -4.131  0.00  0.00    +0.000 C 
ATOM     25  C   UNL     1       6.901   7.280  -2.848  0.00  0.00    +0.005 C 
ATOM     26  N   UNL     1       4.579   4.804  -1.143  0.00  0.00    +0.390 N 
ATOM     27  H   UNL     1       3.765   5.429  -1.130  0.00  0.00    -0.080 HD
ENDBRANCH   1  26
BRANCH   1  28
ATOM     28  C   UNL     1       4.877   5.089   1.251  0.00  0.00    +0.143 A 
ATOM     29  N   UNL     1       4.192   6.187   1.460  0.00  0.00    -0.115 NA
ATOM     30  N   UNL     1       4.684   6.771   2.498  0.00  0.00    -0.023 NA
ATOM     31  N   UNL     1       5.665   6.074   2.956  0.00  0.00    -0.043 NA
ATOM     32  N   UNL     1       5.811   5.026   2.217  0.00  0.00    -0.225 N 
BRANCH  32  33
ATOM     33  C   UNL     1       6.810   3.969   2.395  0.00  0.00    +0.059 C 
ATOM     34  C   UNL     1       7.737   3.933   1.178  0.00  0.00    +0.036 C 
ATOM     35  C   UNL     1       7.632   4.250   3.654  0.00  0.00    +0.036 C 
ATOM     36  C   UNL     1       6.103   2.619   2.537  0.00  0.00    +0.036 C 
ENDBRANCH  32  33
ENDBRANCH   1  28
TORSDOF 4
