REMARK  Name = ZINC40721915
REMARK  14 active torsions:
REMARK  status: ('A' for Active; 'I' for Inactive)
REMARK    1  A    between atoms: C_1  and  C_2
REMARK    2  A    between atoms: C_2  and  O_3
REMARK    3  A    between atoms: O_3  and  C_4
REMARK    4  A    between atoms: C_6  and  C_15
REMARK    5  A    between atoms: C_9  and  O_10
REMARK    6  A    between atoms: O_10  and  C_11
REMARK    7  A    between atoms: C_11  and  C_12
REMARK    8  A    between atoms: C_11  and  C_13
REMARK    9  A    between atoms: C_15  and  N_16
REMARK   10  A    between atoms: N_16  and  C_17
REMARK   11  A    between atoms: C_17  and  C_18
REMARK   12  A    between atoms: C_18  and  S_19
REMARK   13  A    between atoms: S_19  and  C_20
REMARK   14  A    between atoms: N_24  and  C_25
REMARK                            x       y       z     vdW  Elec       q    Type
REMARK                         _______ _______ _______ _____ _____    ______ ____
ROOT
ATOM      1  N   UNL     1      -1.621  -5.282   0.128  0.00  0.00    +0.382 N 
ATOM      2  H   UNL     1      -2.161  -4.431   0.101  0.00  0.00    -0.085 HD
ATOM      3  H   UNL     1      -1.647  -5.726  -0.778  0.00  0.00    -0.085 HD
ENDROOT
BRANCH   1   4
ATOM      4  C   UNL     1      -0.229  -4.968   0.479  0.00  0.00    -0.047 C 
BRANCH   4   7
ATOM      5  C   UNL     1       0.777  -1.811  -1.336  0.00  0.00    +0.164 A 
ATOM      6  C   UNL     1       0.243  -2.669  -0.388  0.00  0.00    +0.051 A 
ATOM      7  C   UNL     1       0.352  -4.037  -0.554  0.00  0.00    -0.059 A 
ATOM      8  C   UNL     1       0.992  -4.553  -1.665  0.00  0.00    +0.025 A 
ATOM      9  C   UNL     1       1.527  -3.703  -2.616  0.00  0.00    +0.086 A 
ATOM     10  C   UNL     1       1.416  -2.329  -2.458  0.00  0.00    +0.180 A 
ATOM     11 CL   UNL     1       2.331  -4.354  -4.010  0.00  0.00    -0.080 Cl
BRANCH   5  12
ATOM     12  O   UNL     1       0.671  -0.465  -1.174  0.00  0.00    -0.489 OA
BRANCH  12  14
ATOM     13  C   UNL     1      -0.019   1.526   0.010  0.00  0.00    +0.048 C 
ATOM     14  C   UNL     1       0.002  -0.004   0.002  0.00  0.00    +0.226 C 
ENDBRANCH  12  14
ENDBRANCH   5  12
BRANCH  10  15
ATOM     15  O   UNL     1       1.936  -1.491  -3.395  0.00  0.00    -0.484 OA
BRANCH  15  16
ATOM     16  C   UNL     1       3.292  -1.079  -3.215  0.00  0.00    +0.168 C 
ATOM     17  C   UNL     1       4.223  -2.068  -3.920  0.00  0.00    +0.051 C 
ATOM     18  C   UNL     1       3.485   0.316  -3.812  0.00  0.00    +0.051 C 
ENDBRANCH  15  16
ENDBRANCH  10  15
ENDBRANCH   4   7
ENDBRANCH   1   4
BRANCH   1  19
ATOM     19  C   UNL     1      -2.187  -6.190   1.135  0.00  0.00    -0.071 C 
BRANCH  19  20
ATOM     20  C   UNL     1      -3.636  -6.517   0.769  0.00  0.00    +0.058 C 
BRANCH  20  21
ATOM     21  S   UNL     1      -4.335  -7.638   2.012  0.00  0.00    -0.086 S 
BRANCH  21  22
ATOM     22  C   UNL     1      -5.984  -7.916   1.457  0.00  0.00    +0.214 A 
ATOM     23  N   UNL     1      -6.541  -7.412   0.377  0.00  0.00    -0.101 NA
ATOM     24  N   UNL     1      -7.754  -7.816   0.265  0.00  0.00    -0.022 NA
ATOM     25  N   UNL     1      -8.060  -8.595   1.246  0.00  0.00    -0.038 NA
ATOM     26  N   UNL     1      -6.918  -8.694   2.059  0.00  0.00    -0.187 N 
BRANCH  26  27
ATOM     27  C   UNL     1      -6.774  -9.438   3.239  0.00  0.00    +0.070 A 
ATOM     28  C   UNL     1      -5.557 -10.032   3.544  0.00  0.00    +0.028 A 
ATOM     29  C   UNL     1      -5.418 -10.763   4.707  0.00  0.00    +0.002 A 
ATOM     30  C   UNL     1      -6.491 -10.904   5.568  0.00  0.00    +0.000 A 
ATOM     31  C   UNL     1      -7.705 -10.314   5.267  0.00  0.00    +0.002 A 
ATOM     32  C   UNL     1      -7.848  -9.577   4.108  0.00  0.00    +0.028 A 
ENDBRANCH  26  27
ENDBRANCH  21  22
ENDBRANCH  20  21
ENDBRANCH  19  20
ENDBRANCH   1  19
TORSDOF 11
