REMARK  Name = ZINC41584651
REMARK  7 active torsions:
REMARK  status: ('A' for Active; 'I' for Inactive)
REMARK    1  A    between atoms: C_1  and  C_2
REMARK    2  A    between atoms: C_2  and  N_3
REMARK    3  A    between atoms: C_5  and  C_12
REMARK    4  A    between atoms: C_19  and  O_37
REMARK    5  A    between atoms: C_20  and  C_23
REMARK    6  A    between atoms: C_23  and  N_24
REMARK    7  A    between atoms: C_29  and  C_31
REMARK                            x       y       z     vdW  Elec       q    Type
REMARK                         _______ _______ _______ _____ _____    ______ ____
ROOT
ATOM      1  C   UNL     1       3.170  -1.812   2.511  0.00  0.00    +0.060 C 
ATOM      2  C   UNL     1       4.217  -1.750   1.642  0.00  0.00    +0.176 C 
ATOM      3  C   UNL     1       5.534  -2.220   1.894  0.00  0.00    +0.231 C 
ATOM      4  O   UNL     1       5.949  -2.750   2.911  0.00  0.00    -0.283 OA
ATOM      5  C   UNL     1       6.289  -1.930   0.663  0.00  0.00    +0.068 A 
ATOM      6  C   UNL     1       7.612  -2.142   0.276  0.00  0.00    +0.019 A 
ATOM      7  C   UNL     1       8.028  -1.752  -0.966  0.00  0.00    +0.046 A 
ATOM      8  C   UNL     1       7.136  -1.145  -1.846  0.00  0.00    +0.122 A 
ATOM      9  C   UNL     1       5.818  -0.928  -1.475  0.00  0.00    +0.020 A 
ATOM     10  C   UNL     1       5.380  -1.319  -0.216  0.00  0.00    +0.144 A 
ATOM     11  O   UNL     1       4.177  -1.236   0.390  0.00  0.00    -0.451 OA
ENDROOT
BRANCH   1  14
ATOM     12  N   UNL     1       0.282  -0.154   1.017  0.00  0.00    -0.346 N 
ATOM     13  C   UNL     1       1.553  -0.623   0.955  0.00  0.00    +0.094 A 
ATOM     14  C   UNL     1       1.893  -1.192   2.163  0.00  0.00    +0.004 A 
ATOM     15  C   UNL     1       0.711  -1.050   3.034  0.00  0.00    +0.007 A 
ATOM     16  C   UNL     1      -0.260  -0.390   2.264  0.00  0.00    +0.050 A 
ATOM     17  C   UNL     1      -1.500  -0.107   2.828  0.00  0.00    +0.026 A 
ATOM     18  C   UNL     1      -1.763  -0.472   4.131  0.00  0.00    +0.002 A 
ATOM     19  C   UNL     1      -0.801  -1.121   4.891  0.00  0.00    +0.001 A 
ATOM     20  C   UNL     1       0.430  -1.417   4.348  0.00  0.00    +0.010 A 
BRANCH  12  22
ATOM     21  C   UNL     1      -0.334   2.030   0.107  0.00  0.00    +0.027 C 
ATOM     22  C   UNL     1      -0.416   0.514  -0.084  0.00  0.00    +0.118 C 
ENDBRANCH  12  22
ENDBRANCH   1  14
BRANCH   8  23
ATOM     23  O   UNL     1       7.560  -0.761  -3.077  0.00  0.00    -0.506 OA
ATOM     24  H   UNL     1       7.462  -1.442  -3.756  0.00  0.00    +0.292 HD
ENDBRANCH   8  23
BRANCH   9  25
ATOM     25  C   UNL     1       4.862  -0.270  -2.435  0.00  0.00    -0.035 C 
BRANCH  25  26
ATOM     26  N   UNL     1       5.008   1.190  -2.348  0.00  0.00    +0.387 N 
ATOM     27  C   UNL     1       4.630   1.638  -1.002  0.00  0.00    -0.078 C 
ATOM     28  C   UNL     1       4.856   3.146  -0.881  0.00  0.00    -0.019 C 
ATOM     29  C   UNL     1       4.000   3.872  -1.922  0.00  0.00    -0.003 C 
ATOM     30  C   UNL     1       4.351   3.343  -3.316  0.00  0.00    -0.011 C 
ATOM     31  C   UNL     1       4.142   1.827  -3.347  0.00  0.00    -0.036 C 
ATOM     32  H   UNL     1       5.969   1.442  -2.526  0.00  0.00    -0.080 HD
BRANCH  31  33
ATOM     33  C   UNL     1       4.487   1.302  -4.717  0.00  0.00    -0.043 A 
ATOM     34  C   UNL     1       3.484   0.897  -5.586  0.00  0.00    +0.005 A 
ATOM     35  C   UNL     1       3.848   0.421  -6.836  0.00  0.00    +0.020 A 
ATOM     36  C   UNL     1       5.187   0.365  -7.173  0.00  0.00    +0.111 A 
ATOM     37  N   UNL     1       6.114   0.758  -6.321  0.00  0.00    -0.263 NA
ATOM     38  C   UNL     1       5.804   1.222  -5.125  0.00  0.00    +0.112 A 
ENDBRANCH  31  33
ENDBRANCH  25  26
ENDBRANCH   9  25
TORSDOF 6
