REMARK  Name = ZINC63552529
REMARK  5 active torsions:
REMARK  status: ('A' for Active; 'I' for Inactive)
REMARK    1  A    between atoms: C_1  and  C_2
REMARK    2  A    between atoms: C_9  and  N_12
REMARK    3  A    between atoms: C_13  and  C_15
REMARK    4  A    between atoms: N_20  and  S_22
REMARK    5  A    between atoms: S_22  and  C_25
REMARK                            x       y       z     vdW  Elec       q    Type
REMARK                         _______ _______ _______ _____ _____    ______ ____
ROOT
ATOM      1  C   UNL     1      -2.446  -7.233   2.968  0.00  0.00    +0.091 C 
ATOM      2  C   UNL     1      -3.677  -6.327   3.042  0.00  0.00    +0.015 C 
ATOM      3  C   UNL     1      -4.930  -7.182   3.245  0.00  0.00    +0.018 C 
ATOM      4  C   UNL     1      -4.813  -7.946   4.568  0.00  0.00    +0.109 C 
ATOM      5  N   UNL     1      -3.557  -8.708   4.564  0.00  0.00    -0.176 NA
ATOM      6  C   UNL     1      -2.300  -7.998   4.287  0.00  0.00    +0.122 C 
ENDROOT
BRANCH   1   8
ATOM      7  N   UNL     1      -1.123  -5.628   1.630  0.00  0.00    -0.288 N 
ATOM      8  C   UNL     1      -1.217  -6.393   2.736  0.00  0.00    +0.219 C 
ATOM      9  O   UNL     1      -0.312  -6.405   3.543  0.00  0.00    -0.275 OA
ATOM     10  H   UNL     1      -1.846  -5.618   0.984  0.00  0.00    +0.151 HD
BRANCH   7  19
ATOM     11  C   UNL     1      -0.018   1.503   0.010  0.00  0.00    +0.044 C 
ATOM     12  C   UNL     1       0.002  -0.004   0.002  0.00  0.00    -0.049 A 
ATOM     13  C   UNL     1       0.006  -0.700  -1.193  0.00  0.00    +0.005 A 
ATOM     14  C   UNL     1       0.025  -2.075  -1.215  0.00  0.00    +0.024 A 
ATOM     15  C   UNL     1       0.040  -2.822  -0.023  0.00  0.00    +0.043 A 
ATOM     16  C   UNL     1       0.035  -2.090   1.168  0.00  0.00    +0.032 A 
ATOM     17  C   UNL     1       0.023  -0.714   1.191  0.00  0.00    +0.020 A 
ATOM     18  S   UNL     1       0.057  -3.310   2.462  0.00  0.00    -0.082 S 
ATOM     19  C   UNL     1       0.072  -4.811   1.404  0.00  0.00    +0.224 C 
ATOM     20  N   UNL     1       0.059  -4.213   0.062  0.00  0.00    -0.316 N 
ATOM     21  H   UNL     1       0.062  -4.766  -0.735  0.00  0.00    +0.149 HD
ENDBRANCH   7  19
ENDBRANCH   1   8
BRANCH   5  22
ATOM     22  S   UNL     1      -3.557 -10.336   4.865  0.00  0.00    +0.061 S 
ATOM     23  O   UNL     1      -2.257 -10.662   5.338  0.00  0.00    -0.153 OA
ATOM     24  O   UNL     1      -4.732 -10.611   5.615  0.00  0.00    -0.153 OA
BRANCH  22  25
ATOM     25  C   UNL     1      -3.747 -11.153   3.315  0.00  0.00    +0.106 A 
ATOM     26  C   UNL     1      -5.019 -11.442   2.841  0.00  0.00    +0.030 A 
ATOM     27  C   UNL     1      -5.191 -12.079   1.631  0.00  0.00    +0.028 A 
ATOM     28  C   UNL     1      -4.080 -12.438   0.876  0.00  0.00    +0.049 A 
ATOM     29  C   UNL     1      -2.791 -12.143   1.359  0.00  0.00    +0.000 A 
ATOM     30  C   UNL     1      -2.641 -11.491   2.587  0.00  0.00    +0.038 A 
ATOM     31  C   UNL     1      -1.628 -12.524   0.557  0.00  0.00    +0.015 A 
ATOM     32  C   UNL     1      -1.835 -13.150  -0.628  0.00  0.00    +0.071 A 
ATOM     33  C   UNL     1      -3.148 -13.423  -1.068  0.00  0.00    +0.249 A 
ATOM     34  O   UNL     1      -3.312 -13.986  -2.136  0.00  0.00    -0.268 OA
ATOM     35  N   UNL     1      -4.223 -13.076  -0.338  0.00  0.00    -0.322 N 
ATOM     36  H   UNL     1      -5.111 -13.279  -0.669  0.00  0.00    +0.169 HD
ENDBRANCH  22  25
ENDBRANCH   5  22
TORSDOF 4
