REMARK  Name = ZINC36309734
REMARK  15 active torsions:
REMARK  status: ('A' for Active; 'I' for Inactive)
REMARK    1  A    between atoms: C_1  and  C_2
REMARK    2  A    between atoms: C_2  and  C_3
REMARK    3  A    between atoms: C_2  and  C_4
REMARK    4  A    between atoms: C_4  and  N_5
REMARK    5  A    between atoms: N_5  and  C_6
REMARK    6  A    between atoms: N_5  and  C_14
REMARK    7  A    between atoms: C_6  and  C_7
REMARK    8  A    between atoms: C_7  and  C_9
REMARK    9  A    between atoms: C_7  and  O_13
REMARK   10  A    between atoms: C_9  and  C_10
REMARK   11  A    between atoms: C_10  and  C_11
REMARK   12  A    between atoms: C_14  and  C_15
REMARK   13  A    between atoms: C_25  and  C_27
REMARK   14  A    between atoms: C_27  and  O_28
REMARK   15  A    between atoms: O_28  and  C_29
REMARK                            x       y       z     vdW  Elec       q    Type
REMARK                         _______ _______ _______ _____ _____    ______ ____
ROOT
ATOM      1  C   UNL     1       2.118   0.558   3.591  0.00  0.00    +0.200 C 
ATOM      2  O   UNL     1       2.342   1.236   2.611  0.00  0.00    -0.278 OA
ATOM      3  N   UNL     1       3.004   0.525   4.606  0.00  0.00    -0.292 N 
ATOM      4  C   UNL     1       2.745  -0.299   5.796  0.00  0.00    +0.113 C 
ATOM      5  C   UNL     1       3.814  -1.401   5.862  0.00  0.00    +0.061 C 
ATOM      6  C   UNL     1       5.143  -0.798   5.544  0.00  0.00    -0.004 A 
ATOM      7  C   UNL     1       5.398   0.400   4.951  0.00  0.00    -0.014 A 
ATOM      8  C   UNL     1       6.738   0.730   4.757  0.00  0.00    +0.013 A 
ATOM      9  C   UNL     1       7.710  -0.122   5.157  0.00  0.00    +0.046 A 
ATOM     10  S   UNL     1       6.758  -1.468   5.846  0.00  0.00    -0.101 S 
ATOM     11  C   UNL     1       4.246   1.306   4.535  0.00  0.00    +0.144 C 
ENDROOT
BRANCH   1  12
ATOM     12  C   UNL     1       0.847  -0.248   3.674  0.00  0.00    +0.019 C 
BRANCH  12  13
ATOM     13  N   UNL     1       0.056  -0.043   2.453  0.00  0.00    +0.387 N 
ATOM     14  H   UNL     1      -0.102   0.944   2.317  0.00  0.00    -0.081 HD
BRANCH  13  15
ATOM     15  C   UNL     1       0.786  -0.586   1.300  0.00  0.00    -0.075 C 
BRANCH  15  17
ATOM     16  C   UNL     1       0.049   1.279  -0.189  0.00  0.00    +0.005 C 
ATOM     17  C   UNL     1       0.038  -0.237   0.012  0.00  0.00    -0.034 C 
ATOM     18  C   UNL     1       0.724  -0.914  -1.176  0.00  0.00    +0.005 C 
ENDBRANCH  15  17
ENDBRANCH  13  15
BRANCH  13  19
ATOM     19  C   UNL     1      -1.234  -0.732   2.584  0.00  0.00    -0.046 C 
BRANCH  19  20
ATOM     20  C   UNL     1      -2.056  -0.069   3.692  0.00  0.00    +0.098 C 
BRANCH  20  21
ATOM     21  O   UNL     1      -2.287   1.301   3.358  0.00  0.00    -0.394 OA
ATOM     22  H   UNL     1      -2.833   1.428   2.571  0.00  0.00    +0.210 HD
ENDBRANCH  20  21
BRANCH  20  23
ATOM     23  C   UNL     1      -3.397  -0.792   3.834  0.00  0.00    +0.033 C 
BRANCH  23  24
ATOM     24  C   UNL     1      -4.167  -0.210   5.021  0.00  0.00    +0.029 C 
BRANCH  24  25
ATOM     25  C   UNL     1      -5.487  -0.922   5.162  0.00  0.00    -0.034 C 
ATOM     26  C   UNL     1      -5.811  -1.486   6.299  0.00  0.00    +0.004 C 
ENDBRANCH  24  25
ENDBRANCH  23  24
ENDBRANCH  20  23
ENDBRANCH  19  20
ENDBRANCH  13  19
ENDBRANCH  12  13
ENDBRANCH   1  12
BRANCH  11  27
ATOM     27  C   UNL     1       4.162   2.500   5.489  0.00  0.00    +0.256 C 
BRANCH  27  28
ATOM     28  O   UNL     1       4.091   2.029   6.837  0.00  0.00    -0.490 OA
BRANCH  28  29
ATOM     29  C   UNL     1       4.011   2.969   7.816  0.00  0.00    +0.121 A 
ATOM     30  C   UNL     1       3.995   4.316   7.485  0.00  0.00    +0.048 A 
ATOM     31  C   UNL     1       3.913   5.270   8.481  0.00  0.00    +0.042 A 
ATOM     32  C   UNL     1       3.849   4.882   9.808  0.00  0.00    +0.124 A 
ATOM     33  C   UNL     1       3.865   3.538  10.140  0.00  0.00    +0.042 A 
ATOM     34  C   UNL     1       3.940   2.582   9.146  0.00  0.00    +0.048 A 
ATOM     35  F   UNL     1       3.769   5.816  10.781  0.00  0.00    -0.205 F 
ENDBRANCH  28  29
ENDBRANCH  27  28
ENDBRANCH  11  27
TORSDOF 13
