REMARK  Name = ZINC64622948
REMARK  5 active torsions:
REMARK  status: ('A' for Active; 'I' for Inactive)
REMARK    1  A    between atoms: C_1  and  C_2
REMARK    2  A    between atoms: C_2  and  O_3
REMARK    3  A    between atoms: O_3  and  C_4
REMARK    4  A    between atoms: C_7  and  N_10
REMARK    5  A    between atoms: C_26  and  C_28
REMARK                            x       y       z     vdW  Elec       q    Type
REMARK                         _______ _______ _______ _____ _____    ______ ____
ROOT
ATOM      1  N   UNL     1       1.642  -5.471  -2.133  0.00  0.00    -0.269 N 
ATOM      2  C   UNL     1       1.950  -6.191  -3.230  0.00  0.00    +0.307 C 
ATOM      3  O   UNL     1       2.309  -5.626  -4.246  0.00  0.00    -0.252 OA
ATOM      4  N   UNL     1       1.862  -7.535  -3.201  0.00  0.00    -0.276 N 
ATOM      5  C   UNL     1       1.295  -8.200  -2.024  0.00  0.00    +0.114 C 
ATOM      6  C   UNL     1       0.091  -9.060  -2.451  0.00  0.00    +0.052 C 
ATOM      7  C   UNL     1       0.518  -9.819  -3.683  0.00  0.00    -0.035 C 
ATOM      8  C   UNL     1       0.473 -11.113  -3.976  0.00  0.00    -0.001 A 
ATOM      9  C   UNL     1      -0.105 -12.261  -3.259  0.00  0.00    +0.010 A 
ATOM     10  C   UNL     1       0.049 -13.476  -3.849  0.00  0.00    +0.001 A 
ATOM     11  C   UNL     1       0.713 -13.661  -5.066  0.00  0.00    +0.002 A 
ATOM     12  C   UNL     1       1.268 -12.662  -5.797  0.00  0.00    +0.026 A 
ATOM     13  C   UNL     1       1.162 -11.337  -5.284  0.00  0.00    +0.043 A 
ATOM     14  N   UNL     1       1.575 -10.208  -5.779  0.00  0.00    -0.375 N 
ATOM     15  C   UNL     1       1.148  -9.129  -4.887  0.00  0.00    +0.131 C 
ATOM     16  C   UNL     1       2.330  -8.320  -4.355  0.00  0.00    +0.134 C 
ATOM     17  H   UNL     1       1.429  -5.923  -1.301  0.00  0.00    +0.156 HD
ATOM     18  H   UNL     1       2.080 -10.099  -6.600  0.00  0.00    +0.160 HD
ENDROOT
BRANCH  16  19
ATOM     19  C   UNL     1       3.431  -9.254  -3.923  0.00  0.00    -0.025 A 
ATOM     20  C   UNL     1       4.725  -9.046  -4.363  0.00  0.00    +0.008 A 
ATOM     21  C   UNL     1       5.735  -9.902  -3.968  0.00  0.00    +0.038 A 
ATOM     22  C   UNL     1       5.451 -10.968  -3.131  0.00  0.00    +0.123 A 
ATOM     23  C   UNL     1       4.155 -11.175  -2.691  0.00  0.00    +0.038 A 
ATOM     24  C   UNL     1       3.147 -10.315  -3.084  0.00  0.00    +0.008 A 
ATOM     25  F   UNL     1       6.438 -11.806  -2.744  0.00  0.00    -0.205 F 
ENDBRANCH  16  19
BRANCH   1  29
ATOM     26  C   UNL     1       1.602  -1.305  -2.312  0.00  0.00    +0.121 A 
ATOM     27  C   UNL     1       0.717  -1.972  -1.478  0.00  0.00    +0.047 A 
ATOM     28  C   UNL     1       0.729  -3.351  -1.418  0.00  0.00    +0.027 A 
ATOM     29  C   UNL     1       1.628  -4.071  -2.193  0.00  0.00    +0.035 A 
ATOM     30  C   UNL     1       2.514  -3.404  -3.029  0.00  0.00    +0.027 A 
ATOM     31  C   UNL     1       2.497  -2.024  -3.091  0.00  0.00    +0.047 A 
BRANCH  26  32
ATOM     32  O   UNL     1       1.590   0.053  -2.371  0.00  0.00    -0.492 OA
BRANCH  32  34
ATOM     33  C   UNL     1       0.776   2.240  -1.742  0.00  0.00    +0.048 C 
ATOM     34  C   UNL     1       0.642   0.730  -1.542  0.00  0.00    +0.225 C 
ENDBRANCH  32  34
ENDBRANCH  26  32
ENDBRANCH   1  29
TORSDOF 4
