REMARK  Name = ZINC46581518
REMARK  13 active torsions:
REMARK  status: ('A' for Active; 'I' for Inactive)
REMARK    1  A    between atoms: C_1  and  C_2
REMARK    2  A    between atoms: C_2  and  N_3
REMARK    3  A    between atoms: C_4  and  C_29
REMARK    4  A    between atoms: C_7  and  S_8
REMARK    5  A    between atoms: S_8  and  C_9
REMARK    6  A    between atoms: C_9  and  C_10
REMARK    7  A    between atoms: N_12  and  C_13
REMARK    8  A    between atoms: C_15  and  C_28
REMARK    9  A    between atoms: C_17  and  C_27
REMARK   10  A    between atoms: C_21  and  C_22
REMARK   11  A    between atoms: C_22  and  O_24
REMARK   12  A    between atoms: O_24  and  C_25
REMARK   13  A    between atoms: C_25  and  C_26
REMARK                            x       y       z     vdW  Elec       q    Type
REMARK                         _______ _______ _______ _____ _____    ______ ____
ROOT
ATOM      1  C   UNL     1      -3.359  -1.150  -5.119  0.00  0.00    +0.228 C 
ATOM      2  O   UNL     1      -2.576  -1.991  -5.505  0.00  0.00    -0.275 OA
ATOM      3  N   UNL     1      -4.001  -0.368  -6.010  0.00  0.00    -0.283 N 
ATOM      4  H   UNL     1      -4.662   0.273  -5.704  0.00  0.00    +0.155 HD
ENDROOT
BRANCH   3   5
ATOM      5  C   UNL     1      -3.716  -0.480  -7.367  0.00  0.00    +0.064 A 
ATOM      6  C   UNL     1      -4.776  -0.719  -8.334  0.00  0.00    +0.033 A 
ATOM      7  C   UNL     1      -6.166  -0.869  -8.104  0.00  0.00    -0.037 A 
ATOM      8  C   UNL     1      -6.998  -1.091  -9.175  0.00  0.00    +0.027 A 
ATOM      9  C   UNL     1      -6.482  -1.167 -10.461  0.00  0.00    +0.040 A 
ATOM     10  N   UNL     1      -5.188  -1.026 -10.671  0.00  0.00    -0.245 NA
ATOM     11  C   UNL     1      -4.351  -0.812  -9.679  0.00  0.00    +0.111 A 
ATOM     12  S   UNL     1      -2.593  -0.581  -9.589  0.00  0.00    -0.060 S 
ATOM     13  C   UNL     1      -2.424  -0.362  -7.829  0.00  0.00    +0.120 A 
ATOM     14  C   UNL     1      -7.407  -1.412 -11.625  0.00  0.00    +0.065 C 
ATOM     15  C   UNL     1      -6.724  -0.787  -6.706  0.00  0.00    +0.044 C 
BRANCH  13  16
ATOM     16  C   UNL     1      -1.242  -0.125  -7.082  0.00  0.00    +0.348 C 
ATOM     17  O   UNL     1      -1.280  -0.127  -5.866  0.00  0.00    -0.244 OA
BRANCH  16  18
ATOM     18  O   UNL     1      -0.075   0.103  -7.720  0.00  0.00    -0.461 OA
BRANCH  18  19
ATOM     19  C   UNL     1       1.076   0.334  -6.905  0.00  0.00    +0.229 C 
ATOM     20  C   UNL     1       2.295   0.571  -7.799  0.00  0.00    +0.048 C 
ENDBRANCH  18  19
ENDBRANCH  16  18
ENDBRANCH  13  16
ENDBRANCH   3   5
BRANCH   1  21
ATOM     21  C   UNL     1      -3.615  -0.978  -3.644  0.00  0.00    +0.173 C 
BRANCH  21  22
ATOM     22  S   UNL     1      -2.609  -2.168  -2.714  0.00  0.00    -0.077 S 
BRANCH  22  27
ATOM     23  N   UNL     1      -2.510  -2.490   0.063  0.00  0.00    -0.300 N 
ATOM     24  C   UNL     1      -3.110  -1.899   1.153  0.00  0.00    +0.200 A 
ATOM     25  N   UNL     1      -3.917  -0.969   0.691  0.00  0.00    -0.125 NA
ATOM     26  N   UNL     1      -3.862  -0.941  -0.593  0.00  0.00    -0.122 NA
ATOM     27  C   UNL     1      -3.015  -1.845  -1.030  0.00  0.00    +0.192 A 
BRANCH  24  28
ATOM     28  C   UNL     1      -2.889  -2.242   2.567  0.00  0.00    +0.172 A 
ATOM     29  C   UNL     1      -3.258  -1.488   3.640  0.00  0.00    +0.053 A 
ATOM     30  C   UNL     1      -2.854  -2.194   4.790  0.00  0.00    +0.042 A 
ATOM     31  C   UNL     1      -2.267  -3.332   4.369  0.00  0.00    +0.196 A 
ATOM     32  O   UNL     1      -2.294  -3.360   3.026  0.00  0.00    -0.460 OA
ENDBRANCH  24  28
BRANCH  23  34
ATOM     33  C   UNL     1      -0.118  -2.994   0.152  0.00  0.00    +0.027 C 
ATOM     34  C   UNL     1      -1.530  -3.579   0.074  0.00  0.00    +0.122 C 
ENDBRANCH  23  34
ENDBRANCH  22  27
ENDBRANCH  21  22
ENDBRANCH   1  21
TORSDOF 9
