REMARK  Name = ZINC41737350
REMARK  6 active torsions:
REMARK  status: ('A' for Active; 'I' for Inactive)
REMARK    1  A    between atoms: C_1  and  C_2
REMARK    2  A    between atoms: C_2  and  C_3
REMARK    3  A    between atoms: C_3  and  C_4
REMARK    4  A    between atoms: C_3  and  C_11
REMARK    5  A    between atoms: C_3  and  N_14
REMARK    6  A    between atoms: N_14  and  C_15
REMARK                            x       y       z     vdW  Elec       q    Type
REMARK                         _______ _______ _______ _____ _____    ______ ____
ROOT
ATOM      1  C   UNL     1       0.692  -0.127   1.424  0.00  0.00    +0.061 C 
ENDROOT
BRANCH   1   2
ATOM      2  C   UNL     1      -0.402   0.543   2.214  0.00  0.00    -0.048 A 
ATOM      3  C   UNL     1      -0.091   1.260   3.355  0.00  0.00    +0.004 A 
ATOM      4  C   UNL     1      -1.094   1.875   4.080  0.00  0.00    +0.015 A 
ATOM      5  C   UNL     1      -2.409   1.774   3.664  0.00  0.00    +0.018 A 
ATOM      6  C   UNL     1      -2.720   1.056   2.523  0.00  0.00    +0.015 A 
ATOM      7  C   UNL     1      -1.716   0.446   1.796  0.00  0.00    +0.004 A 
ATOM      8 BR   UNL     1      -3.783   2.615   4.655  0.00  0.00    -0.050 Br
ENDBRANCH   1   2
BRANCH   1   9
ATOM      9  C   UNL     1       0.418  -1.607   1.341  0.00  0.00    +0.350 C 
ATOM     10  O   UNL     1       1.286  -2.366   0.947  0.00  0.00    -0.248 OA
ATOM     11  O   UNL     1      -0.673  -2.044   1.667  0.00  0.00    -0.248 OA
ENDBRANCH   1   9
BRANCH   1  12
ATOM     12  N   UNL     1       1.983   0.095   2.089  0.00  0.00    +0.396 N 
ATOM     13  H   UNL     1       2.723  -0.296   1.526  0.00  0.00    -0.083 HD
ATOM     14  H   UNL     1       2.136   1.085   2.206  0.00  0.00    -0.083 HD
BRANCH  12  15
ATOM     15  C   UNL     1       1.974  -0.557   3.406  0.00  0.00    -0.047 C 
ATOM     16  C   UNL     1       2.511  -1.992   3.269  0.00  0.00    +0.008 C 
ATOM     17  C   UNL     1       2.785  -2.544   4.697  0.00  0.00    +0.164 C 
ATOM     18  S   UNL     1       3.524  -1.058   5.497  0.00  0.00    -0.033 S 
ATOM     19  O   UNL     1       4.937  -1.112   5.358  0.00  0.00    -0.174 OA
ATOM     20  O   UNL     1       2.954  -0.898   6.789  0.00  0.00    -0.174 OA
ATOM     21  C   UNL     1       2.864   0.247   4.384  0.00  0.00    +0.150 C 
ENDBRANCH  12  15
ENDBRANCH   1  12
BRANCH   1  23
ATOM     22  C   UNL     1       1.080   1.952   0.095  0.00  0.00    +0.003 C 
ATOM     23  C   UNL     1       0.738   0.463   0.013  0.00  0.00    +0.000 C 
ENDBRANCH   1  23
TORSDOF 5
