REMARK  Name = ZINC09142379
REMARK  8 active torsions:
REMARK  status: ('A' for Active; 'I' for Inactive)
REMARK    1  A    between atoms: C_1  and  C_2
REMARK    2  A    between atoms: C_6  and  C_10
REMARK    3  A    between atoms: C_7  and  O_8
REMARK    4  A    between atoms: O_8  and  C_9
REMARK    5  A    between atoms: N_12  and  C_13
REMARK    6  A    between atoms: C_13  and  N_15
REMARK    7  A    between atoms: N_15  and  C_16
REMARK    8  A    between atoms: C_19  and  N_23
REMARK                            x       y       z     vdW  Elec       q    Type
REMARK                         _______ _______ _______ _____ _____    ______ ____
ROOT
ATOM      1  C   UNL     1       2.422   4.647  -0.475  0.00  0.00    +0.253 C 
ATOM      2  O   UNL     1       2.394   5.840  -0.707  0.00  0.00    -0.270 OA
ATOM      3  N   UNL     1       3.599   4.033  -0.241  0.00  0.00    -0.263 N 
ATOM      4  H   UNL     1       3.621   3.081  -0.056  0.00  0.00    +0.157 HD
ENDROOT
BRANCH   1  10
ATOM      5  C   UNL     1      -2.553   4.444  -0.924  0.00  0.00    +0.047 C 
ATOM      6  C   UNL     1      -1.232   3.767  -0.665  0.00  0.00    -0.007 A 
ATOM      7  C   UNL     1      -1.191   2.411  -0.406  0.00  0.00    +0.022 A 
ATOM      8  C   UNL     1       0.019   1.781  -0.161  0.00  0.00    +0.019 A 
ATOM      9  C   UNL     1       1.195   2.500  -0.183  0.00  0.00    +0.032 A 
ATOM     10  C   UNL     1       1.168   3.871  -0.449  0.00  0.00    +0.080 A 
ATOM     11  C   UNL     1      -0.059   4.506  -0.692  0.00  0.00    +0.135 A 
ATOM     12 BR   UNL     1       0.057  -0.075   0.199  0.00  0.00    -0.050 Br
BRANCH  11  13
ATOM     13  O   UNL     1      -0.098   5.837  -0.951  0.00  0.00    -0.494 OA
ATOM     14  C   UNL     1       0.006   6.234  -2.320  0.00  0.00    +0.277 C 
ENDBRANCH  11  13
ENDBRANCH   1  10
BRANCH   3  15
ATOM     15  C   UNL     1       4.745   4.742  -0.264  0.00  0.00    +0.141 C 
ATOM     16  S   UNL     1       4.706   6.422  -0.591  0.00  0.00    -0.018 S 
BRANCH  15  17
ATOM     17  N   UNL     1       5.922   4.128  -0.030  0.00  0.00    -0.295 N 
ATOM     18  H   UNL     1       5.939   3.190   0.216  0.00  0.00    +0.154 HD
BRANCH  17  19
ATOM     19  C   UNL     1       7.119   4.844  -0.143  0.00  0.00    +0.051 A 
ATOM     20  C   UNL     1       7.242   6.091   0.454  0.00  0.00    +0.027 A 
ATOM     21  C   UNL     1       8.425   6.796   0.341  0.00  0.00    +0.034 A 
ATOM     22  C   UNL     1       9.486   6.260  -0.366  0.00  0.00    +0.128 A 
ATOM     23  C   UNL     1       9.368   5.017  -0.961  0.00  0.00    +0.054 A 
ATOM     24  C   UNL     1       8.189   4.305  -0.847  0.00  0.00    +0.064 A 
ATOM     25 CL   UNL     1       8.043   2.742  -1.588  0.00  0.00    -0.082 Cl
BRANCH  22  26
ATOM     26  N   UNL     1      10.752   7.018  -0.485  0.00  0.00    +0.056 N 
ATOM     27  O   UNL     1      10.858   8.112   0.039  0.00  0.00    -0.126 OA
ATOM     28  O   UNL     1      11.688   6.547  -1.106  0.00  0.00    -0.126 OA
ENDBRANCH  22  26
ENDBRANCH  17  19
ENDBRANCH  15  17
ENDBRANCH   3  15
TORSDOF 6
