REMARK  Name = ZINC36027041
REMARK  7 active torsions:
REMARK  status: ('A' for Active; 'I' for Inactive)
REMARK    1  A    between atoms: C_4  and  C_7
REMARK    2  A    between atoms: C_7  and  C_8
REMARK    3  A    between atoms: N_12  and  C_30
REMARK    4  A    between atoms: N_17  and  C_20
REMARK    5  A    between atoms: C_20  and  N_22
REMARK    6  A    between atoms: N_22  and  C_23
REMARK    7  A    between atoms: C_30  and  C_31
REMARK                            x       y       z     vdW  Elec       q    Type
REMARK                         _______ _______ _______ _____ _____    ______ ____
ROOT
ATOM      1  C   UNL     1       4.302  -0.214   2.021  0.00  0.00    +0.023 C 
ATOM      2  C   UNL     1       5.509  -1.093   1.774  0.00  0.00    +0.201 C 
ATOM      3  O   UNL     1       5.619  -1.914   0.888  0.00  0.00    -0.277 OA
ATOM      4  N   UNL     1       6.443  -0.808   2.705  0.00  0.00    -0.311 N 
ATOM      5  C   UNL     1       5.938   0.234   3.603  0.00  0.00    +0.006 C 
ATOM      6  N   UNL     1       4.793   0.867   2.910  0.00  0.00    +0.401 N 
ATOM      7  C   UNL     1       5.464  -0.385   4.916  0.00  0.00    +0.025 C 
ATOM      8  C   UNL     1       6.646  -1.072   5.609  0.00  0.00    +0.107 C 
ATOM      9  N   UNL     1       7.741  -0.103   5.748  0.00  0.00    -0.312 N 
ATOM     10  C   UNL     1       8.217   0.603   4.551  0.00  0.00    +0.107 C 
ATOM     11  C   UNL     1       7.023   1.276   3.867  0.00  0.00    +0.025 C 
ATOM     12  H   UNL     1       5.100   1.661   2.369  0.00  0.00    -0.082 HD
ATOM     13  H   UNL     1       4.080   1.137   3.570  0.00  0.00    -0.082 HD
ENDROOT
BRANCH   9  14
ATOM     14  C   UNL     1       8.298   0.135   6.952  0.00  0.00    +0.137 C 
ATOM     15  S   UNL     1       7.823  -0.790   8.312  0.00  0.00    -0.018 S 
BRANCH  14  16
ATOM     16  N   UNL     1       9.230   1.099   7.085  0.00  0.00    -0.297 N 
ATOM     17  H   UNL     1      10.170   0.864   7.117  0.00  0.00    +0.154 HD
BRANCH  16  18
ATOM     18  C   UNL     1       8.840   2.441   7.176  0.00  0.00    +0.033 A 
ATOM     19  C   UNL     1       7.503   2.787   7.038  0.00  0.00    +0.026 A 
ATOM     20  C   UNL     1       7.120   4.111   7.128  0.00  0.00    +0.040 A 
ATOM     21  C   UNL     1       8.069   5.093   7.356  0.00  0.00    +0.124 A 
ATOM     22  C   UNL     1       9.404   4.750   7.493  0.00  0.00    +0.040 A 
ATOM     23  C   UNL     1       9.790   3.427   7.410  0.00  0.00    +0.026 A 
ATOM     24  F   UNL     1       7.694   6.388   7.444  0.00  0.00    -0.205 F 
ENDBRANCH  16  18
ENDBRANCH  14  16
ENDBRANCH   9  14
BRANCH   1  25
ATOM     25  C   UNL     1       3.791   0.372   0.703  0.00  0.00    +0.028 C 
BRANCH  25  29
ATOM     26  C   UNL     1       0.304   2.725   1.444  0.00  0.00    +0.000 A 
ATOM     27  C   UNL     1       1.556   3.311   1.488  0.00  0.00    +0.000 A 
ATOM     28  C   UNL     1       2.684   2.549   1.248  0.00  0.00    +0.003 A 
ATOM     29  C   UNL     1       2.561   1.202   0.965  0.00  0.00    -0.048 A 
ATOM     30  C   UNL     1       1.310   0.616   0.922  0.00  0.00    +0.003 A 
ATOM     31  C   UNL     1       0.181   1.378   1.160  0.00  0.00    +0.000 A 
ENDBRANCH  25  29
ENDBRANCH   1  25
BRANCH   4  32
ATOM     32  C   UNL     1       7.760  -1.443   2.804  0.00  0.00    +0.137 C 
BRANCH  32  33
ATOM     33  C   UNL     1       8.731  -0.756   1.841  0.00  0.00    +0.136 C 
ATOM     34  C   UNL     1      10.134  -1.386   1.975  0.00  0.00    +0.035 C 
ATOM     35  C   UNL     1      11.064  -0.147   1.858  0.00  0.00    +0.031 C 
ATOM     36  C   UNL     1      10.198   0.936   2.550  0.00  0.00    +0.160 C 
ATOM     37  O   UNL     1       8.844   0.632   2.173  0.00  0.00    -0.375 OA
ENDBRANCH  32  33
ENDBRANCH   4  32
TORSDOF 7
