REMARK  Name = ZINC08965443
REMARK  12 active torsions:
REMARK  status: ('A' for Active; 'I' for Inactive)
REMARK    1  A    between atoms: C_1  and  C_2
REMARK    2  A    between atoms: C_2  and  C_35
REMARK    3  A    between atoms: N_4  and  C_5
REMARK    4  A    between atoms: C_5  and  C_6
REMARK    5  A    between atoms: C_15  and  C_22
REMARK    6  A    between atoms: C_16  and  C_18
REMARK    7  A    between atoms: C_18  and  O_20
REMARK    8  A    between atoms: O_20  and  C_21
REMARK    9  A    between atoms: C_22  and  O_24
REMARK   10  A    between atoms: O_24  and  C_25
REMARK   11  A    between atoms: C_28  and  O_33
REMARK   12  A    between atoms: O_33  and  C_34
REMARK                            x       y       z     vdW  Elec       q    Type
REMARK                         _______ _______ _______ _____ _____    ______ ____
ROOT
ATOM      1  C   UNL     1      -0.299   1.925  -0.044  0.00  0.00    +0.038 C 
ATOM      2  C   UNL     1      -0.093   0.419   0.133  0.00  0.00    +0.069 C 
ATOM      3  C   UNL     1      -1.433  -0.256   0.284  0.00  0.00    +0.068 C 
ATOM      4  N   UNL     1      -2.494   0.265  -0.271  0.00  0.00    -0.281 NA
ATOM      5  C   UNL     1      -1.538  -1.452   1.027  0.00  0.00    +0.027 C 
ATOM      6  C   UNL     1      -2.737  -2.160   1.064  0.00  0.00    +0.060 C 
ATOM      7  S   UNL     1      -4.229  -1.884   0.138  0.00  0.00    -0.073 S 
ATOM      8  C   UNL     1      -5.348  -3.136   0.669  0.00  0.00    +0.118 C 
ATOM      9  C   UNL     1      -4.833  -3.961   1.601  0.00  0.00    +0.118 C 
ATOM     10  S   UNL     1      -3.171  -3.579   2.042  0.00  0.00    -0.073 S 
ATOM     11  C   UNL     1      -0.352  -1.942   1.767  0.00  0.00    +0.010 A 
ATOM     12  C   UNL     1      -0.339  -3.209   2.343  0.00  0.00    +0.056 A 
ATOM     13  C   UNL     1       0.791  -3.642   3.018  0.00  0.00    +0.121 A 
ATOM     14  C   UNL     1       1.904  -2.819   3.118  0.00  0.00    +0.047 A 
ATOM     15  C   UNL     1       1.894  -1.556   2.551  0.00  0.00    +0.027 A 
ATOM     16  C   UNL     1       0.770  -1.110   1.881  0.00  0.00    +0.036 A 
ATOM     17  N   UNL     1       0.724   0.176   1.326  0.00  0.00    -0.333 N 
ATOM     18  C   UNL     1       0.622  -0.144  -1.097  0.00  0.00    +0.038 C 
ATOM     19  H   UNL     1       1.228   0.901   1.729  0.00  0.00    +0.147 HD
ENDROOT
BRANCH   9  20
ATOM     20  C   UNL     1      -5.587  -5.081   2.192  0.00  0.00    +0.347 C 
ATOM     21  O   UNL     1      -5.477  -6.199   1.727  0.00  0.00    -0.244 OA
BRANCH  20  22
ATOM     22  O   UNL     1      -6.397  -4.866   3.247  0.00  0.00    -0.464 OA
ATOM     23  C   UNL     1      -7.097  -5.998   3.768  0.00  0.00    +0.280 C 
ENDBRANCH  20  22
ENDBRANCH   9  20
BRANCH   8  24
ATOM     24  C   UNL     1      -6.718  -3.269   0.144  0.00  0.00    +0.347 C 
ATOM     25  O   UNL     1      -7.474  -4.093   0.619  0.00  0.00    -0.244 OA
BRANCH  24  26
ATOM     26  O   UNL     1      -7.133  -2.475  -0.864  0.00  0.00    -0.464 OA
ATOM     27  C   UNL     1      -8.474  -2.658  -1.324  0.00  0.00    +0.280 C 
ENDBRANCH  24  26
ENDBRANCH   8  24
BRANCH  13  28
ATOM     28  O   UNL     1       0.810  -4.878   3.584  0.00  0.00    -0.495 OA
ATOM     29  C   UNL     1       2.006  -5.262   4.265  0.00  0.00    +0.277 C 
ENDBRANCH  13  28
BRANCH   4  30
ATOM     30  C   UNL     1      -2.359   1.110  -1.460  0.00  0.00    +0.177 C 
BRANCH  30  31
ATOM     31  C   UNL     1      -3.190   0.538  -2.580  0.00  0.00    -0.026 A 
ATOM     32  C   UNL     1      -2.672  -0.458  -3.385  0.00  0.00    +0.005 A 
ATOM     33  C   UNL     1      -3.434  -0.983  -4.412  0.00  0.00    +0.000 A 
ATOM     34  C   UNL     1      -4.714  -0.511  -4.634  0.00  0.00    +0.000 A 
ATOM     35  C   UNL     1      -5.232   0.485  -3.828  0.00  0.00    +0.000 A 
ATOM     36  C   UNL     1      -4.472   1.007  -2.798  0.00  0.00    +0.005 A 
ENDBRANCH  30  31
ENDBRANCH   4  30
TORSDOF 7
