REMARK  Name = ZINC39715591
REMARK  12 active torsions:
REMARK  status: ('A' for Active; 'I' for Inactive)
REMARK    1  A    between atoms: C_1  and  C_2
REMARK    2  A    between atoms: C_2  and  O_3
REMARK    3  A    between atoms: O_3  and  C_4
REMARK    4  A    between atoms: C_4  and  C_5
REMARK    5  A    between atoms: C_5  and  C_6
REMARK    6  A    between atoms: C_6  and  N_7
REMARK    7  A    between atoms: C_8  and  C_29
REMARK    8  A    between atoms: C_11  and  S_12
REMARK    9  A    between atoms: S_12  and  C_13
REMARK   10  A    between atoms: C_13  and  C_14
REMARK   11  A    between atoms: C_19  and  C_28
REMARK   12  A    between atoms: C_20  and  C_25
REMARK                            x       y       z     vdW  Elec       q    Type
REMARK                         _______ _______ _______ _____ _____    ______ ____
ROOT
ATOM      1  N   UNL     1       2.337  -4.172   3.837  0.00  0.00    -0.302 N 
ATOM      2  C   UNL     1       3.675  -4.476   3.947  0.00  0.00    +0.165 A 
ATOM      3  N   UNL     1       3.898  -4.782   5.205  0.00  0.00    -0.128 NA
ATOM      4  N   UNL     1       2.807  -4.691   5.878  0.00  0.00    -0.122 NA
ATOM      5  C   UNL     1       1.821  -4.315   5.092  0.00  0.00    +0.192 A 
ENDROOT
BRANCH   2   6
ATOM      6  C   UNL     1       4.672  -4.462   2.857  0.00  0.00    +0.022 A 
ATOM      7  C   UNL     1       4.432  -3.757   1.671  0.00  0.00    +0.031 A 
ATOM      8  C   UNL     1       5.390  -3.770   0.679  0.00  0.00    +0.111 A 
ATOM      9  N   UNL     1       6.519  -4.435   0.837  0.00  0.00    -0.263 NA
ATOM     10  C   UNL     1       6.785  -5.113   1.938  0.00  0.00    +0.111 A 
ATOM     11  C   UNL     1       5.886  -5.149   2.982  0.00  0.00    +0.031 A 
ENDBRANCH   2   6
BRANCH   1  12
ATOM     12  C   UNL     1       1.618  -3.771   2.625  0.00  0.00    +0.128 C 
BRANCH  12  13
ATOM     13  C   UNL     1       1.560  -2.244   2.548  0.00  0.00    +0.050 C 
BRANCH  13  14
ATOM     14  C   UNL     1       0.809  -1.826   1.282  0.00  0.00    +0.161 C 
BRANCH  14  15
ATOM     15  O   UNL     1       0.755  -0.399   1.210  0.00  0.00    -0.380 OA
BRANCH  15  17
ATOM     16  C   UNL     1       0.075   1.629   0.085  0.00  0.00    +0.034 C 
ATOM     17  C   UNL     1       0.071   0.099   0.058  0.00  0.00    +0.156 C 
ENDBRANCH  15  17
ENDBRANCH  14  15
ENDBRANCH  13  14
ENDBRANCH  12  13
ENDBRANCH   1  12
BRANCH   5  18
ATOM     18  S   UNL     1       0.146  -4.051   5.570  0.00  0.00    -0.078 S 
BRANCH  18  19
ATOM     19  C   UNL     1       0.136  -4.410   7.348  0.00  0.00    +0.151 C 
BRANCH  19  20
ATOM     20  C   UNL     1      -1.258  -4.219   7.891  0.00  0.00    +0.134 C 
ATOM     21  N   UNL     1      -2.203  -3.853   7.059  0.00  0.00    -0.160 NA
ATOM     22  C   UNL     1      -3.469  -3.658   7.443  0.00  0.00    +0.271 C 
ATOM     23  O   UNL     1      -4.324  -3.317   6.643  0.00  0.00    -0.268 OA
ATOM     24  C   UNL     1      -3.803  -3.873   8.887  0.00  0.00    +0.071 C 
ATOM     25  C   UNL     1      -4.992  -3.740   9.494  0.00  0.00    -0.034 C 
ATOM     26  C   UNL     1      -5.059  -4.021  10.978  0.00  0.00    +0.192 C 
ATOM     27  S   UNL     1      -3.315  -4.467  11.353  0.00  0.00    -0.086 S 
ATOM     28  C   UNL     1      -2.651  -4.284   9.717  0.00  0.00    +0.112 C 
ATOM     29  N   UNL     1      -1.464  -4.436   9.180  0.00  0.00    -0.227 NA
ATOM     30  C   UNL     1      -6.218  -3.325   8.723  0.00  0.00    +0.041 C 
BRANCH  26  31
ATOM     31  C   UNL     1      -5.986  -5.173  11.268  0.00  0.00    +0.373 C 
ATOM     32  O   UNL     1      -5.538  -6.301  11.385  0.00  0.00    -0.245 OA
ATOM     33  O   UNL     1      -7.184  -4.977  11.386  0.00  0.00    -0.245 OA
ENDBRANCH  26  31
ENDBRANCH  19  20
ENDBRANCH  18  19
ENDBRANCH   5  18
TORSDOF 10
