REMARK  Name = ZINC52816386
REMARK  10 active torsions:
REMARK  status: ('A' for Active; 'I' for Inactive)
REMARK    1  A    between atoms: C_1  and  C_2
REMARK    2  A    between atoms: C_2  and  C_3
REMARK    3  A    between atoms: C_2  and  N_4
REMARK    4  A    between atoms: C_5  and  S_9
REMARK    5  A    between atoms: S_9  and  C_10
REMARK    6  A    between atoms: C_10  and  C_11
REMARK    7  A    between atoms: C_11  and  C_13
REMARK    8  A    between atoms: C_11  and  O_22
REMARK    9  A    between atoms: C_13  and  O_14
REMARK   10  A    between atoms: O_14  and  C_15
REMARK                            x       y       z     vdW  Elec       q    Type
REMARK                         _______ _______ _______ _____ _____    ______ ____
ROOT
ATOM      1  C   UNL     1      -2.027  -3.499  -4.473  0.00  0.00    +0.162 C 
ENDROOT
BRANCH   1   2
ATOM      2  O   UNL     1      -0.988  -4.436  -4.186  0.00  0.00    -0.388 OA
ATOM      3  H   UNL     1      -1.266  -5.171  -3.621  0.00  0.00    +0.210 HD
ENDBRANCH   1   2
BRANCH   1   4
ATOM      4  C   UNL     1      -2.543  -2.893  -3.167  0.00  0.00    +0.112 C 
BRANCH   4   5
ATOM      5  S   UNL     1      -1.223  -1.923  -2.387  0.00  0.00    -0.082 S 
BRANCH   5   7
ATOM      6  N   UNL     1      -1.372  -0.511   0.012  0.00  0.00    -0.218 N 
ATOM      7  C   UNL     1      -1.965  -1.300  -0.915  0.00  0.00    +0.210 A 
ATOM      8  N   UNL     1      -3.198  -1.513  -0.511  0.00  0.00    -0.102 NA
ATOM      9  N   UNL     1      -3.416  -0.913   0.604  0.00  0.00    -0.022 NA
ATOM     10  N   UNL     1      -2.357  -0.288   0.991  0.00  0.00    -0.043 NA
BRANCH   6  12
ATOM     11  C   UNL     1      -0.019   1.526   0.010  0.00  0.00    +0.032 C 
ATOM     12  C   UNL     1       0.002  -0.004   0.002  0.00  0.00    +0.106 C 
ATOM     13  C   UNL     1       0.742  -0.511   1.242  0.00  0.00    +0.032 C 
ENDBRANCH   6  12
ENDBRANCH   5   7
ENDBRANCH   4   5
ENDBRANCH   1   4
BRANCH   1  14
ATOM     14  C   UNL     1      -3.173  -4.212  -5.193  0.00  0.00    +0.261 C 
BRANCH  14  15
ATOM     15  O   UNL     1      -2.721  -4.678  -6.466  0.00  0.00    -0.489 OA
BRANCH  15  16
ATOM     16  C   UNL     1      -3.623  -5.338  -7.238  0.00  0.00    +0.121 A 
ATOM     17  C   UNL     1      -4.919  -5.530  -6.781  0.00  0.00    +0.047 A 
ATOM     18  C   UNL     1      -5.835  -6.202  -7.568  0.00  0.00    +0.019 A 
ATOM     19  C   UNL     1      -5.461  -6.683  -8.809  0.00  0.00    +0.018 A 
ATOM     20  C   UNL     1      -4.169  -6.494  -9.266  0.00  0.00    +0.019 A 
ATOM     21  C   UNL     1      -3.252  -5.817  -8.486  0.00  0.00    +0.047 A 
ATOM     22 BR   UNL     1      -6.717  -7.603  -9.883  0.00  0.00    -0.050 Br
ENDBRANCH  15  16
ENDBRANCH  14  15
ENDBRANCH   1  14
TORSDOF 8
