REMARK  Name = ZINC11963243
REMARK  11 active torsions:
REMARK  status: ('A' for Active; 'I' for Inactive)
REMARK    1  A    between atoms: C_1  and  O_2
REMARK    2  A    between atoms: O_2  and  C_3
REMARK    3  A    between atoms: C_3  and  C_4
REMARK    4  A    between atoms: C_4  and  N_5
REMARK    5  A    between atoms: N_5  and  C_6
REMARK    6  A    between atoms: C_6  and  C_7
REMARK    7  A    between atoms: C_15  and  N_16
REMARK    8  A    between atoms: C_20  and  C_23
REMARK    9  A    between atoms: C_23  and  O_24
REMARK   10  A    between atoms: C_26  and  C_28
REMARK   11  A    between atoms: C_28  and  C_29
REMARK                            x       y       z     vdW  Elec       q    Type
REMARK                         _______ _______ _______ _____ _____    ______ ____
ROOT
ATOM      1  C   UNL     1      -3.463   3.475  -0.229  0.00  0.00    +0.008 A 
ATOM      2  C   UNL     1      -2.373   4.241   0.057  0.00  0.00    +0.018 A 
ATOM      3  C   UNL     1      -1.107   3.783  -0.358  0.00  0.00    -0.001 A 
ATOM      4  C   UNL     1       0.055   4.530  -0.110  0.00  0.00    +0.011 A 
ATOM      5  C   UNL     1       1.263   4.057  -0.526  0.00  0.00    +0.021 A 
ATOM      6  C   UNL     1       1.360   2.838  -1.196  0.00  0.00    +0.043 A 
ATOM      7  C   UNL     1       0.252   2.088  -1.453  0.00  0.00    +0.046 A 
ATOM      8  C   UNL     1      -1.011   2.547  -1.044  0.00  0.00    +0.049 A 
ATOM      9  C   UNL     1      -3.303   2.258  -0.907  0.00  0.00    +0.104 A 
ATOM     10 CL   UNL     1       2.917   2.268  -1.710  0.00  0.00    -0.083 Cl
ATOM     11  N   UNL     1      -2.110   1.766  -1.325  0.00  0.00    -0.343 N 
ATOM     12  H   UNL     1      -2.031   0.869  -1.819  0.00  0.00    +0.167 HD
ENDROOT
BRANCH   9  13
ATOM     13  N   UNL     1      -4.420   1.484  -1.182  0.00  0.00    -0.316 N 
ATOM     14  C   UNL     1      -4.559   1.256  -2.626  0.00  0.00    +0.106 C 
ATOM     15  C   UNL     1      -5.875   0.526  -2.904  0.00  0.00    +0.019 C 
ATOM     16  C   UNL     1      -5.881  -0.810  -2.155  0.00  0.00    +0.009 C 
ATOM     17  C   UNL     1      -5.686  -0.547  -0.659  0.00  0.00    +0.032 C 
ATOM     18  C   UNL     1      -4.375   0.214  -0.446  0.00  0.00    +0.112 C 
BRANCH  17  19
ATOM     19  C   UNL     1      -5.630  -1.880   0.090  0.00  0.00    +0.160 C 
BRANCH  19  20
ATOM     20  O   UNL     1      -6.893  -2.540  -0.016  0.00  0.00    -0.395 OA
ATOM     21  H   UNL     1      -6.930  -3.393   0.437  0.00  0.00    +0.209 HD
ENDBRANCH  19  20
ENDBRANCH  17  19
ENDBRANCH   9  13
BRANCH   1  22
ATOM     22  C   UNL     1      -4.837   3.929   0.192  0.00  0.00    +0.146 C 
BRANCH  22  23
ATOM     23  N   UNL     1      -4.722   5.138   1.012  0.00  0.00    -0.295 N 
ATOM     24  C   UNL     1      -4.615   6.345   0.421  0.00  0.00    +0.216 C 
ATOM     25  O   UNL     1      -4.615   6.430  -0.789  0.00  0.00    -0.276 OA
BRANCH  23  26
ATOM     26  C   UNL     1      -4.722   5.035   2.473  0.00  0.00    +0.136 C 
BRANCH  26  27
ATOM     27  C   UNL     1      -3.304   4.738   2.963  0.00  0.00    +0.178 C 
BRANCH  27  29
ATOM     28  C   UNL     1      -1.097   5.668   3.075  0.00  0.00    +0.194 C 
ATOM     29  O   UNL     1      -2.452   5.844   2.657  0.00  0.00    -0.381 OA
ENDBRANCH  27  29
ENDBRANCH  26  27
ENDBRANCH  23  26
BRANCH  24  30
ATOM     30  C   UNL     1      -4.497   7.588   1.264  0.00  0.00    +0.099 C 
BRANCH  30  31
ATOM     31  C   UNL     1      -4.391   8.813   0.354  0.00  0.00    -0.002 C 
ATOM     32  C   UNL     1      -3.058   8.781  -0.422  0.00  0.00    +0.004 C 
ATOM     33  C   UNL     1      -2.619  10.266  -0.482  0.00  0.00    +0.000 C 
ATOM     34  C   UNL     1      -3.037  10.804   0.909  0.00  0.00    +0.000 C 
ATOM     35  C   UNL     1      -4.378  10.099   1.200  0.00  0.00    +0.004 C 
ENDBRANCH  30  31
ENDBRANCH  24  30
ENDBRANCH  22  23
ENDBRANCH   1  22
TORSDOF 10
