REMARK  Name = ZINC58948313
REMARK  9 active torsions:
REMARK  status: ('A' for Active; 'I' for Inactive)
REMARK    1  A    between atoms: C_1  and  C_2
REMARK    2  A    between atoms: C_3  and  N_9
REMARK    3  A    between atoms: N_9  and  C_10
REMARK    4  A    between atoms: C_10  and  C_11
REMARK    5  A    between atoms: N_13  and  N_14
REMARK    6  A    between atoms: N_14  and  C_15
REMARK    7  A    between atoms: C_17  and  O_18
REMARK    8  A    between atoms: C_20  and  C_22
REMARK    9  A    between atoms: C_20  and  C_23
REMARK                            x       y       z     vdW  Elec       q    Type
REMARK                         _______ _______ _______ _____ _____    ______ ____
ROOT
ATOM      1  C   UNL     1      -0.025   0.265  -4.825  0.00  0.00    +0.246 C 
ATOM      2  O   UNL     1      -0.041   1.456  -4.599  0.00  0.00    -0.273 OA
ATOM      3  N   UNL     1      -0.025  -0.180  -6.097  0.00  0.00    -0.235 N 
ATOM      4  H   UNL     1      -0.013  -1.133  -6.277  0.00  0.00    +0.173 HD
ENDROOT
BRANCH   3   5
ATOM      5  N   UNL     1      -0.043   0.734  -7.158  0.00  0.00    -0.265 N 
ATOM      6  H   UNL     1      -0.055   1.687  -6.978  0.00  0.00    +0.170 HD
BRANCH   5   7
ATOM      7  C   UNL     1      -0.043   0.273  -8.476  0.00  0.00    +0.044 C 
ATOM      8  C   UNL     1      -0.062   1.231  -9.595  0.00  0.00    +0.065 C 
ATOM      9  C   UNL     1      -0.446   0.823 -10.808  0.00  0.00    +0.097 C 
ATOM     10  C   UNL     1      -0.860  -0.608 -11.029  0.00  0.00    +0.084 C 
ATOM     11  C   UNL     1      -0.022  -1.536 -10.151  0.00  0.00    -0.008 C 
ATOM     12  C   UNL     1      -0.021  -1.041  -8.730  0.00  0.00    +0.004 C 
ATOM     13  C   UNL     1       1.416  -1.568 -10.674  0.00  0.00    +0.016 C 
ATOM     14  C   UNL     1      -0.609  -2.948 -10.199  0.00  0.00    +0.016 C 
BRANCH   9  15
ATOM     15  O   UNL     1      -0.463   1.698 -11.841  0.00  0.00    -0.511 OA
ATOM     16  H   UNL     1      -0.180   2.592 -11.604  0.00  0.00    +0.292 HD
ENDBRANCH   9  15
ENDBRANCH   5   7
ENDBRANCH   3   5
BRANCH   1  17
ATOM     17  C   UNL     1      -0.006  -0.718  -3.683  0.00  0.00    +0.199 C 
BRANCH  17  18
ATOM     18  N   UNL     1      -0.010   0.010  -2.411  0.00  0.00    -0.335 N 
ATOM     19  H   UNL     1      -0.023   0.980  -2.408  0.00  0.00    +0.147 HD
BRANCH  18  22
ATOM     20  C   UNL     1      -0.018   1.503   0.010  0.00  0.00    +0.047 C 
ATOM     21  C   UNL     1       0.002  -0.004   0.002  0.00  0.00    -0.011 A 
ATOM     22  C   UNL     1       0.006  -0.693  -1.204  0.00  0.00    +0.032 A 
ATOM     23  C   UNL     1       0.025  -2.082  -1.208  0.00  0.00    +0.023 A 
ATOM     24  C   UNL     1       0.040  -2.774  -0.012  0.00  0.00    +0.003 A 
ATOM     25  C   UNL     1       0.035  -2.087   1.187  0.00  0.00    +0.020 A 
ATOM     26  C   UNL     1       0.023  -0.702   1.194  0.00  0.00    +0.046 A 
ATOM     27 CL   UNL     1       0.026   0.157   2.703  0.00  0.00    -0.083 Cl
ENDBRANCH  18  22
ENDBRANCH  17  18
ENDBRANCH   1  17
TORSDOF 6
