REMARK  Name = ZINC28644759
REMARK  14 active torsions:
REMARK  status: ('A' for Active; 'I' for Inactive)
REMARK    1  A    between atoms: C_1  and  C_2
REMARK    2  A    between atoms: C_6  and  C_35
REMARK    3  A    between atoms: C_7  and  C_34
REMARK    4  A    between atoms: C_9  and  O_33
REMARK    5  A    between atoms: C_11  and  C_30
REMARK    6  A    between atoms: C_11  and  C_31
REMARK    7  A    between atoms: C_13  and  O_19
REMARK    8  A    between atoms: C_15  and  C_18
REMARK    9  A    between atoms: O_19  and  C_20
REMARK   10  A    between atoms: C_20  and  C_22
REMARK   11  A    between atoms: C_22  and  S_23
REMARK   12  A    between atoms: S_23  and  C_24
REMARK   13  A    between atoms: C_35  and  C_36
REMARK   14  A    between atoms: C_36  and  C_37
REMARK                            x       y       z     vdW  Elec       q    Type
REMARK                         _______ _______ _______ _____ _____    ______ ____
ROOT
ATOM      1  C   UNL     1      -0.042   0.762  -0.099  0.00  0.00    +0.008 C 
ATOM      2  C   UNL     1      -0.671   1.485   1.086  0.00  0.00    +0.003 C 
ATOM      3  C   UNL     1       0.042   1.076   2.375  0.00  0.00    +0.005 C 
ATOM      4  C   UNL     1      -0.411  -0.317   2.809  0.00  0.00    +0.015 C 
ATOM      5  C   UNL     1      -1.861  -0.240   3.288  0.00  0.00    +0.035 C 
ATOM      6  C   UNL     1      -2.486  -1.613   3.366  0.00  0.00    +0.029 C 
ATOM      7  C   UNL     1      -2.786  -2.348   2.098  0.00  0.00    +0.128 C 
ATOM      8  C   UNL     1      -3.557  -1.698   0.980  0.00  0.00    +0.015 C 
ATOM      9  C   UNL     1      -2.712  -0.884   0.046  0.00  0.00    +0.059 C 
ATOM     10  C   UNL     1      -2.819   0.612   0.009  0.00  0.00    +0.191 C 
ATOM     11  C   UNL     1      -2.174   1.333   1.177  0.00  0.00    +0.066 C 
ATOM     12  C   UNL     1      -2.625   0.757   2.487  0.00  0.00    +0.149 C 
ATOM     13  O   UNL     1      -3.659   1.185   2.940  0.00  0.00    -0.296 OA
ATOM     14  C   UNL     1      -2.750   2.774   1.148  0.00  0.00    +0.023 C 
ATOM     15  C   UNL     1      -4.816  -0.998   1.465  0.00  0.00    +0.018 C 
ATOM     16  C   UNL     1      -3.669  -1.629   4.340  0.00  0.00    +0.011 C 
ENDROOT
BRANCH   8  17
ATOM     17  C   UNL     1      -4.077  -2.871   0.126  0.00  0.00    -0.025 C 
ATOM     18  C   UNL     1      -5.365  -3.057  -0.016  0.00  0.00    +0.004 C 
ENDBRANCH   8  17
BRANCH   7  19
ATOM     19  O   UNL     1      -1.566  -2.894   1.557  0.00  0.00    -0.391 OA
ATOM     20  H   UNL     1      -1.589  -3.471   0.621  0.00  0.00    +0.210 HD
ENDBRANCH   7  19
BRANCH  10  21
ATOM     21  O   UNL     1      -4.189   1.067  -0.161  0.00  0.00    -0.460 OA
BRANCH  21  22
ATOM     22  C   UNL     1      -4.688   1.046  -1.407  0.00  0.00    +0.318 C 
ATOM     23  O   UNL     1      -4.004   0.659  -2.325  0.00  0.00    -0.250 OA
BRANCH  22  24
ATOM     24  C   UNL     1      -6.101   1.504  -1.661  0.00  0.00    +0.196 C 
BRANCH  24  25
ATOM     25  S   UNL     1      -6.476   1.356  -3.429  0.00  0.00    -0.095 S 
BRANCH  25  26
ATOM     26  C   UNL     1      -8.140   1.921  -3.561  0.00  0.00    +0.097 A 
ATOM     27  C   UNL     1      -8.764   1.944  -4.805  0.00  0.00    +0.035 A 
ATOM     28  C   UNL     1     -10.070   2.390  -4.893  0.00  0.00    +0.004 A 
ATOM     29  C   UNL     1     -10.711   2.800  -3.731  0.00  0.00    +0.020 A 
ATOM     30  C   UNL     1     -10.032   2.751  -2.531  0.00  0.00    +0.112 A 
ATOM     31  N   UNL     1      -8.787   2.316  -2.474  0.00  0.00    -0.249 NA
ENDBRANCH  25  26
ENDBRANCH  24  25
ENDBRANCH  22  24
ENDBRANCH  21  22
ENDBRANCH  10  21
BRANCH   5  32
ATOM     32  C   UNL     1      -1.809   0.304   4.734  0.00  0.00    +0.026 C 
BRANCH  32  33
ATOM     33  C   UNL     1      -0.995  -0.652   5.609  0.00  0.00    +0.126 C 
BRANCH  33  34
ATOM     34  C   UNL     1      -1.061  -0.199   7.045  0.00  0.00    +0.356 C 
ATOM     35  O   UNL     1      -1.694   0.788   7.338  0.00  0.00    -0.246 OA
ATOM     36  O   UNL     1      -0.417  -0.890   7.998  0.00  0.00    -0.246 OA
ENDBRANCH  33  34
ENDBRANCH  32  33
ENDBRANCH   5  32
TORSDOF 10
