REMARK  Name = ZINC08424544
REMARK  7 active torsions:
REMARK  status: ('A' for Active; 'I' for Inactive)
REMARK    1  A    between atoms: C_1  and  N_2
REMARK    2  A    between atoms: N_2  and  C_3
REMARK    3  A    between atoms: N_2  and  C_4
REMARK    4  A    between atoms: C_7  and  C_13
REMARK    5  A    between atoms: C_9  and  N_10
REMARK    6  A    between atoms: N_14  and  N_15
REMARK    7  A    between atoms: C_16  and  C_17
REMARK                            x       y       z     vdW  Elec       q    Type
REMARK                         _______ _______ _______ _____ _____    ______ ____
ROOT
ATOM      1  C   UNL     1      -0.141  -2.880  -4.796  0.00  0.00    +0.140 C 
ATOM      2  N   UNL     1       1.042  -3.213  -5.353  0.00  0.00    -0.180 NA
ENDROOT
BRANCH   1   6
ATOM      3  C   UNL     1      -0.236  -0.958  -1.082  0.00  0.00    +0.060 A 
ATOM      4  C   UNL     1       1.004  -1.299  -1.647  0.00  0.00    +0.026 A 
ATOM      5  C   UNL     1       1.071  -1.922  -2.849  0.00  0.00    +0.011 A 
ATOM      6  C   UNL     1      -0.173  -2.240  -3.559  0.00  0.00    -0.003 A 
ATOM      7  C   UNL     1      -1.450  -1.870  -2.940  0.00  0.00    +0.044 A 
ATOM      8  C   UNL     1      -1.445  -1.252  -1.733  0.00  0.00    +0.148 A 
BRANCH   3  10
ATOM      9  C   UNL     1      -0.245   1.134   0.202  0.00  0.00    +0.129 C 
ATOM     10  N   UNL     1      -0.267  -0.329   0.134  0.00  0.00    -0.334 N 
ATOM     11  C   UNL     1      -0.323  -1.119   1.366  0.00  0.00    +0.129 C 
ENDBRANCH   3  10
BRANCH   8  12
ATOM     12  N   UNL     1      -2.729  -0.879  -1.097  0.00  0.00    +0.058 N 
ATOM     13  O   UNL     1      -3.867  -1.152  -1.702  0.00  0.00    -0.126 OA
ATOM     14  O   UNL     1      -2.733  -0.274   0.072  0.00  0.00    -0.126 OA
ENDBRANCH   8  12
ENDBRANCH   1   6
BRANCH   2  15
ATOM     15  N   UNL     1       1.071  -3.806  -6.499  0.00  0.00    -0.263 N 
ATOM     16  C   UNL     1       2.267  -4.143  -7.062  0.00  0.00    +0.143 C 
ATOM     17  N   UNL     1       3.413  -3.859  -6.424  0.00  0.00    -0.342 N 
ATOM     18  H   UNL     1       3.390  -3.485  -5.529  0.00  0.00    +0.144 HD
ATOM     19  H   UNL     1       4.264  -4.027  -6.857  0.00  0.00    +0.144 HD
ATOM     20  H   UNL     1       0.243  -4.011  -6.960  0.00  0.00    +0.190 HD
BRANCH  16  21
ATOM     21  C   UNL     1       2.300  -4.818  -8.367  0.00  0.00    +0.187 A 
ATOM     22  C   UNL     1       1.246  -4.769  -9.391  0.00  0.00    +0.191 A 
ATOM     23  N   UNL     1       1.631  -5.487 -10.410  0.00  0.00    -0.033 NA
ATOM     24  O   UNL     1       2.909  -6.021 -10.114  0.00  0.00    -0.240 OA
ATOM     25  N   UNL     1       3.280  -5.565  -8.825  0.00  0.00    -0.044 NA
ATOM     26  N   UNL     1       0.048  -4.080  -9.291  0.00  0.00    -0.339 N 
ATOM     27  H   UNL     1      -0.104  -3.476  -8.547  0.00  0.00    +0.144 HD
ATOM     28  H   UNL     1      -0.639  -4.201  -9.965  0.00  0.00    +0.144 HD
ENDBRANCH  16  21
ENDBRANCH   2  15
TORSDOF 5
