REMARK  Name = ZINC39730393
REMARK  9 active torsions:
REMARK  status: ('A' for Active; 'I' for Inactive)
REMARK    1  A    between atoms: C_1  and  C_2
REMARK    2  A    between atoms: C_2  and  O_3
REMARK    3  A    between atoms: O_3  and  C_4
REMARK    4  A    between atoms: C_7  and  C_10
REMARK    5  A    between atoms: C_16  and  S_20
REMARK    6  A    between atoms: S_20  and  C_21
REMARK    7  A    between atoms: C_21  and  C_22
REMARK    8  A    between atoms: C_35  and  C_37
REMARK    9  A    between atoms: C_35  and  C_38
REMARK                            x       y       z     vdW  Elec       q    Type
REMARK                         _______ _______ _______ _____ _____    ______ ____
ROOT
ATOM      1  C   UNL     1      -2.001  -6.092  -0.011  0.00  0.00    +0.073 C 
ATOM      2  C   UNL     1      -2.793  -6.511  -1.245  0.00  0.00    +0.156 C 
ATOM      3  C   UNL     1      -3.215  -7.948  -1.110  0.00  0.00    +0.145 C 
ATOM      4  N   UNL     1      -3.098  -8.780  -2.124  0.00  0.00    -0.208 NA
ATOM      5  C   UNL     1      -2.506  -8.426  -3.265  0.00  0.00    +0.182 C 
ATOM      6  N   UNL     1      -1.944  -7.235  -3.435  0.00  0.00    -0.154 NA
ATOM      7  C   UNL     1      -2.013  -6.308  -2.506  0.00  0.00    +0.250 C 
ATOM      8  O   UNL     1      -1.433  -5.254  -2.687  0.00  0.00    -0.273 OA
ATOM      9  N   UNL     1      -3.649  -8.393   0.065  0.00  0.00    -0.236 NA
ATOM     10  C   UNL     1      -3.555  -7.681   1.172  0.00  0.00    +0.051 C 
ATOM     11  C   UNL     1      -2.775  -6.520   1.218  0.00  0.00    +0.025 C 
ATOM     12  C   UNL     1      -2.698  -5.765   2.337  0.00  0.00    +0.162 C 
ATOM     13  O   UNL     1      -1.957  -4.641   2.316  0.00  0.00    -0.292 OA
ATOM     14  C   UNL     1      -3.415  -6.142   3.603  0.00  0.00    +0.086 C 
ATOM     15  C   UNL     1      -4.662  -6.961   3.265  0.00  0.00    -0.023 C 
ATOM     16  C   UNL     1      -4.247  -8.170   2.421  0.00  0.00    +0.062 C 
ATOM     17  C   UNL     1      -5.326  -7.441   4.558  0.00  0.00    +0.011 C 
ATOM     18  C   UNL     1      -5.644  -6.098   2.471  0.00  0.00    +0.011 C 
ENDROOT
BRANCH   1  22
ATOM     19  C   UNL     1      -1.498  -1.848   0.006  0.00  0.00    +0.121 A 
ATOM     20  C   UNL     1      -0.388  -2.679  -0.003  0.00  0.00    +0.046 A 
ATOM     21  C   UNL     1      -0.553  -4.051  -0.008  0.00  0.00    +0.008 A 
ATOM     22  C   UNL     1      -1.823  -4.596  -0.005  0.00  0.00    -0.038 A 
ATOM     23  C   UNL     1      -2.932  -3.769   0.004  0.00  0.00    +0.008 A 
ATOM     24  C   UNL     1      -2.772  -2.397   0.016  0.00  0.00    +0.046 A 
BRANCH  19  25
ATOM     25  O   UNL     1      -1.339  -0.499   0.012  0.00  0.00    -0.492 OA
BRANCH  25  27
ATOM     26  C   UNL     1      -0.019   1.526   0.010  0.00  0.00    +0.048 C 
ATOM     27  C   UNL     1       0.002  -0.004   0.002  0.00  0.00    +0.225 C 
ENDBRANCH  25  27
ENDBRANCH  19  25
ENDBRANCH   1  22
BRANCH   5  28
ATOM     28  S   UNL     1      -2.469  -9.580  -4.596  0.00  0.00    -0.084 S 
BRANCH  28  29
ATOM     29  C   UNL     1      -1.589  -8.700  -5.915  0.00  0.00    +0.115 C 
BRANCH  29  30
ATOM     30  C   UNL     1      -1.485  -9.588  -7.129  0.00  0.00    -0.002 A 
ATOM     31  C   UNL     1      -0.401 -10.432  -7.278  0.00  0.00    +0.007 A 
ATOM     32  C   UNL     1      -0.306 -11.246  -8.391  0.00  0.00    +0.000 A 
ATOM     33  C   UNL     1      -1.295 -11.217  -9.356  0.00  0.00    +0.003 A 
ATOM     34  C   UNL     1      -2.380 -10.375  -9.209  0.00  0.00    +0.038 A 
ATOM     35  C   UNL     1      -2.479  -9.562  -8.092  0.00  0.00    +0.127 A 
ATOM     36  F   UNL     1      -3.542  -8.742  -7.945  0.00  0.00    -0.205 F 
ENDBRANCH  29  30
ENDBRANCH  28  29
ENDBRANCH   5  28
TORSDOF 6
