REMARK  Name = ZINC38806400
REMARK  12 active torsions:
REMARK  status: ('A' for Active; 'I' for Inactive)
REMARK    1  A    between atoms: C_1  and  C_2
REMARK    2  A    between atoms: C_2  and  O_3
REMARK    3  A    between atoms: O_3  and  C_4
REMARK    4  A    between atoms: C_4  and  C_6
REMARK    5  A    between atoms: C_10  and  N_11
REMARK    6  A    between atoms: C_12  and  C_14
REMARK    7  A    between atoms: C_17  and  N_23
REMARK    8  A    between atoms: C_18  and  N_20
REMARK    9  A    between atoms: C_29  and  C_35
REMARK   10  A    between atoms: C_29  and  C_36
REMARK   11  A    between atoms: C_31  and  C_33
REMARK   12  A    between atoms: C_31  and  C_34
REMARK                            x       y       z     vdW  Elec       q    Type
REMARK                         _______ _______ _______ _____ _____    ______ ____
ROOT
ATOM      1  C   UNL     1       1.449  -2.344  -2.516  0.00  0.00    +0.091 A 
ATOM      2  C   UNL     1       2.869  -2.618  -2.533  0.00  0.00    -0.024 A 
ATOM      3  C   UNL     1       3.334  -3.112  -3.704  0.00  0.00    -0.016 A 
ATOM      4  S   UNL     1       1.904  -3.214  -4.737  0.00  0.00    -0.079 S 
ATOM      5  C   UNL     1       0.741  -2.622  -3.680  0.00  0.00    +0.086 A 
ATOM      6  C   UNL     1       4.750  -3.468  -4.013  0.00  0.00    -0.041 C 
ATOM      7  N   UNL     1       5.605  -3.427  -2.828  0.00  0.00    +0.389 N 
ATOM      8  C   UNL     1       4.935  -3.493  -1.536  0.00  0.00    -0.069 C 
ATOM      9  C   UNL     1       3.853  -2.415  -1.392  0.00  0.00    +0.024 C 
ATOM     10  C   UNL     1       4.314  -4.872  -1.307  0.00  0.00    -0.010 C 
ATOM     11  C   UNL     1       5.985  -3.257  -0.433  0.00  0.00    -0.010 C 
ATOM     12  C   UNL     1       5.288  -2.457  -5.045  0.00  0.00    -0.005 C 
ATOM     13  C   UNL     1       4.797  -4.863  -4.652  0.00  0.00    -0.005 C 
ATOM     14  H   UNL     1       6.276  -4.196  -2.885  0.00  0.00    -0.084 HD
ATOM     15  H   UNL     1       6.164  -2.572  -2.861  0.00  0.00    -0.084 HD
ENDROOT
BRANCH   5  16
ATOM     16  N   UNL     1      -0.613  -2.449  -3.912  0.00  0.00    -0.275 N 
ATOM     17  C   UNL     1      -1.138  -2.773  -5.111  0.00  0.00    +0.249 C 
ATOM     18  O   UNL     1      -0.423  -3.217  -5.988  0.00  0.00    -0.270 OA
ATOM     19  H   UNL     1      -1.184  -2.095  -3.213  0.00  0.00    +0.156 HD
BRANCH  17  20
ATOM     20  C   UNL     1      -2.580  -2.589  -5.358  0.00  0.00    +0.039 A 
ATOM     21  C   UNL     1      -3.403  -2.073  -4.352  0.00  0.00    +0.015 A 
ATOM     22  C   UNL     1      -4.748  -1.902  -4.586  0.00  0.00    +0.026 A 
ATOM     23  C   UNL     1      -5.290  -2.243  -5.823  0.00  0.00    +0.060 A 
ATOM     24  C   UNL     1      -4.473  -2.757  -6.826  0.00  0.00    +0.148 A 
ATOM     25  C   UNL     1      -3.126  -2.925  -6.600  0.00  0.00    +0.047 A 
BRANCH  23  26
ATOM     26  N   UNL     1      -6.650  -2.069  -6.056  0.00  0.00    -0.328 N 
ATOM     27  C   UNL     1      -7.604  -3.145  -5.756  0.00  0.00    +0.105 C 
ATOM     28  C   UNL     1      -8.703  -2.590  -4.845  0.00  0.00    +0.019 C 
ATOM     29  C   UNL     1      -9.331  -1.359  -5.503  0.00  0.00    +0.003 C 
ATOM     30  C   UNL     1      -8.264  -0.277  -5.686  0.00  0.00    +0.019 C 
ATOM     31  C   UNL     1      -7.160  -0.804  -6.601  0.00  0.00    +0.105 C 
ENDBRANCH  23  26
BRANCH  24  32
ATOM     32  N   UNL     1      -5.053  -3.117  -8.139  0.00  0.00    +0.058 N 
ATOM     33  O   UNL     1      -4.345  -3.564  -9.011  0.00  0.00    -0.126 OA
ATOM     34  O   UNL     1      -6.236  -2.965  -8.340  0.00  0.00    -0.126 OA
ENDBRANCH  24  32
ENDBRANCH  17  20
ENDBRANCH   5  16
BRANCH   1  35
ATOM     35  C   UNL     1       0.776  -1.800  -1.335  0.00  0.00    +0.342 C 
ATOM     36  O   UNL     1       0.312  -2.552  -0.499  0.00  0.00    -0.245 OA
BRANCH  35  37
ATOM     37  O   UNL     1       0.671  -0.465  -1.174  0.00  0.00    -0.461 OA
BRANCH  37  39
ATOM     38  C   UNL     1      -0.019   1.526   0.010  0.00  0.00    +0.048 C 
ATOM     39  C   UNL     1       0.002  -0.004   0.002  0.00  0.00    +0.229 C 
ENDBRANCH  37  39
ENDBRANCH  35  37
ENDBRANCH   1  35
TORSDOF 7
