REMARK  Name = ZINC38772882
REMARK  11 active torsions:
REMARK  status: ('A' for Active; 'I' for Inactive)
REMARK    1  A    between atoms: C_1  and  C_2
REMARK    2  A    between atoms: C_2  and  C_3
REMARK    3  A    between atoms: C_6  and  N_9
REMARK    4  A    between atoms: N_9  and  C_10
REMARK    5  A    between atoms: N_9  and  S_27
REMARK    6  A    between atoms: C_10  and  C_11
REMARK    7  A    between atoms: N_13  and  C_14
REMARK    8  A    between atoms: C_14  and  C_15
REMARK    9  A    between atoms: C_18  and  N_21
REMARK   10  A    between atoms: C_25  and  C_26
REMARK   11  A    between atoms: S_27  and  C_30
REMARK                            x       y       z     vdW  Elec       q    Type
REMARK                         _______ _______ _______ _____ _____    ______ ____
ROOT
ATOM      1  C   UNL     1      -6.209  -1.573   1.136  0.00  0.00    +0.227 C 
ENDROOT
BRANCH   1   2
ATOM      2  C   UNL     1      -6.611  -0.132   0.963  0.00  0.00    +0.232 C 
ATOM      3  O   UNL     1      -6.194   0.505   0.018  0.00  0.00    -0.274 OA
ATOM      4  N   UNL     1      -7.434   0.451   1.857  0.00  0.00    -0.310 N 
ATOM      5  H   UNL     1      -7.767  -0.058   2.612  0.00  0.00    +0.149 HD
BRANCH   4   6
ATOM      6  C   UNL     1      -7.824   1.853   1.688  0.00  0.00    +0.139 C 
BRANCH   6   7
ATOM      7  C   UNL     1      -8.741   2.258   2.813  0.00  0.00    -0.030 A 
ATOM      8  C   UNL     1     -10.108   2.096   2.682  0.00  0.00    +0.007 A 
ATOM      9  C   UNL     1     -10.951   2.467   3.712  0.00  0.00    +0.026 A 
ATOM     10  C   UNL     1     -10.424   3.002   4.879  0.00  0.00    +0.048 A 
ATOM     11  C   UNL     1      -9.052   3.163   5.009  0.00  0.00    +0.026 A 
ATOM     12  C   UNL     1      -8.213   2.786   3.977  0.00  0.00    +0.007 A 
BRANCH  10  13
ATOM     13  N   UNL     1     -11.278   3.379   5.926  0.00  0.00    -0.305 N 
ATOM     14  C   UNL     1     -12.397   4.164   5.823  0.00  0.00    +0.110 A 
ATOM     15  C   UNL     1     -12.912   4.273   7.062  0.00  0.00    +0.102 A 
ATOM     16  N   UNL     1     -12.134   3.576   7.903  0.00  0.00    -0.350 N 
ATOM     17  C   UNL     1     -11.155   3.031   7.234  0.00  0.00    +0.088 A 
ATOM     18  C   UNL     1     -10.068   2.164   7.815  0.00  0.00    +0.084 C 
ATOM     19  H   UNL     1     -12.278   3.487   8.858  0.00  0.00    +0.166 HD
ENDBRANCH  10  13
ENDBRANCH   6   7
ENDBRANCH   4   6
ENDBRANCH   1   2
BRANCH   1  20
ATOM     20  N   UNL     1      -5.318  -1.967   0.042  0.00  0.00    -0.194 N 
BRANCH  20  24
ATOM     21  C   UNL     1      -1.232  -1.213   0.311  0.00  0.00    -0.048 A 
ATOM     22  C   UNL     1      -1.847  -2.024   1.247  0.00  0.00    +0.005 A 
ATOM     23  C   UNL     1      -3.201  -2.276   1.161  0.00  0.00    +0.025 A 
ATOM     24  C   UNL     1      -3.947  -1.714   0.133  0.00  0.00    +0.052 A 
ATOM     25  C   UNL     1      -3.327  -0.899  -0.806  0.00  0.00    +0.025 A 
ATOM     26  C   UNL     1      -1.972  -0.647  -0.711  0.00  0.00    +0.005 A 
BRANCH  21  28
ATOM     27  C   UNL     1       0.481   0.302   1.271  0.00  0.00    +0.009 C 
ATOM     28  C   UNL     1       0.247  -0.940   0.408  0.00  0.00    +0.032 C 
ENDBRANCH  21  28
ENDBRANCH  20  24
BRANCH  20  29
ATOM     29  S   UNL     1      -5.935  -2.713  -1.301  0.00  0.00    +0.075 S 
ATOM     30  O   UNL     1      -7.311  -2.363  -1.363  0.00  0.00    -0.150 OA
ATOM     31  O   UNL     1      -5.032  -2.445  -2.365  0.00  0.00    -0.150 OA
BRANCH  29  32
ATOM     32  C   UNL     1      -5.870  -4.449  -1.010  0.00  0.00    +0.109 A 
ATOM     33  C   UNL     1      -4.746  -5.169  -1.372  0.00  0.00    +0.029 A 
ATOM     34  C   UNL     1      -4.695  -6.531  -1.144  0.00  0.00    +0.002 A 
ATOM     35  C   UNL     1      -5.767  -7.174  -0.552  0.00  0.00    +0.000 A 
ATOM     36  C   UNL     1      -6.889  -6.454  -0.190  0.00  0.00    +0.002 A 
ATOM     37  C   UNL     1      -6.939  -5.091  -0.414  0.00  0.00    +0.029 A 
ENDBRANCH  29  32
ENDBRANCH  20  29
ENDBRANCH   1  20
TORSDOF 9
