REMARK  Name = ZINC12716423
REMARK  9 active torsions:
REMARK  status: ('A' for Active; 'I' for Inactive)
REMARK    1  A    between atoms: C_1  and  C_2
REMARK    2  A    between atoms: C_3  and  C_19
REMARK    3  A    between atoms: C_5  and  C_7
REMARK    4  A    between atoms: C_10  and  C_13
REMARK    5  A    between atoms: C_19  and  N_63
REMARK    6  A    between atoms: C_20  and  C_21
REMARK    7  A    between atoms: C_20  and  N_63
REMARK    8  A    between atoms: C_27  and  C_28
REMARK    9  A    between atoms: C_27  and  N_63
REMARK                            x       y       z     vdW  Elec       q    Type
REMARK                         _______ _______ _______ _____ _____    ______ ____
ROOT
ATOM      1  C   UNL     1       3.793   0.757  -0.309  0.00  0.00    +0.088 C 
ATOM      2  C   UNL     1       2.296   0.920  -0.350  0.00  0.00    +0.124 A 
ATOM      3  C   UNL     1       1.384  -0.067  -0.266  0.00  0.00    +0.066 A 
ATOM      4  N   UNL     1       0.167   0.492  -0.342  0.00  0.00    -0.216 NA
ATOM      5  C   UNL     1       0.308   1.790  -0.470  0.00  0.00    +0.228 A 
ATOM      6  O   UNL     1       1.621   2.079  -0.477  0.00  0.00    -0.440 OA
ENDROOT
BRANCH   5   7
ATOM      7  C   UNL     1      -0.791   2.770  -0.593  0.00  0.00    +0.037 A 
ATOM      8  C   UNL     1      -2.119   2.335  -0.583  0.00  0.00    +0.014 A 
ATOM      9  C   UNL     1      -3.143   3.249  -0.693  0.00  0.00    +0.009 A 
ATOM     10  C   UNL     1      -2.855   4.608  -0.823  0.00  0.00    -0.018 A 
ATOM     11  C   UNL     1      -1.529   5.042  -0.838  0.00  0.00    +0.009 A 
ATOM     12  C   UNL     1      -0.504   4.130  -0.724  0.00  0.00    +0.014 A 
BRANCH  10  13
ATOM     13  C   UNL     1      -3.958   5.591  -0.946  0.00  0.00    -0.018 A 
ATOM     14  C   UNL     1      -3.674   6.949  -1.071  0.00  0.00    +0.008 A 
ATOM     15  C   UNL     1      -4.705   7.859  -1.191  0.00  0.00    +0.001 A 
ATOM     16  C   UNL     1      -6.018   7.426  -1.176  0.00  0.00    +0.000 A 
ATOM     17  C   UNL     1      -6.306   6.079  -1.046  0.00  0.00    +0.001 A 
ATOM     18  C   UNL     1      -5.284   5.160  -0.931  0.00  0.00    +0.008 A 
ENDBRANCH  10  13
ENDBRANCH   5   7
BRANCH   3  19
ATOM     19  C   UNL     1       1.678  -1.537  -0.113  0.00  0.00    -0.018 C 
BRANCH  19  20
ATOM     20  N   UNL     1       1.774  -2.146  -1.456  0.00  0.00    +0.387 N 
ATOM     21  H   UNL     1       0.937  -1.896  -1.996  0.00  0.00    -0.081 HD
BRANCH  20  22
ATOM     22  C   UNL     1       1.847  -3.618  -1.339  0.00  0.00    -0.042 C 
BRANCH  22  23
ATOM     23  C   UNL     1       0.464  -4.150  -1.066  0.00  0.00    -0.064 A 
ATOM     24  C   UNL     1       0.070  -4.414   0.233  0.00  0.00    +0.002 A 
ATOM     25  C   UNL     1      -1.201  -4.897   0.484  0.00  0.00    +0.000 A 
ATOM     26  C   UNL     1      -2.073  -5.127  -0.564  0.00  0.00    +0.000 A 
ATOM     27  C   UNL     1      -1.677  -4.867  -1.862  0.00  0.00    +0.000 A 
ATOM     28  C   UNL     1      -0.408  -4.379  -2.113  0.00  0.00    +0.002 A 
ENDBRANCH  22  23
ENDBRANCH  20  22
BRANCH  20  29
ATOM     29  C   UNL     1       2.969  -1.635  -2.159  0.00  0.00    -0.055 C 
BRANCH  29  30
ATOM     30  C   UNL     1       2.922  -2.099  -3.616  0.00  0.00    +0.057 C 
ATOM     31  C   UNL     1       4.017  -1.387  -4.440  0.00  0.00    +0.029 C 
ATOM     32  C   UNL     1       3.245  -0.174  -5.009  0.00  0.00    +0.097 C 
ATOM     33  C   UNL     1       1.800  -0.624  -5.016  0.00  0.00    +0.213 C 
ATOM     34  O   UNL     1       0.908  -0.086  -5.638  0.00  0.00    -0.276 OA
ATOM     35  N   UNL     1       1.649  -1.706  -4.233  0.00  0.00    -0.314 N 
ATOM     36  H   UNL     1       0.808  -2.167  -4.093  0.00  0.00    +0.149 HD
ENDBRANCH  29  30
ENDBRANCH  20  29
ENDBRANCH  19  20
ENDBRANCH   3  19
TORSDOF 8
