REMARK  Name = ZINC63806852
REMARK  8 active torsions:
REMARK  status: ('A' for Active; 'I' for Inactive)
REMARK    1  A    between atoms: C_1  and  C_2
REMARK    2  A    between atoms: C_2  and  C_3
REMARK    3  A    between atoms: C_2  and  C_4
REMARK    4  A    between atoms: C_4  and  C_6
REMARK    5  A    between atoms: C_4  and  N_23
REMARK    6  A    between atoms: C_11  and  C_14
REMARK    7  A    between atoms: C_24  and  C_26
REMARK    8  A    between atoms: C_26  and  C_27
REMARK                            x       y       z     vdW  Elec       q    Type
REMARK                         _______ _______ _______ _____ _____    ______ ____
ROOT
ATOM      1  C   UNL     1      -2.074  -0.231  -1.335  0.00  0.00    +0.239 C 
ATOM      2  O   UNL     1      -2.492  -1.081  -2.091  0.00  0.00    -0.273 OA
ATOM      3  N   UNL     1      -2.204   1.073  -1.649  0.00  0.00    -0.263 N 
ATOM      4  C   UNL     1      -2.738   1.441  -2.875  0.00  0.00    +0.165 A 
ATOM      5  N   UNL     1      -2.937   2.648  -3.360  0.00  0.00    -0.225 NA
ATOM      6  C   UNL     1      -3.472   2.767  -4.581  0.00  0.00    +0.079 A 
ATOM      7  C   UNL     1      -3.790   1.606  -5.275  0.00  0.00    +0.076 A 
ATOM      8  S   UNL     1      -3.323   0.400  -4.199  0.00  0.00    -0.060 S 
ATOM      9  H   UNL     1      -1.924   1.754  -1.018  0.00  0.00    +0.157 HD
ENDROOT
BRANCH   6  10
ATOM     10  C   UNL     1      -3.707   4.037  -5.149  0.00  0.00    +0.007 C 
ATOM     11  C   UNL     1      -3.436   5.277  -4.577  0.00  0.00    +0.005 A 
ATOM     12  C   UNL     1      -2.878   5.654  -3.335  0.00  0.00    +0.010 A 
ATOM     13  C   UNL     1      -2.727   6.969  -3.036  0.00  0.00    +0.001 A 
ATOM     14  C   UNL     1      -3.111   7.971  -3.930  0.00  0.00    +0.002 A 
ATOM     15  C   UNL     1      -3.653   7.683  -5.139  0.00  0.00    +0.026 A 
ATOM     16  C   UNL     1      -3.842   6.330  -5.522  0.00  0.00    +0.043 A 
ATOM     17  N   UNL     1      -4.338   5.797  -6.622  0.00  0.00    -0.380 N 
ATOM     18  C   UNL     1      -4.301   4.336  -6.508  0.00  0.00    +0.151 C 
ATOM     19  H   UNL     1      -4.672   6.293  -7.386  0.00  0.00    +0.160 HD
ENDBRANCH   6  10
BRANCH   1  20
ATOM     20  C   UNL     1      -1.410  -0.632  -0.043  0.00  0.00    +0.162 C 
BRANCH  20  21
ATOM     21  N   UNL     1      -1.767  -2.016   0.280  0.00  0.00    -0.303 N 
ATOM     22  C   UNL     1      -1.739  -2.438   1.560  0.00  0.00    +0.218 C 
ATOM     23  O   UNL     1      -1.418  -1.673   2.444  0.00  0.00    -0.275 OA
ATOM     24  H   UNL     1      -2.023  -2.628  -0.427  0.00  0.00    +0.149 HD
BRANCH  22  25
ATOM     25  C   UNL     1      -2.105  -3.862   1.892  0.00  0.00    +0.130 C 
BRANCH  25  26
ATOM     26  C   UNL     1      -1.993  -4.075   3.380  0.00  0.00    -0.039 A 
ATOM     27  C   UNL     1      -0.796  -4.493   3.930  0.00  0.00    +0.004 A 
ATOM     28  C   UNL     1      -0.694  -4.689   5.295  0.00  0.00    +0.000 A 
ATOM     29  C   UNL     1      -1.788  -4.466   6.109  0.00  0.00    +0.000 A 
ATOM     30  C   UNL     1      -2.985  -4.047   5.559  0.00  0.00    +0.000 A 
ATOM     31  C   UNL     1      -3.087  -3.847   4.195  0.00  0.00    +0.004 A 
ENDBRANCH  25  26
ENDBRANCH  22  25
ENDBRANCH  20  21
BRANCH  20  33
ATOM     32  C   UNL     1       0.778  -0.832   1.147  0.00  0.00    +0.009 C 
ATOM     33  C   UNL     1       0.108  -0.518  -0.192  0.00  0.00    +0.012 C 
ATOM     34  C   UNL     1       0.592  -1.513  -1.250  0.00  0.00    +0.009 C 
ENDBRANCH  20  33
ENDBRANCH   1  20
TORSDOF 6
