REMARK  Name = ZINC23990263
REMARK  12 active torsions:
REMARK  status: ('A' for Active; 'I' for Inactive)
REMARK    1  A    between atoms: C_1  and  C_2
REMARK    2  A    between atoms: C_2  and  C_3
REMARK    3  A    between atoms: C_3  and  C_5
REMARK    4  A    between atoms: C_3  and  N_30
REMARK    5  A    between atoms: C_8  and  S_17
REMARK    6  A    between atoms: N_9  and  C_10
REMARK    7  A    between atoms: C_10  and  C_11
REMARK    8  A    between atoms: S_17  and  C_18
REMARK    9  A    between atoms: C_18  and  C_19
REMARK   10  A    between atoms: C_22  and  C_24
REMARK   11  A    between atoms: N_30  and  C_31
REMARK   12  A    between atoms: N_30  and  C_32
REMARK                            x       y       z     vdW  Elec       q    Type
REMARK                         _______ _______ _______ _____ _____    ______ ____
ROOT
ATOM      1  C   UNL     1      -2.155  -0.301   2.001  0.00  0.00    +0.121 A 
ATOM      2  N   UNL     1      -2.433   0.091   3.212  0.00  0.00    -0.135 NA
ATOM      3  N   UNL     1      -3.035   1.226   3.181  0.00  0.00    -0.123 NA
ATOM      4  C   UNL     1      -3.171   1.625   1.938  0.00  0.00    +0.192 A 
ATOM      5  N   UNL     1      -2.610   0.665   1.146  0.00  0.00    -0.303 N 
ENDROOT
BRANCH   1   6
ATOM      6  C   UNL     1      -1.460  -1.580   1.613  0.00  0.00    +0.000 C 
BRANCH   6   7
ATOM      7  N   UNL     1      -2.317  -2.725   1.949  0.00  0.00    +0.383 N 
ATOM      8  C   UNL     1      -1.788  -3.967   1.369  0.00  0.00    -0.096 C 
ATOM      9  C   UNL     1      -2.481  -2.851   3.404  0.00  0.00    -0.096 C 
ATOM     10  H   UNL     1      -3.310  -2.543   1.512  0.00  0.00    -0.082 HD
ENDBRANCH   6   7
BRANCH   6  12
ATOM     11  C   UNL     1       0.811  -0.583   1.917  0.00  0.00    +0.002 C 
ATOM     12  C   UNL     1      -0.138  -1.693   2.375  0.00  0.00    -0.011 C 
ENDBRANCH   6  12
ENDBRANCH   1   6
BRANCH   5  13
ATOM     13  C   UNL     1      -2.520   0.666  -0.316  0.00  0.00    +0.160 C 
BRANCH  13  14
ATOM     14  C   UNL     1      -1.280   1.409  -0.742  0.00  0.00    -0.028 A 
ATOM     15  C   UNL     1      -0.119   0.712  -1.024  0.00  0.00    +0.005 A 
ATOM     16  C   UNL     1       1.017   1.393  -1.421  0.00  0.00    +0.000 A 
ATOM     17  C   UNL     1       0.994   2.771  -1.530  0.00  0.00    +0.000 A 
ATOM     18  C   UNL     1      -0.165   3.468  -1.243  0.00  0.00    +0.000 A 
ATOM     19  C   UNL     1      -1.301   2.787  -0.846  0.00  0.00    +0.005 A 
ENDBRANCH  13  14
ENDBRANCH   5  13
BRANCH   4  20
ATOM     20  S   UNL     1      -3.933   3.118   1.394  0.00  0.00    -0.076 S 
BRANCH  20  21
ATOM     21  C   UNL     1      -4.409   3.827   2.990  0.00  0.00    +0.175 C 
BRANCH  21  22
ATOM     22  C   UNL     1      -5.099   5.148   2.767  0.00  0.00    +0.228 A 
ATOM     23  N   UNL     1      -6.378   5.327   2.590  0.00  0.00    -0.111 NA
ATOM     24  N   UNL     1      -6.620   6.581   2.433  0.00  0.00    -0.107 NA
ATOM     25  C   UNL     1      -5.490   7.252   2.496  0.00  0.00    +0.255 A 
ATOM     26  O   UNL     1      -4.506   6.354   2.709  0.00  0.00    -0.419 OA
BRANCH  25  27
ATOM     27  C   UNL     1      -5.330   8.707   2.360  0.00  0.00    +0.077 A 
ATOM     28  C   UNL     1      -6.295   9.673   2.143  0.00  0.00    +0.022 A 
ATOM     29  C   UNL     1      -5.897  10.986   2.051  0.00  0.00    +0.024 A 
ATOM     30  C   UNL     1      -4.578  11.292   2.176  0.00  0.00    +0.056 A 
ATOM     31  S   UNL     1      -3.841   9.688   2.441  0.00  0.00    -0.077 S 
ATOM     32 BR   UNL     1      -3.739  12.985   2.097  0.00  0.00    -0.043 Br
ENDBRANCH  25  27
ENDBRANCH  21  22
ENDBRANCH  20  21
ENDBRANCH   4  20
TORSDOF 9
