REMARK  Name = ZINC44737039
REMARK  9 active torsions:
REMARK  status: ('A' for Active; 'I' for Inactive)
REMARK    1  A    between atoms: C_1  and  C_2
REMARK    2  A    between atoms: C_10  and  C_12
REMARK    3  A    between atoms: C_12  and  C_13
REMARK    4  A    between atoms: C_12  and  N_14
REMARK    5  A    between atoms: C_15  and  C_17
REMARK    6  A    between atoms: C_27  and  C_29
REMARK    7  A    between atoms: C_34  and  O_35
REMARK    8  A    between atoms: O_35  and  C_36
REMARK    9  A    between atoms: C_36  and  C_38
REMARK                            x       y       z     vdW  Elec       q    Type
REMARK                         _______ _______ _______ _____ _____    ______ ____
ROOT
ATOM      1  C   UNL     1      -1.462  -8.756   1.493  0.00  0.00    +0.100 C 
ATOM      2  C   UNL     1      -0.499  -9.218   0.377  0.00  0.00    +0.121 C 
ATOM      3  N   UNL     1       0.004 -10.534   0.837  0.00  0.00    -0.296 N 
ATOM      4  C   UNL     1      -1.178 -11.188   1.447  0.00  0.00    +0.115 C 
ATOM      5  C   UNL     1      -1.905 -10.053   2.191  0.00  0.00    -0.004 C 
ATOM      6  C   UNL     1      -1.488 -10.033   3.658  0.00  0.00    -0.010 C 
ATOM      7  C   UNL     1      -1.989 -11.307   4.343  0.00  0.00    -0.082 C 
ATOM      8  N   UNL     1      -3.451 -11.383   4.231  0.00  0.00    +0.379 N 
ATOM      9  C   UNL     1      -3.840 -11.494   2.820  0.00  0.00    -0.082 C 
ATOM     10  C   UNL     1      -3.416 -10.228   2.070  0.00  0.00    -0.010 C 
ATOM     11  C   UNL     1       1.254 -11.025   0.725  0.00  0.00    +0.250 C 
ATOM     12  O   UNL     1       1.492 -12.166   1.070  0.00  0.00    -0.270 OA
ATOM     13  H   UNL     1      -3.784 -12.191   4.735  0.00  0.00    -0.086 HD
ATOM     14  H   UNL     1      -3.860 -10.550   4.626  0.00  0.00    -0.086 HD
ENDROOT
BRANCH  11  15
ATOM     15  C   UNL     1       2.335 -10.177   0.185  0.00  0.00    +0.079 A 
ATOM     16  C   UNL     1       2.064  -9.253  -0.826  0.00  0.00    +0.017 A 
ATOM     17  C   UNL     1       3.077  -8.464  -1.326  0.00  0.00    +0.001 A 
ATOM     18  C   UNL     1       4.365  -8.583  -0.829  0.00  0.00    +0.004 A 
ATOM     19  C   UNL     1       4.646  -9.492   0.171  0.00  0.00    +0.047 A 
ATOM     20  C   UNL     1       3.637 -10.290   0.689  0.00  0.00    +0.144 A 
BRANCH  20  21
ATOM     21  O   UNL     1       3.912 -11.181   1.676  0.00  0.00    -0.425 OA
BRANCH  21  22
ATOM     22  C   UNL     1       3.729 -10.789   2.947  0.00  0.00    +0.309 C 
ATOM     23  O   UNL     1       3.248  -9.706   3.183  0.00  0.00    -0.251 OA
ATOM     24  C   UNL     1       4.125 -11.700   4.081  0.00  0.00    +0.136 C 
ENDBRANCH  21  22
ENDBRANCH  20  21
ENDBRANCH  11  15
BRANCH   1  26
ATOM     25  N   UNL     1      -1.425  -6.899   3.127  0.00  0.00    -0.305 N 
ATOM     26  C   UNL     1      -0.744  -7.856   2.466  0.00  0.00    +0.219 C 
ATOM     27  O   UNL     1       0.446  -7.993   2.654  0.00  0.00    -0.275 OA
ATOM     28  H   UNL     1      -2.377  -6.789   2.977  0.00  0.00    +0.149 HD
BRANCH  25  29
ATOM     29  C   UNL     1      -0.727  -6.024   4.072  0.00  0.00    +0.136 C 
ATOM     30  C   UNL     1      -0.101  -4.851   3.316  0.00  0.00    +0.036 C 
BRANCH  29  40
ATOM     31  C   UNL     1      -4.497  -3.304   9.883  0.00  0.00    +0.044 C 
ATOM     32  C   UNL     1      -4.163  -3.859   8.523  0.00  0.00    -0.048 A 
ATOM     33  C   UNL     1      -5.172  -4.052   7.590  0.00  0.00    +0.005 A 
ATOM     34  C   UNL     1      -4.890  -4.554   6.351  0.00  0.00    +0.030 A 
ATOM     35  C   UNL     1      -3.573  -4.877   6.015  0.00  0.00    +0.089 A 
ATOM     36  C   UNL     1      -2.550  -4.681   6.958  0.00  0.00    +0.067 A 
ATOM     37  C   UNL     1      -2.856  -4.165   8.211  0.00  0.00    +0.031 A 
ATOM     38  N   UNL     1      -1.382  -5.084   6.343  0.00  0.00    -0.340 N 
ATOM     39  H   UNL     1      -0.494  -5.073   6.733  0.00  0.00    +0.167 HD
ATOM     40  C   UNL     1      -1.707  -5.500   5.090  0.00  0.00    +0.128 A 
ATOM     41  N   UNL     1      -2.988  -5.379   4.897  0.00  0.00    -0.231 NA
ENDBRANCH  29  40
ENDBRANCH  25  29
ENDBRANCH   1  26
TORSDOF 6
