REMARK  Name = ZINC20888201
REMARK  7 active torsions:
REMARK  status: ('A' for Active; 'I' for Inactive)
REMARK    1  A    between atoms: C_4  and  N_26
REMARK    2  A    between atoms: C_5  and  C_7
REMARK    3  A    between atoms: C_8  and  C_9
REMARK    4  A    between atoms: C_9  and  O_11
REMARK    5  A    between atoms: O_11  and  C_12
REMARK    6  A    between atoms: C_12  and  C_13
REMARK    7  A    between atoms: N_15  and  C_16
REMARK                            x       y       z     vdW  Elec       q    Type
REMARK                         _______ _______ _______ _____ _____    ______ ____
ROOT
ATOM      1  C   UNL     1       3.846   2.147  -1.025  0.00  0.00    +0.328 C 
ENDROOT
BRANCH   1   2
ATOM      2  C   UNL     1       5.092   1.300  -1.051  0.00  0.00    +0.255 C 
ATOM      3  O   UNL     1       5.071   0.206  -1.575  0.00  0.00    -0.272 OA
ATOM      4  N   UNL     1       6.230   1.757  -0.492  0.00  0.00    -0.280 N 
ATOM      5  H   UNL     1       6.265   2.772  -0.069  0.00  0.00    +0.155 HD
BRANCH   4   6
ATOM      6  C   UNL     1       7.367   0.941  -0.451  0.00  0.00    +0.073 A 
ATOM      7  C   UNL     1       7.247  -0.404  -0.122  0.00  0.00    +0.082 A 
ATOM      8  C   UNL     1       8.371  -1.209  -0.087  0.00  0.00    +0.063 A 
ATOM      9  C   UNL     1       9.616  -0.674  -0.368  0.00  0.00    +0.043 A 
ATOM     10  C   UNL     1       9.739   0.666  -0.691  0.00  0.00    +0.063 A 
ATOM     11  C   UNL     1       8.618   1.475  -0.733  0.00  0.00    +0.082 A 
ATOM     12 CL   UNL     1       8.773   3.156  -1.139  0.00  0.00    -0.080 Cl
ATOM     13 CL   UNL     1      11.303   1.333  -1.043  0.00  0.00    -0.082 Cl
ATOM     14 CL   UNL     1       8.221  -2.890   0.318  0.00  0.00    -0.082 Cl
ATOM     15 CL   UNL     1       5.686  -1.074   0.238  0.00  0.00    -0.080 Cl
ENDBRANCH   4   6
ENDBRANCH   1   2
BRANCH   1  16
ATOM     16  O   UNL     1       2.782   1.449  -1.675  0.00  0.00    -0.452 OA
BRANCH  16  17
ATOM     17  C   UNL     1       1.588   2.075  -1.738  0.00  0.00    +0.332 C 
ATOM     18  O   UNL     1       1.455   3.182  -1.253  0.00  0.00    -0.246 OA
BRANCH  17  20
ATOM     19  C   UNL     1      -0.739   2.048  -2.457  0.00  0.00    +0.017 C 
ATOM     20  C   UNL     1       0.453   1.421  -2.389  0.00  0.00    +0.092 C 
BRANCH  19  25
ATOM     21  C   UNL     1      -2.833  -0.527  -4.205  0.00  0.00    +0.001 A 
ATOM     22  C   UNL     1      -4.025   0.158  -4.360  0.00  0.00    +0.002 A 
ATOM     23  C   UNL     1      -4.151   1.456  -3.897  0.00  0.00    +0.033 A 
ATOM     24  C   UNL     1      -3.089   2.076  -3.273  0.00  0.00    +0.133 A 
ATOM     25  C   UNL     1      -1.879   1.393  -3.117  0.00  0.00    +0.005 A 
ATOM     26  C   UNL     1      -1.760   0.081  -3.587  0.00  0.00    +0.010 A 
BRANCH  24  27
ATOM     27  N   UNL     1      -3.228   3.462  -2.773  0.00  0.00    +0.057 N 
ATOM     28  O   UNL     1      -2.706   3.786  -1.721  0.00  0.00    -0.126 OA
ATOM     29  O   UNL     1      -3.864   4.280  -3.414  0.00  0.00    -0.126 OA
ENDBRANCH  24  27
ENDBRANCH  19  25
ENDBRANCH  17  20
ENDBRANCH  16  17
ENDBRANCH   1  16
TORSDOF 7
