REMARK  Name = ZINC20444458
REMARK  9 active torsions:
REMARK  status: ('A' for Active; 'I' for Inactive)
REMARK    1  A    between atoms: C_1  and  C_2
REMARK    2  A    between atoms: C_2  and  O_3
REMARK    3  A    between atoms: O_3  and  C_4
REMARK    4  A    between atoms: C_9  and  O_10
REMARK    5  A    between atoms: O_10  and  C_11
REMARK    6  A    between atoms: C_20  and  O_30
REMARK    7  A    between atoms: C_21  and  C_22
REMARK    8  A    between atoms: C_22  and  N_23
REMARK    9  A    between atoms: C_26  and  C_29
REMARK                            x       y       z     vdW  Elec       q    Type
REMARK                         _______ _______ _______ _____ _____    ______ ____
ROOT
ATOM      1  C   UNL     1      -0.993  -2.052   0.007  0.00  0.00    +0.210 A 
ATOM      2  C   UNL     1       0.247  -2.578   0.044  0.00  0.00    +0.245 A 
ATOM      3  O   UNL     1       0.475  -3.898   0.049  0.00  0.00    -0.459 OA
ATOM      4  C   UNL     1      -0.523  -4.803   0.005  0.00  0.00    +0.143 A 
ATOM      5  C   UNL     1      -1.860  -4.367  -0.041  0.00  0.00    +0.068 A 
ATOM      6  C   UNL     1      -2.122  -2.918  -0.041  0.00  0.00    +0.235 A 
ATOM      7  O   UNL     1      -3.259  -2.478  -0.080  0.00  0.00    -0.283 OA
ATOM      8  C   UNL     1      -2.901  -5.295  -0.085  0.00  0.00    +0.019 A 
ATOM      9  C   UNL     1      -2.618  -6.631  -0.085  0.00  0.00    +0.046 A 
ATOM     10  C   UNL     1      -1.297  -7.072  -0.039  0.00  0.00    +0.122 A 
ATOM     11  C   UNL     1      -0.253  -6.164   0.006  0.00  0.00    +0.020 A 
ENDROOT
BRANCH  10  12
ATOM     12  O   UNL     1      -1.032  -8.403  -0.038  0.00  0.00    -0.506 OA
ATOM     13  H   UNL     1       0.009  -8.757  -0.001  0.00  0.00    +0.292 HD
ENDBRANCH  10  12
BRANCH   1  14
ATOM     14  O   UNL     1      -1.165  -0.701   0.009  0.00  0.00    -0.445 OA
BRANCH  14  20
ATOM     15  C   UNL     1      -1.443   1.302   1.270  0.00  0.00    +0.163 A 
ATOM     16  C   UNL     1      -1.650   1.925   2.490  0.00  0.00    +0.049 A 
ATOM     17  C   UNL     1      -1.781   1.167   3.639  0.00  0.00    +0.004 A 
ATOM     18  C   UNL     1      -1.706  -0.212   3.574  0.00  0.00    +0.004 A 
ATOM     19  C   UNL     1      -1.500  -0.839   2.360  0.00  0.00    +0.050 A 
ATOM     20  C   UNL     1      -1.368  -0.086   1.204  0.00  0.00    +0.170 A 
BRANCH  15  21
ATOM     21  O   UNL     1      -1.309   2.046   0.140  0.00  0.00    -0.489 OA
BRANCH  21  23
ATOM     22  C   UNL     1      -1.223   4.128  -1.085  0.00  0.00    +0.048 C 
ATOM     23  C   UNL     1      -1.397   3.466   0.283  0.00  0.00    +0.226 C 
ENDBRANCH  21  23
ENDBRANCH  15  21
ENDBRANCH  14  20
ENDBRANCH   1  14
BRANCH  11  24
ATOM     24  C   UNL     1       1.172  -6.652   0.055  0.00  0.00    -0.036 C 
BRANCH  24  25
ATOM     25  N   UNL     1       1.585  -6.820   1.455  0.00  0.00    +0.383 N 
ATOM     26  C   UNL     1       0.551  -7.520   2.228  0.00  0.00    -0.078 C 
ATOM     27  C   UNL     1       0.948  -7.548   3.705  0.00  0.00    -0.016 C 
ATOM     28  C   UNL     1       2.294  -8.263   3.853  0.00  0.00    -0.018 C 
ATOM     29  C   UNL     1       3.342  -7.543   3.001  0.00  0.00    -0.016 C 
ATOM     30  C   UNL     1       2.875  -7.515   1.543  0.00  0.00    -0.078 C 
ATOM     31  C   UNL     1       2.726  -8.241   5.321  0.00  0.00    +0.007 C 
ATOM     32  H   UNL     1       1.711  -5.819   1.894  0.00  0.00    -0.081 HD
ENDBRANCH  24  25
ENDBRANCH  11  24
TORSDOF 7
