REMARK  Name = ZINC13495807
REMARK  12 active torsions:
REMARK  status: ('A' for Active; 'I' for Inactive)
REMARK    1  A    between atoms: C_1  and  C_2
REMARK    2  A    between atoms: C_2  and  C_3
REMARK    3  A    between atoms: C_3  and  C_5
REMARK    4  A    between atoms: C_3  and  N_69
REMARK    5  A    between atoms: N_9  and  C_10
REMARK    6  A    between atoms: C_10  and  C_11
REMARK    7  A    between atoms: C_17  and  C_18
REMARK    8  A    between atoms: C_17  and  N_69
REMARK    9  A    between atoms: C_18  and  C_19
REMARK   10  A    between atoms: C_25  and  C_26
REMARK   11  A    between atoms: C_25  and  N_69
REMARK   12  A    between atoms: C_32  and  C_38
REMARK                            x       y       z     vdW  Elec       q    Type
REMARK                         _______ _______ _______ _____ _____    ______ ____
ROOT
ATOM      1  N   UNL     1       2.191   7.375  -2.161  0.00  0.00    +0.389 N 
ATOM      2  H   UNL     1       2.936   7.430  -1.456  0.00  0.00    -0.080 HD
ENDROOT
BRANCH   1   3
ATOM      3  C   UNL     1       1.481   6.088  -2.009  0.00  0.00    +0.003 C 
BRANCH   3   4
ATOM      4  C   UNL     1       2.482   5.027  -1.629  0.00  0.00    +0.138 A 
ATOM      5  N   UNL     1       3.657   4.828  -2.175  0.00  0.00    -0.115 NA
ATOM      6  N   UNL     1       4.211   3.832  -1.575  0.00  0.00    -0.023 NA
ATOM      7  N   UNL     1       3.423   3.394  -0.655  0.00  0.00    -0.044 NA
ATOM      8  N   UNL     1       2.344   4.102  -0.661  0.00  0.00    -0.226 N 
BRANCH   8   9
ATOM      9  C   UNL     1       1.188   3.933   0.223  0.00  0.00    +0.182 C 
BRANCH   9  10
ATOM     10  C   UNL     1       0.205   2.983  -0.411  0.00  0.00    -0.026 A 
ATOM     11  C   UNL     1       0.299   1.626  -0.166  0.00  0.00    +0.005 A 
ATOM     12  C   UNL     1      -0.603   0.755  -0.747  0.00  0.00    +0.000 A 
ATOM     13  C   UNL     1      -1.596   1.240  -1.578  0.00  0.00    +0.000 A 
ATOM     14  C   UNL     1      -1.693   2.598  -1.819  0.00  0.00    +0.000 A 
ATOM     15  C   UNL     1      -0.791   3.470  -1.237  0.00  0.00    +0.005 A 
ENDBRANCH   9  10
ENDBRANCH   8   9
ENDBRANCH   3   4
BRANCH   3  17
ATOM     16  C   UNL     1      -0.317   6.697  -3.634  0.00  0.00    +0.002 C 
ATOM     17  C   UNL     1       0.798   5.696  -3.321  0.00  0.00    -0.011 C 
ENDBRANCH   3  17
ENDBRANCH   1   3
BRANCH   1  18
ATOM     18  C   UNL     1       2.796   7.463  -3.506  0.00  0.00    -0.073 C 
BRANCH  18  19
ATOM     19  C   UNL     1       3.823   8.597  -3.510  0.00  0.00    +0.016 C 
BRANCH  19  20
ATOM     20  C   UNL     1       4.385   8.762  -4.899  0.00  0.00    -0.049 A 
ATOM     21  C   UNL     1       5.513   8.058  -5.276  0.00  0.00    +0.003 A 
ATOM     22  C   UNL     1       6.025   8.204  -6.551  0.00  0.00    +0.000 A 
ATOM     23  C   UNL     1       5.415   9.063  -7.447  0.00  0.00    +0.000 A 
ATOM     24  C   UNL     1       4.290   9.771  -7.068  0.00  0.00    +0.000 A 
ATOM     25  C   UNL     1       3.775   9.620  -5.794  0.00  0.00    +0.003 A 
ENDBRANCH  19  20
ENDBRANCH  18  19
ENDBRANCH   1  18
BRANCH   1  26
ATOM     26  C   UNL     1       1.252   8.497  -1.955  0.00  0.00    -0.037 C 
BRANCH  26  27
ATOM     27  C   UNL     1       1.060   8.701  -0.474  0.00  0.00    +0.001 A 
ATOM     28  C   UNL     1       1.859   9.568   0.197  0.00  0.00    +0.017 A 
ATOM     29  C   UNL     1       1.644   9.746   1.634  0.00  0.00    -0.001 A 
ATOM     30  C   UNL     1       2.432  10.630   2.379  0.00  0.00    +0.010 A 
ATOM     31  C   UNL     1       2.209  10.770   3.720  0.00  0.00    +0.001 A 
ATOM     32  C   UNL     1       1.208  10.043   4.349  0.00  0.00    +0.005 A 
ATOM     33  C   UNL     1       0.420   9.166   3.635  0.00  0.00    -0.026 A 
ATOM     34  C   UNL     1       0.628   9.007   2.269  0.00  0.00    +0.052 A 
ATOM     35  N   UNL     1      -0.146   8.138   1.530  0.00  0.00    -0.322 N 
ATOM     36  H   UNL     1      -0.845   7.629   1.970  0.00  0.00    +0.169 HD
ATOM     37  C   UNL     1       0.055   7.984   0.210  0.00  0.00    +0.251 A 
ATOM     38  O   UNL     1      -0.648   7.207  -0.412  0.00  0.00    -0.268 OA
ATOM     39  C   UNL     1      -0.663   8.383   4.332  0.00  0.00    +0.046 C 
ENDBRANCH  26  27
ENDBRANCH   1  26
TORSDOF 10
