REMARK  Name = ZINC14751975
REMARK  12 active torsions:
REMARK  status: ('A' for Active; 'I' for Inactive)
REMARK    1  A    between atoms: C_1  and  C_2
REMARK    2  A    between atoms: C_2  and  N_3
REMARK    3  A    between atoms: C_11  and  C_12
REMARK    4  A    between atoms: C_11  and  N_62
REMARK    5  A    between atoms: C_14  and  O_19
REMARK    6  A    between atoms: C_17  and  O_18
REMARK    7  A    between atoms: O_19  and  C_20
REMARK    8  A    between atoms: N_21  and  C_24
REMARK    9  A    between atoms: C_24  and  C_25
REMARK   10  A    between atoms: C_25  and  C_26
REMARK   11  A    between atoms: C_26  and  C_27
REMARK   12  A    between atoms: C_26  and  C_28
REMARK                            x       y       z     vdW  Elec       q    Type
REMARK                         _______ _______ _______ _____ _____    ______ ____
ROOT
ATOM      1  N   UNL     1      -1.296   2.799   0.140  0.00  0.00    -0.224 N 
ATOM      2  C   UNL     1      -0.819   4.061   0.160  0.00  0.00    +0.247 C 
ATOM      3  O   UNL     1      -1.461   5.088   0.195  0.00  0.00    -0.273 OA
ATOM      4  C   UNL     1       0.686   3.924   0.125  0.00  0.00    +0.112 C 
ATOM      5  C   UNL     1       1.253   4.584  -1.127  0.00  0.00    +0.017 C 
ATOM      6  C   UNL     1       2.779   4.454  -1.122  0.00  0.00    -0.076 C 
ATOM      7  C   UNL     1       2.831   4.404   1.302  0.00  0.00    -0.076 C 
ATOM      8  C   UNL     1       1.307   4.533   1.378  0.00  0.00    +0.017 C 
ATOM      9  N   UNL     1       0.912   2.474   0.091  0.00  0.00    -0.271 N 
ATOM     10  C   UNL     1      -0.306   1.898   0.105  0.00  0.00    +0.312 C 
ATOM     11  O   UNL     1      -0.486   0.696   0.084  0.00  0.00    -0.252 OA
ATOM     12  N   UNL     1       3.311   5.108   0.093  0.00  0.00    +0.383 N 
ATOM     13  H   UNL     1       2.979   6.080   0.120  0.00  0.00    -0.081 HD
ENDROOT
BRANCH   1  15
ATOM     14  C   UNL     1      -3.192   2.309   1.604  0.00  0.00    +0.025 C 
ATOM     15  C   UNL     1      -2.720   2.457   0.156  0.00  0.00    +0.114 C 
ENDBRANCH   1  15
BRANCH  12  16
ATOM     16  C   UNL     1       4.788   5.107   0.062  0.00  0.00    -0.039 C 
BRANCH  16  17
ATOM     17  C   UNL     1       5.250   6.119  -0.955  0.00  0.00    -0.019 A 
ATOM     18  C   UNL     1       5.694   5.700  -2.194  0.00  0.00    +0.051 A 
ATOM     19  C   UNL     1       6.115   6.632  -3.131  0.00  0.00    +0.121 A 
ATOM     20  C   UNL     1       6.099   7.984  -2.820  0.00  0.00    +0.049 A 
ATOM     21  C   UNL     1       5.660   8.402  -1.579  0.00  0.00    +0.049 A 
ATOM     22  C   UNL     1       5.234   7.470  -0.644  0.00  0.00    +0.118 A 
BRANCH  22  23
ATOM     23  O   UNL     1       4.801   7.882   0.578  0.00  0.00    -0.507 OA
ATOM     24  H   UNL     1       5.484   7.867   1.262  0.00  0.00    +0.292 HD
ENDBRANCH  22  23
BRANCH  19  25
ATOM     25  O   UNL     1       6.547   6.220  -4.353  0.00  0.00    -0.495 OA
ATOM     26  C   UNL     1       6.971   7.234  -5.266  0.00  0.00    +0.277 C 
ENDBRANCH  19  25
ENDBRANCH  16  17
ENDBRANCH  12  16
BRANCH   9  27
ATOM     27  C   UNL     1       2.206   1.788   0.049  0.00  0.00    +0.110 C 
BRANCH  27  28
ATOM     28  C   UNL     1       2.415   1.014   1.352  0.00  0.00    +0.022 C 
BRANCH  28  29
ATOM     29  C   UNL     1       3.820   0.407   1.366  0.00  0.00    -0.016 C 
ATOM     30  C   UNL     1       4.074  -0.261   2.718  0.00  0.00    +0.007 C 
ATOM     31  C   UNL     1       3.936  -0.635   0.252  0.00  0.00    +0.007 C 
ENDBRANCH  28  29
ENDBRANCH  27  28
ENDBRANCH   9  27
TORSDOF 8
