REMARK  Name = ZINC13556786
REMARK  7 active torsions:
REMARK  status: ('A' for Active; 'I' for Inactive)
REMARK    1  A    between atoms: C_1  and  C_2
REMARK    2  A    between atoms: C_5  and  C_8
REMARK    3  A    between atoms: C_19  and  C_21
REMARK    4  A    between atoms: C_25  and  O_29
REMARK    5  A    between atoms: C_26  and  O_27
REMARK    6  A    between atoms: O_27  and  C_28
REMARK    7  A    between atoms: O_29  and  C_30
REMARK                            x       y       z     vdW  Elec       q    Type
REMARK                         _______ _______ _______ _____ _____    ______ ____
ROOT
ATOM      1  C   UNL     1       0.049  -4.169  -0.450  0.00  0.00    +0.159 C 
ATOM      2  C   UNL     1      -1.254  -4.686   0.119  0.00  0.00    +0.027 C 
ATOM      3  C   UNL     1      -1.208  -5.399   1.263  0.00  0.00    +0.083 C 
ATOM      4  C   UNL     1      -2.494  -5.908   1.804  0.00  0.00    +0.044 A 
ATOM      5  C   UNL     1      -2.600  -6.365   3.110  0.00  0.00    +0.033 A 
ATOM      6  C   UNL     1      -3.818  -6.829   3.575  0.00  0.00    +0.042 A 
ATOM      7  C   UNL     1      -4.924  -6.838   2.741  0.00  0.00    +0.023 A 
ATOM      8  C   UNL     1      -4.824  -6.385   1.438  0.00  0.00    +0.048 A 
ATOM      9  C   UNL     1      -3.612  -5.919   0.960  0.00  0.00    +0.131 A 
ATOM     10  O   UNL     1      -3.486  -5.475  -0.316  0.00  0.00    -0.479 OA
ATOM     11  C   UNL     1      -2.564  -4.410  -0.558  0.00  0.00    +0.238 C 
ATOM     12 CL   UNL     1      -3.960  -7.403   5.207  0.00  0.00    -0.084 Cl
ATOM     13  N   UNL     1      -0.037  -5.646   1.898  0.00  0.00    -0.213 NA
ATOM     14  C   UNL     1       1.136  -5.236   1.475  0.00  0.00    +0.237 C 
ATOM     15  N   UNL     1       1.256  -4.497   0.318  0.00  0.00    -0.208 N 
ATOM     16  N   UNL     1       2.617  -4.227   0.159  0.00  0.00    -0.251 N 
ATOM     17  C   UNL     1       3.251  -4.804   1.217  0.00  0.00    +0.203 C 
ATOM     18  N   UNL     1       2.381  -5.391   1.976  0.00  0.00    -0.205 NA
ATOM     19  H   UNL     1       3.029  -3.727  -0.563  0.00  0.00    +0.171 HD
ENDROOT
BRANCH   1  24
ATOM     20  C   UNL     1      -0.322   1.583  -0.861  0.00  0.00    +0.044 C 
ATOM     21  C   UNL     1      -0.225   0.083  -0.754  0.00  0.00    -0.050 A 
ATOM     22  C   UNL     1      -0.516  -0.709  -1.849  0.00  0.00    +0.004 A 
ATOM     23  C   UNL     1      -0.427  -2.085  -1.751  0.00  0.00    +0.006 A 
ATOM     24  C   UNL     1      -0.047  -2.669  -0.557  0.00  0.00    -0.021 A 
ATOM     25  C   UNL     1       0.245  -1.877   0.538  0.00  0.00    +0.006 A 
ATOM     26  C   UNL     1       0.160  -0.501   0.438  0.00  0.00    +0.004 A 
ENDBRANCH   1  24
BRANCH  11  27
ATOM     27  C   UNL     1      -3.139  -3.123  -0.025  0.00  0.00    +0.042 A 
ATOM     28  C   UNL     1      -2.897  -2.747   1.284  0.00  0.00    +0.011 A 
ATOM     29  C   UNL     1      -3.422  -1.567   1.776  0.00  0.00    +0.004 A 
ATOM     30  C   UNL     1      -4.194  -0.758   0.963  0.00  0.00    +0.049 A 
ATOM     31  C   UNL     1      -4.441  -1.129  -0.349  0.00  0.00    +0.162 A 
ATOM     32  C   UNL     1      -3.906  -2.313  -0.847  0.00  0.00    +0.168 A 
BRANCH  32  33
ATOM     33  O   UNL     1      -4.141  -2.679  -2.135  0.00  0.00    -0.491 OA
ATOM     34  C   UNL     1      -5.340  -3.412  -2.394  0.00  0.00    +0.277 C 
ENDBRANCH  32  33
BRANCH  31  35
ATOM     35  O   UNL     1      -5.200  -0.334  -1.150  0.00  0.00    -0.491 OA
ATOM     36  C   UNL     1      -5.710   0.870  -0.574  0.00  0.00    +0.277 C 
ENDBRANCH  31  35
ENDBRANCH  11  27
TORSDOF 4
