REMARK  Name = ZINC40032607
REMARK  10 active torsions:
REMARK  status: ('A' for Active; 'I' for Inactive)
REMARK    1  A    between atoms: C_1  and  C_2
REMARK    2  A    between atoms: C_2  and  C_3
REMARK    3  A    between atoms: C_3  and  C_37
REMARK    4  A    between atoms: N_15  and  C_31
REMARK    5  A    between atoms: C_16  and  S_18
REMARK    6  A    between atoms: S_18  and  C_19
REMARK    7  A    between atoms: C_19  and  C_20
REMARK    8  A    between atoms: N_22  and  C_23
REMARK    9  A    between atoms: C_23  and  C_24
REMARK   10  A    between atoms: C_24  and  C_25
REMARK                            x       y       z     vdW  Elec       q    Type
REMARK                         _______ _______ _______ _____ _____    ______ ____
ROOT
ATOM      1  C   UNL     1       0.209  -0.356   0.785  0.00  0.00    +0.004 C 
ATOM      2  C   UNL     1       0.035  -1.814   0.367  0.00  0.00    +0.047 C 
ATOM      3  C   UNL     1      -0.269  -2.674   1.564  0.00  0.00    -0.037 A 
ATOM      4  C   UNL     1       0.221  -3.962   1.642  0.00  0.00    +0.004 A 
ATOM      5  C   UNL     1      -0.066  -4.748   2.744  0.00  0.00    +0.000 A 
ATOM      6  C   UNL     1      -0.845  -4.252   3.774  0.00  0.00    +0.001 A 
ATOM      7  C   UNL     1      -1.340  -2.964   3.709  0.00  0.00    +0.010 A 
ATOM      8  C   UNL     1      -1.052  -2.170   2.603  0.00  0.00    +0.004 A 
ATOM      9  C   UNL     1      -1.560  -0.782   2.510  0.00  0.00    +0.083 A 
ATOM     10  C   UNL     1      -0.952   0.096   1.625  0.00  0.00    +0.050 A 
ATOM     11  C   UNL     1      -1.439   1.406   1.532  0.00  0.00    +0.263 A 
ATOM     12  O   UNL     1      -0.931   2.206   0.762  0.00  0.00    -0.267 OA
ATOM     13  N   UNL     1      -2.483   1.764   2.310  0.00  0.00    -0.256 N 
ATOM     14  C   UNL     1      -3.042   0.863   3.168  0.00  0.00    +0.177 A 
ATOM     15  N   UNL     1      -2.588  -0.371   3.260  0.00  0.00    -0.222 NA
ATOM     16  C   UNL     1       0.297   0.519  -0.466  0.00  0.00    +0.016 C 
ENDROOT
BRANCH  13  17
ATOM     17  C   UNL     1      -2.994   3.066   2.236  0.00  0.00    +0.052 A 
ATOM     18  C   UNL     1      -2.483   4.062   3.058  0.00  0.00    +0.026 A 
ATOM     19  C   UNL     1      -2.989   5.345   2.983  0.00  0.00    +0.002 A 
ATOM     20  C   UNL     1      -4.003   5.639   2.090  0.00  0.00    +0.000 A 
ATOM     21  C   UNL     1      -4.513   4.649   1.269  0.00  0.00    +0.002 A 
ATOM     22  C   UNL     1      -4.008   3.366   1.335  0.00  0.00    +0.026 A 
ENDBRANCH  13  17
BRANCH   1  24
ATOM     23  C   UNL     1       1.695   1.251   1.990  0.00  0.00    +0.005 C 
ATOM     24  C   UNL     1       1.501  -0.214   1.592  0.00  0.00    +0.008 C 
ENDBRANCH   1  24
BRANCH  14  25
ATOM     25  S   UNL     1      -4.398   1.359   4.177  0.00  0.00    -0.078 S 
BRANCH  25  26
ATOM     26  C   UNL     1      -4.802  -0.128   5.133  0.00  0.00    +0.173 C 
BRANCH  26  27
ATOM     27  C   UNL     1      -5.963   0.163   6.049  0.00  0.00    +0.223 C 
ATOM     28  O   UNL     1      -6.468   1.266   6.056  0.00  0.00    -0.275 OA
ATOM     29  N   UNL     1      -6.440  -0.802   6.860  0.00  0.00    -0.314 N 
ATOM     30  H   UNL     1      -6.036  -1.684   6.854  0.00  0.00    +0.149 HD
BRANCH  29  31
ATOM     31  C   UNL     1      -7.568  -0.519   7.750  0.00  0.00    +0.109 C 
BRANCH  31  32
ATOM     32  C   UNL     1      -7.909  -1.774   8.557  0.00  0.00    +0.054 C 
BRANCH  32  33
ATOM     33  C   UNL     1      -9.069  -1.483   9.473  0.00  0.00    -0.046 A 
ATOM     34  C   UNL     1      -8.839  -1.000  10.748  0.00  0.00    +0.004 A 
ATOM     35  C   UNL     1      -9.904  -0.733  11.588  0.00  0.00    +0.000 A 
ATOM     36  C   UNL     1     -11.198  -0.948  11.153  0.00  0.00    +0.000 A 
ATOM     37  C   UNL     1     -11.428  -1.430   9.878  0.00  0.00    +0.000 A 
ATOM     38  C   UNL     1     -10.364  -1.693   9.036  0.00  0.00    +0.004 A 
ENDBRANCH  32  33
ENDBRANCH  31  32
ENDBRANCH  29  31
ENDBRANCH  26  27
ENDBRANCH  25  26
ENDBRANCH  14  25
TORSDOF 8
