REMARK  Name = ZINC20705026
REMARK  7 active torsions:
REMARK  status: ('A' for Active; 'I' for Inactive)
REMARK    1  A    between atoms: C_1  and  C_2
REMARK    2  A    between atoms: C_2  and  C_3
REMARK    3  A    between atoms: C_3  and  O_4
REMARK    4  A    between atoms: O_4  and  C_5
REMARK    5  A    between atoms: C_5  and  C_7
REMARK    6  A    between atoms: C_20  and  C_23
REMARK    7  A    between atoms: C_27  and  N_29
REMARK                            x       y       z     vdW  Elec       q    Type
REMARK                         _______ _______ _______ _____ _____    ______ ____
ROOT
ATOM      1  C   UNL     1      -1.622   2.336  -3.171  0.00  0.00    +0.059 A 
ATOM      2  C   UNL     1      -2.969   2.325  -2.792  0.00  0.00    +0.017 A 
ATOM      3  C   UNL     1      -3.315   1.882  -1.576  0.00  0.00    +0.024 A 
ATOM      4  C   UNL     1      -2.352   1.506  -0.642  0.00  0.00    +0.031 A 
ATOM      5  C   UNL     1      -1.003   1.535  -0.994  0.00  0.00    -0.019 A 
ATOM      6  C   UNL     1      -0.643   1.936  -2.257  0.00  0.00    +0.021 A 
ATOM      7  C   UNL     1      -0.013   1.086   0.008  0.00  0.00    +0.049 C 
ATOM      8  C   UNL     1       1.393   1.563  -0.003  0.00  0.00    -0.023 C 
ATOM      9  C   UNL     1       1.835   1.607   1.248  0.00  0.00    -0.030 C 
ATOM     10  C   UNL     1       0.723   1.186   2.211  0.00  0.00    +0.033 C 
ATOM     11  C   UNL     1      -0.534   1.540   1.405  0.00  0.00    +0.029 C 
ATOM     12  C   UNL     1      -1.777   0.707   1.661  0.00  0.00    +0.105 C 
ATOM     13  N   UNL     1      -2.757   1.128   0.636  0.00  0.00    -0.336 N 
ATOM     14  H   UNL     1      -3.831   1.146   0.877  0.00  0.00    +0.147 HD
ENDROOT
BRANCH  12  15
ATOM     15  C   UNL     1      -2.315   0.987   3.041  0.00  0.00    -0.025 A 
ATOM     16  C   UNL     1      -3.073   2.120   3.271  0.00  0.00    +0.005 A 
ATOM     17  C   UNL     1      -3.570   2.373   4.536  0.00  0.00    +0.003 A 
ATOM     18  C   UNL     1      -3.301   1.499   5.572  0.00  0.00    +0.033 A 
ATOM     19  C   UNL     1      -2.539   0.369   5.343  0.00  0.00    +0.127 A 
ATOM     20  C   UNL     1      -2.046   0.113   4.077  0.00  0.00    +0.038 A 
BRANCH  19  21
ATOM     21  N   UNL     1      -2.250  -0.567   6.453  0.00  0.00    +0.056 N 
ATOM     22  O   UNL     1      -1.579  -1.563   6.251  0.00  0.00    -0.126 OA
ATOM     23  O   UNL     1      -2.684  -0.341   7.569  0.00  0.00    -0.126 OA
ENDBRANCH  19  21
ENDBRANCH  12  15
BRANCH   1  24
ATOM     24  C   UNL     1      -1.238   2.767  -4.527  0.00  0.00    +0.339 C 
ATOM     25  O   UNL     1      -0.068   2.775  -4.854  0.00  0.00    -0.245 OA
BRANCH  24  26
ATOM     26  O   UNL     1      -2.185   3.151  -5.406  0.00  0.00    -0.461 OA
BRANCH  26  27
ATOM     27  C   UNL     1      -1.734   3.563  -6.723  0.00  0.00    +0.232 C 
BRANCH  27  29
ATOM     28  C   UNL     1      -2.467   4.395  -8.962  0.00  0.00    +0.007 C 
ATOM     29  C   UNL     1      -2.942   3.962  -7.574  0.00  0.00    +0.038 C 
ENDBRANCH  27  29
ENDBRANCH  26  27
ENDBRANCH  24  26
ENDBRANCH   1  24
TORSDOF 6
