REMARK  Name = ZINC17939989
REMARK  10 active torsions:
REMARK  status: ('A' for Active; 'I' for Inactive)
REMARK    1  A    between atoms: C_1  and  C_2
REMARK    2  A    between atoms: C_5  and  C_8
REMARK    3  A    between atoms: C_10  and  C_13
REMARK    4  A    between atoms: C_13  and  O_15
REMARK    5  A    between atoms: O_15  and  C_16
REMARK    6  A    between atoms: C_16  and  C_18
REMARK    7  A    between atoms: C_16  and  C_19
REMARK    8  A    between atoms: N_21  and  C_22
REMARK    9  A    between atoms: C_25  and  S_28
REMARK   10  A    between atoms: S_28  and  N_31
REMARK                            x       y       z     vdW  Elec       q    Type
REMARK                         _______ _______ _______ _____ _____    ______ ____
ROOT
ATOM      1  C   UNL     1      -2.569   4.140   0.252  0.00  0.00    +0.259 C 
ATOM      2  C   UNL     1      -3.246   3.750   1.567  0.00  0.00    +0.062 C 
ENDROOT
BRANCH   1   3
ATOM      3  C   UNL     1      -1.255   3.412   0.128  0.00  0.00    +0.258 C 
ATOM      4  O   UNL     1      -0.215   4.035   0.127  0.00  0.00    -0.271 OA
ATOM      5  N   UNL     1      -1.237   2.069   0.019  0.00  0.00    -0.282 N 
ATOM      6  H   UNL     1      -2.070   1.577  -0.057  0.00  0.00    +0.155 HD
BRANCH   5   7
ATOM      7  C   UNL     1      -0.017   1.384   0.015  0.00  0.00    +0.034 A 
ATOM      8  C   UNL     1       0.127   0.222  -0.732  0.00  0.00    +0.025 A 
ATOM      9  C   UNL     1       1.331  -0.454  -0.729  0.00  0.00    +0.030 A 
ATOM     10  C   UNL     1       2.392   0.023   0.017  0.00  0.00    +0.105 A 
ATOM     11  C   UNL     1       2.252   1.180   0.762  0.00  0.00    +0.030 A 
ATOM     12  C   UNL     1       1.051   1.861   0.764  0.00  0.00    +0.025 A 
BRANCH  10  13
ATOM     13  S   UNL     1       3.926  -0.843   0.018  0.00  0.00    +0.056 S 
ATOM     14  O   UNL     1       3.970  -1.593  -1.188  0.00  0.00    -0.153 OA
ATOM     15  O   UNL     1       4.928   0.105   0.362  0.00  0.00    -0.153 OA
BRANCH  13  16
ATOM     16  N   UNL     1       3.868  -1.941   1.256  0.00  0.00    -0.204 NA
ATOM     17  H   UNL     1       3.076  -2.002   1.813  0.00  0.00    +0.144 HD
ATOM     18  H   UNL     1       4.626  -2.522   1.425  0.00  0.00    +0.144 HD
ENDBRANCH  13  16
ENDBRANCH  10  13
ENDBRANCH   5   7
ENDBRANCH   1   3
BRANCH   1  19
ATOM     19  O   UNL     1      -2.332   5.573   0.236  0.00  0.00    -0.448 OA
BRANCH  19  20
ATOM     20  C   UNL     1      -3.309   6.349  -0.274  0.00  0.00    +0.359 C 
ATOM     21  O   UNL     1      -4.331   5.843  -0.694  0.00  0.00    -0.243 OA
BRANCH  20  24
ATOM     22  C   UNL     1      -1.886   9.685   0.082  0.00  0.00    +0.109 A 
ATOM     23  N   UNL     1      -2.028   8.375   0.131  0.00  0.00    -0.232 NA
ATOM     24  C   UNL     1      -3.138   7.810  -0.323  0.00  0.00    +0.155 A 
ATOM     25  C   UNL     1      -4.130   8.618  -0.849  0.00  0.00    +0.082 A 
ATOM     26  S   UNL     1      -3.428  10.195  -0.661  0.00  0.00    -0.075 S 
BRANCH  22  31
ATOM     27  C   UNL     1       2.549  12.919   1.812  0.00  0.00    +0.044 C 
ATOM     28  C   UNL     1       1.388  12.073   1.358  0.00  0.00    -0.050 A 
ATOM     29  C   UNL     1       0.273  12.674   0.801  0.00  0.00    +0.004 A 
ATOM     30  C   UNL     1      -0.793  11.904   0.385  0.00  0.00    +0.011 A 
ATOM     31  C   UNL     1      -0.746  10.517   0.526  0.00  0.00    +0.007 A 
ATOM     32  C   UNL     1       0.378   9.917   1.094  0.00  0.00    +0.011 A 
ATOM     33  C   UNL     1       1.441  10.698   1.502  0.00  0.00    +0.004 A 
ENDBRANCH  22  31
ENDBRANCH  20  24
ENDBRANCH  19  20
ENDBRANCH   1  19
TORSDOF 8
