REMARK  Name = ZINC38971569
REMARK  4 active torsions:
REMARK  status: ('A' for Active; 'I' for Inactive)
REMARK    1  A    between atoms: C_4  and  C_7
REMARK    2  A    between atoms: C_10  and  C_13
REMARK    3  A    between atoms: C_16  and  C_24
REMARK    4  A    between atoms: C_27  and  C_30
REMARK                            x       y       z     vdW  Elec       q    Type
REMARK                         _______ _______ _______ _____ _____    ______ ____
ROOT
ATOM      1  C   UNL     1       7.409  -2.753  -0.088  0.00  0.00    +0.076 C 
ATOM      2  N   UNL     1       8.464  -2.027  -0.085  0.00  0.00    -0.184 NA
ATOM      3  N   UNL     1       9.758  -2.528  -0.140  0.00  0.00    -0.207 N 
ATOM      4  C   UNL     1      10.996  -1.870  -0.580  0.00  0.00    +0.206 C 
ATOM      5  N   UNL     1      11.733  -2.974  -1.259  0.00  0.00    -0.231 NA
ATOM      6  N   UNL     1      11.479  -4.136  -0.392  0.00  0.00    -0.225 NA
ATOM      7  C   UNL     1      10.131  -3.929   0.165  0.00  0.00    +0.234 C 
ATOM      8  S   UNL     1       8.905  -4.956  -0.707  0.00  0.00    -0.114 S 
ATOM      9  C   UNL     1       7.338  -4.250  -0.101  0.00  0.00    +0.129 C 
ATOM     10  H   UNL     1      12.720  -2.771  -1.311  0.00  0.00    +0.143 HD
ATOM     11  H   UNL     1      12.168  -4.197   0.342  0.00  0.00    +0.143 HD
ENDROOT
BRANCH   1  15
ATOM     12  C   UNL     1       3.698  -0.688  -0.038  0.00  0.00    -0.018 A 
ATOM     13  C   UNL     1       4.895   0.029  -0.041  0.00  0.00    +0.009 A 
ATOM     14  C   UNL     1       6.098  -0.638  -0.057  0.00  0.00    +0.010 A 
ATOM     15  C   UNL     1       6.121  -2.036  -0.070  0.00  0.00    -0.001 A 
ATOM     16  C   UNL     1       4.921  -2.753  -0.067  0.00  0.00    +0.010 A 
ATOM     17  C   UNL     1       3.719  -2.083  -0.046  0.00  0.00    +0.009 A 
BRANCH  12  21
ATOM     18  C   UNL     1      -0.017   1.379   0.010  0.00  0.00    +0.000 A 
ATOM     19  C   UNL     1       1.169   2.092   0.002  0.00  0.00    +0.001 A 
ATOM     20  C   UNL     1       2.377   1.427  -0.013  0.00  0.00    +0.008 A 
ATOM     21  C   UNL     1       2.402   0.033  -0.021  0.00  0.00    -0.018 A 
ATOM     22  C   UNL     1       1.205  -0.680  -0.013  0.00  0.00    +0.008 A 
ATOM     23  C   UNL     1       0.002  -0.004   0.002  0.00  0.00    +0.001 A 
ENDBRANCH  12  21
ENDBRANCH   1  15
BRANCH   4  24
ATOM     24  C   UNL     1      10.688  -0.736  -1.559  0.00  0.00    +0.190 C 
ATOM     25  C   UNL     1      11.972  -0.100  -2.063  0.00  0.00    +0.034 C 
ATOM     26  C   UNL     1      11.885   1.177  -1.644  0.00  0.00    +0.091 C 
ATOM     27  N   UNL     1      10.725   1.376  -0.963  0.00  0.00    -0.154 NA
ATOM     28  N   UNL     1      10.007   0.374  -0.872  0.00  0.00    -0.176 NA
BRANCH  26  29
ATOM     29  C   UNL     1      12.911   2.221  -1.890  0.00  0.00    +0.002 A 
ATOM     30  C   UNL     1      14.065   1.911  -2.606  0.00  0.00    +0.010 A 
ATOM     31  C   UNL     1      15.016   2.885  -2.832  0.00  0.00    +0.001 A 
ATOM     32  C   UNL     1      14.825   4.167  -2.349  0.00  0.00    +0.000 A 
ATOM     33  C   UNL     1      13.681   4.480  -1.638  0.00  0.00    +0.001 A 
ATOM     34  C   UNL     1      12.721   3.515  -1.410  0.00  0.00    +0.010 A 
ENDBRANCH  26  29
ENDBRANCH   4  24
TORSDOF 4
