REMARK  Name = ZINC12052192
REMARK  6 active torsions:
REMARK  status: ('A' for Active; 'I' for Inactive)
REMARK    1  A    between atoms: C_8  and  O_10
REMARK    2  A    between atoms: O_10  and  C_11
REMARK    3  A    between atoms: C_14  and  C_17
REMARK    4  A    between atoms: C_17  and  N_18
REMARK    5  A    between atoms: N_18  and  C_19
REMARK    6  A    between atoms: C_28  and  C_30
REMARK                            x       y       z     vdW  Elec       q    Type
REMARK                         _______ _______ _______ _____ _____    ______ ____
ROOT
ATOM      1  C   UNL     1      -2.952   1.431  -1.466  0.00  0.00    +0.144 C 
ENDROOT
BRANCH   1   5
ATOM      2  C   UNL     1      -0.947  -0.393  -4.771  0.00  0.00    +0.121 A 
ATOM      3  C   UNL     1      -1.995  -1.051  -4.145  0.00  0.00    +0.046 A 
ATOM      4  C   UNL     1      -2.642  -0.460  -3.077  0.00  0.00    +0.009 A 
ATOM      5  C   UNL     1      -2.245   0.788  -2.632  0.00  0.00    -0.030 A 
ATOM      6  C   UNL     1      -1.204   1.448  -3.257  0.00  0.00    +0.009 A 
ATOM      7  C   UNL     1      -0.550   0.859  -4.322  0.00  0.00    +0.046 A 
BRANCH   2   8
ATOM      8  O   UNL     1      -0.309  -0.973  -5.821  0.00  0.00    -0.488 OA
BRANCH   8  16
ATOM      9  C   UNL     1       3.346   0.286 -10.392  0.00  0.00    +0.000 A 
ATOM     10  C   UNL     1       2.435   1.298 -10.632  0.00  0.00    +0.000 A 
ATOM     11  C   UNL     1       1.363   1.477  -9.781  0.00  0.00    +0.004 A 
ATOM     12  C   UNL     1       1.196   0.645  -8.685  0.00  0.00    -0.041 A 
ATOM     13  C   UNL     1       2.107  -0.366  -8.444  0.00  0.00    -0.041 A 
ATOM     14  C   UNL     1       3.182  -0.543  -9.300  0.00  0.00    +0.004 A 
ATOM     15  C   UNL     1       1.709  -1.127  -7.199  0.00  0.00    +0.080 C 
ATOM     16  C   UNL     1       0.712  -0.206  -6.464  0.00  0.00    +0.182 C 
ATOM     17  C   UNL     1       0.122   0.637  -7.614  0.00  0.00    +0.080 C 
ENDBRANCH   8  16
ENDBRANCH   2   8
ENDBRANCH   1   5
BRANCH   1  18
ATOM     18  N   UNL     1      -2.216   1.147  -0.232  0.00  0.00    -0.279 N 
ATOM     19  C   UNL     1      -1.224   1.968   0.165  0.00  0.00    +0.283 C 
ATOM     20  O   UNL     1      -0.548   1.681   1.136  0.00  0.00    -0.267 OA
BRANCH  18  21
ATOM     21  C   UNL     1      -2.559  -0.029   0.571  0.00  0.00    +0.163 C 
ATOM     22  C   UNL     1      -1.330  -0.942   0.709  0.00  0.00    +0.032 C 
ATOM     23  C   UNL     1      -1.754  -2.375   0.975  0.00  0.00    +0.004 C 
ATOM     24  C   UNL     1      -2.422  -2.576   2.323  0.00  0.00    +0.019 C 
ATOM     25  C   UNL     1      -3.772  -1.859   2.375  0.00  0.00    +0.104 C 
ATOM     26  N   UNL     1      -3.549  -0.465   2.792  0.00  0.00    -0.314 N 
ATOM     27  C   UNL     1      -2.982   0.407   1.958  0.00  0.00    +0.234 C 
ATOM     28  O   UNL     1      -2.808   1.555   2.310  0.00  0.00    -0.274 OA
ATOM     29  H   UNL     1      -3.817  -0.179   3.680  0.00  0.00    +0.149 HD
ENDBRANCH  18  21
BRANCH  19  30
ATOM     30  C   UNL     1      -0.959   3.208  -0.572  0.00  0.00    +0.189 A 
ATOM     31  C   UNL     1       0.077   4.069  -0.348  0.00  0.00    +0.054 A 
ATOM     32  C   UNL     1      -0.055   5.110  -1.280  0.00  0.00    +0.042 A 
ATOM     33  C   UNL     1      -1.157   4.847  -2.017  0.00  0.00    +0.196 A 
ATOM     34  O   UNL     1      -1.699   3.700  -1.587  0.00  0.00    -0.458 OA
ENDBRANCH  19  30
ENDBRANCH   1  18
TORSDOF 6
