REMARK  Name = ZINC54201574
REMARK  7 active torsions:
REMARK  status: ('A' for Active; 'I' for Inactive)
REMARK    1  A    between atoms: C_1  and  N_2
REMARK    2  A    between atoms: N_2  and  C_3
REMARK    3  A    between atoms: N_2  and  C_4
REMARK    4  A    between atoms: C_7  and  C_10
REMARK    5  A    between atoms: C_13  and  C_31
REMARK    6  A    between atoms: C_21  and  C_22
REMARK    7  A    between atoms: C_27  and  O_28
REMARK                            x       y       z     vdW  Elec       q    Type
REMARK                         _______ _______ _______ _____ _____    ______ ____
ROOT
ATOM      1  C   UNL     1       0.067  -2.246  -4.566  0.00  0.00    +0.136 C 
ATOM      2  C   UNL     1       1.499  -2.122  -5.122  0.00  0.00    +0.087 C 
ATOM      3  C   UNL     1       1.313  -1.440  -6.459  0.00  0.00    +0.069 C 
ATOM      4  N   UNL     1       0.060  -1.212  -6.655  0.00  0.00    -0.182 NA
ATOM      5  N   UNL     1      -0.768  -1.641  -5.615  0.00  0.00    -0.195 N 
ATOM      6  C   UNL     1      -2.132  -1.518  -5.577  0.00  0.00    +0.174 C 
ATOM      7  N   UNL     1      -2.965  -1.898  -4.620  0.00  0.00    -0.152 NA
ATOM      8  C   UNL     1      -4.265  -1.722  -4.705  0.00  0.00    +0.276 C 
ATOM      9  O   UNL     1      -5.022  -2.076  -3.816  0.00  0.00    -0.267 OA
ATOM     10  C   UNL     1      -4.760  -1.070  -5.939  0.00  0.00    +0.080 C 
ATOM     11  C   UNL     1      -6.029  -0.758  -6.309  0.00  0.00    +0.032 C 
ATOM     12  S   UNL     1      -3.216  -0.801  -6.801  0.00  0.00    -0.050 S 
ENDROOT
BRANCH  11  13
ATOM     13  C   UNL     1      -6.266   0.037  -7.520  0.00  0.00    +0.019 A 
ATOM     14  C   UNL     1      -5.228   0.790  -8.082  0.00  0.00    +0.031 A 
ATOM     15  C   UNL     1      -5.458   1.534  -9.220  0.00  0.00    +0.042 A 
ATOM     16  C   UNL     1      -6.714   1.541  -9.809  0.00  0.00    +0.023 A 
ATOM     17  C   UNL     1      -7.747   0.803  -9.264  0.00  0.00    +0.047 A 
ATOM     18  C   UNL     1      -7.533   0.044  -8.124  0.00  0.00    +0.124 A 
ATOM     19 CL   UNL     1      -4.171   2.467  -9.918  0.00  0.00    -0.084 Cl
BRANCH  18  20
ATOM     20  O   UNL     1      -8.546  -0.686  -7.592  0.00  0.00    -0.506 OA
ATOM     21  H   UNL     1      -9.075  -0.207  -6.938  0.00  0.00    +0.292 HD
ENDBRANCH  18  20
ENDBRANCH  11  13
BRANCH   1  25
ATOM     22  C   UNL     1      -0.316  -0.078  -0.902  0.00  0.00    +0.029 A 
ATOM     23  C   UNL     1      -0.180  -1.461  -0.882  0.00  0.00    +0.023 A 
ATOM     24  C   UNL     1      -0.057  -2.158  -2.068  0.00  0.00    +0.007 A 
ATOM     25  C   UNL     1      -0.069  -1.482  -3.274  0.00  0.00    -0.025 A 
ATOM     26  C   UNL     1      -0.204  -0.105  -3.297  0.00  0.00    +0.007 A 
ATOM     27  C   UNL     1      -0.333   0.597  -2.115  0.00  0.00    +0.023 A 
BRANCH  22  29
ATOM     28  C   UNL     1      -0.590   2.087   0.272  0.00  0.00    +0.129 C 
ATOM     29  N   UNL     1      -0.441   0.630   0.295  0.00  0.00    -0.336 N 
ATOM     30  C   UNL     1      -0.423  -0.085   1.574  0.00  0.00    +0.129 C 
ENDBRANCH  22  29
ENDBRANCH   1  25
BRANCH   3  31
ATOM     31  C   UNL     1       2.398  -1.092  -7.394  0.00  0.00    -0.002 A 
ATOM     32  C   UNL     1       3.724  -1.395  -7.075  0.00  0.00    +0.010 A 
ATOM     33  C   UNL     1       4.734  -1.066  -7.955  0.00  0.00    +0.001 A 
ATOM     34  C   UNL     1       4.437  -0.436  -9.151  0.00  0.00    +0.000 A 
ATOM     35  C   UNL     1       3.126  -0.133  -9.473  0.00  0.00    +0.001 A 
ATOM     36  C   UNL     1       2.105  -0.461  -8.606  0.00  0.00    +0.010 A 
ENDBRANCH   3  31
TORSDOF 5
