REMARK  Name = ZINC39914586
REMARK  7 active torsions:
REMARK  status: ('A' for Active; 'I' for Inactive)
REMARK    1  A    between atoms: C_1  and  C_2
REMARK    2  A    between atoms: C_5  and  C_8
REMARK    3  A    between atoms: C_11  and  C_25
REMARK    4  A    between atoms: N_18  and  C_19
REMARK    5  A    between atoms: C_19  and  C_20
REMARK    6  A    between atoms: C_28  and  C_32
REMARK    7  A    between atoms: C_30  and  O_31
REMARK                            x       y       z     vdW  Elec       q    Type
REMARK                         _______ _______ _______ _____ _____    ______ ____
ROOT
ATOM      1  C   UNL     1       0.052  -4.238   0.004  0.00  0.00    +0.142 C 
ATOM      2  C   UNL     1      -1.293  -4.797   0.382  0.00  0.00    +0.035 A 
ATOM      3  C   UNL     1      -2.657  -4.890   0.085  0.00  0.00    +0.102 A 
ATOM      4  N   UNL     1      -3.210  -5.653   1.008  0.00  0.00    -0.173 NA
ATOM      5  N   UNL     1      -2.331  -6.050   1.857  0.00  0.00    -0.272 N 
ATOM      6  H   UNL     1      -2.511  -6.620   2.621  0.00  0.00    +0.189 HD
ATOM      7  C   UNL     1      -1.104  -5.550   1.525  0.00  0.00    +0.126 A 
ATOM      8  C   UNL     1       0.316  -5.492   1.892  0.00  0.00    +0.266 C 
ATOM      9  O   UNL     1       0.807  -6.052   2.853  0.00  0.00    -0.268 OA
ATOM     10  N   UNL     1       0.997  -4.733   1.013  0.00  0.00    -0.278 N 
ENDROOT
BRANCH   3  11
ATOM     11  C   UNL     1      -3.353  -4.248  -1.057  0.00  0.00    +0.045 A 
ATOM     12  C   UNL     1      -2.623  -3.572  -2.031  0.00  0.00    +0.034 A 
ATOM     13  C   UNL     1      -3.276  -2.977  -3.093  0.00  0.00    +0.045 A 
ATOM     14  C   UNL     1      -4.655  -3.049  -3.192  0.00  0.00    -0.029 A 
ATOM     15  C   UNL     1      -5.388  -3.717  -2.230  0.00  0.00    +0.050 A 
ATOM     16  C   UNL     1      -4.745  -4.324  -1.163  0.00  0.00    +0.126 A 
ATOM     17  C   UNL     1      -5.359  -2.396  -4.353  0.00  0.00    +0.045 C 
ATOM     18 CL   UNL     1      -2.364  -2.134  -4.306  0.00  0.00    -0.083 Cl
BRANCH  16  19
ATOM     19  O   UNL     1      -5.465  -4.986  -0.220  0.00  0.00    -0.506 OA
ATOM     20  H   UNL     1      -5.750  -4.431   0.519  0.00  0.00    +0.292 HD
ENDBRANCH  16  19
ENDBRANCH   3  11
BRANCH   1  25
ATOM     21  C   UNL     1      -0.097   1.538   0.082  0.00  0.00    +0.044 C 
ATOM     22  C   UNL     1      -0.058   0.032   0.062  0.00  0.00    -0.050 A 
ATOM     23  C   UNL     1      -0.193  -0.679   1.240  0.00  0.00    +0.004 A 
ATOM     24  C   UNL     1      -0.158  -2.061   1.221  0.00  0.00    +0.006 A 
ATOM     25  C   UNL     1       0.012  -2.732   0.024  0.00  0.00    -0.022 A 
ATOM     26  C   UNL     1       0.146  -2.021  -1.154  0.00  0.00    +0.006 A 
ATOM     27  C   UNL     1       0.106  -0.639  -1.135  0.00  0.00    +0.004 A 
ENDBRANCH   1  25
BRANCH  10  28
ATOM     28  C   UNL     1       2.434  -4.448   1.056  0.00  0.00    +0.183 C 
BRANCH  28  29
ATOM     29  C   UNL     1       2.675  -3.202   1.868  0.00  0.00    +0.122 A 
ATOM     30  C   UNL     1       2.900  -3.159   3.194  0.00  0.00    +0.046 A 
ATOM     31  C   UNL     1       3.072  -1.798   3.536  0.00  0.00    +0.041 A 
ATOM     32  C   UNL     1       2.943  -1.091   2.398  0.00  0.00    +0.195 A 
ATOM     33  O   UNL     1       2.708  -1.947   1.391  0.00  0.00    -0.466 OA
ENDBRANCH  28  29
ENDBRANCH  10  28
TORSDOF 5
