REMARK  Name = ZINC59401574
REMARK  8 active torsions:
REMARK  status: ('A' for Active; 'I' for Inactive)
REMARK    1  A    between atoms: C_1  and  C_2
REMARK    2  A    between atoms: C_3  and  N_9
REMARK    3  A    between atoms: N_9  and  C_10
REMARK    4  A    between atoms: N_9  and  S_28
REMARK    5  A    between atoms: C_10  and  C_11
REMARK    6  A    between atoms: N_13  and  N_14
REMARK    7  A    between atoms: C_15  and  C_16
REMARK    8  A    between atoms: S_28  and  C_31
REMARK                            x       y       z     vdW  Elec       q    Type
REMARK                         _______ _______ _______ _____ _____    ______ ____
ROOT
ATOM      1  C   UNL     1      -1.062   0.663  -3.687  0.00  0.00    +0.228 C 
ENDROOT
BRANCH   1   2
ATOM      2  C   UNL     1      -1.349   2.104  -3.352  0.00  0.00    +0.251 C 
ATOM      3  O   UNL     1      -0.701   2.670  -2.497  0.00  0.00    -0.272 OA
ATOM      4  N   UNL     1      -2.326   2.766  -4.004  0.00  0.00    -0.206 N 
ATOM      5  H   UNL     1      -2.845   2.314  -4.688  0.00  0.00    +0.177 HD
BRANCH   4   6
ATOM      6  N   UNL     1      -2.593   4.105  -3.693  0.00  0.00    -0.188 NA
ATOM      7  C   UNL     1      -3.535   4.743  -4.321  0.00  0.00    +0.139 C 
BRANCH   7   8
ATOM      8  C   UNL     1      -3.816   6.149  -3.995  0.00  0.00    +0.002 A 
ATOM      9  C   UNL     1      -4.824   6.854  -4.649  0.00  0.00    +0.010 A 
ATOM     10  C   UNL     1      -5.102   8.184  -4.354  0.00  0.00    +0.005 A 
ATOM     11  C   UNL     1      -4.396   8.862  -3.404  0.00  0.00    -0.039 A 
ATOM     12  C   UNL     1      -3.380   8.198  -2.724  0.00  0.00    -0.011 A 
ATOM     13  C   UNL     1      -3.050   6.854  -2.969  0.00  0.00    -0.009 A 
ATOM     14  C   UNL     1      -2.014   6.281  -2.223  0.00  0.00    +0.009 A 
ATOM     15  C   UNL     1      -1.374   7.048  -1.289  0.00  0.00    +0.001 A 
ATOM     16  C   UNL     1      -1.720   8.381  -1.057  0.00  0.00    +0.004 A 
ATOM     17  C   UNL     1      -2.716   8.969  -1.775  0.00  0.00    -0.039 A 
ATOM     18  C   UNL     1      -3.343  10.342  -1.791  0.00  0.00    +0.040 C 
ATOM     19  C   UNL     1      -4.450  10.272  -2.865  0.00  0.00    +0.040 C 
ENDBRANCH   7   8
ENDBRANCH   4   6
ENDBRANCH   1   2
BRANCH   1  20
ATOM     20  N   UNL     1      -0.065   0.135  -2.752  0.00  0.00    -0.194 N 
BRANCH  20  23
ATOM     21  C   UNL     1      -0.538  -2.665  -2.573  0.00  0.00    +0.047 C 
ATOM     22  C   UNL     1      -0.711  -1.749  -1.389  0.00  0.00    -0.010 A 
ATOM     23  C   UNL     1      -0.469  -0.388  -1.522  0.00  0.00    +0.056 A 
ATOM     24  C   UNL     1      -0.630   0.453  -0.428  0.00  0.00    +0.025 A 
ATOM     25  C   UNL     1      -1.030  -0.066   0.788  0.00  0.00    +0.003 A 
ATOM     26  C   UNL     1      -1.270  -1.421   0.918  0.00  0.00    +0.020 A 
ATOM     27  C   UNL     1      -1.116  -2.261  -0.171  0.00  0.00    +0.046 A 
ATOM     28 CL   UNL     1      -1.426  -3.962  -0.005  0.00  0.00    -0.083 Cl
ENDBRANCH  20  23
BRANCH  20  29
ATOM     29  S   UNL     1       1.541   0.156  -3.155  0.00  0.00    +0.075 S 
ATOM     30  O   UNL     1       1.708   1.199  -4.106  0.00  0.00    -0.150 OA
ATOM     31  O   UNL     1       2.267   0.115  -1.934  0.00  0.00    -0.150 OA
BRANCH  29  32
ATOM     32  C   UNL     1       1.887  -1.353  -3.998  0.00  0.00    +0.109 A 
ATOM     33  C   UNL     1       2.439  -2.417  -3.310  0.00  0.00    +0.029 A 
ATOM     34  C   UNL     1       2.710  -3.601  -3.971  0.00  0.00    +0.002 A 
ATOM     35  C   UNL     1       2.429  -3.720  -5.319  0.00  0.00    +0.000 A 
ATOM     36  C   UNL     1       1.876  -2.655  -6.007  0.00  0.00    +0.002 A 
ATOM     37  C   UNL     1       1.601  -1.473  -5.345  0.00  0.00    +0.029 A 
ENDBRANCH  29  32
ENDBRANCH  20  29
ENDBRANCH   1  20
TORSDOF 7
