REMARK  Name = ZINC38719857
REMARK  6 active torsions:
REMARK  status: ('A' for Active; 'I' for Inactive)
REMARK    1  A    between atoms: C_1  and  C_2
REMARK    2  A    between atoms: C_5  and  C_8
REMARK    3  A    between atoms: C_8  and  N_9
REMARK    4  A    between atoms: C_10  and  C_21
REMARK    5  A    between atoms: C_26  and  C_27
REMARK    6  A    between atoms: C_30  and  C_33
REMARK                            x       y       z     vdW  Elec       q    Type
REMARK                         _______ _______ _______ _____ _____    ______ ____
ROOT
ATOM      1  N   UNL     1       1.489  -4.741  -0.104  0.00  0.00    -0.270 N 
ATOM      2  C   UNL     1       1.983  -4.828  -1.478  0.00  0.00    +0.197 C 
ATOM      3  N   UNL     1       2.911  -5.957  -1.615  0.00  0.00    -0.321 N 
ATOM      4  C   UNL     1       3.873  -6.148  -0.629  0.00  0.00    +0.041 A 
ATOM      5  C   UNL     1       5.100  -6.726  -0.906  0.00  0.00    +0.024 A 
ATOM      6  C   UNL     1       6.022  -6.890   0.110  0.00  0.00    +0.002 A 
ATOM      7  C   UNL     1       5.729  -6.481   1.401  0.00  0.00    +0.001 A 
ATOM      8  C   UNL     1       4.510  -5.905   1.694  0.00  0.00    +0.015 A 
ATOM      9  C   UNL     1       3.571  -5.735   0.680  0.00  0.00    +0.058 A 
ATOM     10  C   UNL     1       2.252  -5.128   0.939  0.00  0.00    +0.250 C 
ATOM     11  O   UNL     1       1.855  -4.982   2.079  0.00  0.00    -0.270 OA
ATOM     12  H   UNL     1       2.854  -6.556  -2.376  0.00  0.00    +0.148 HD
ENDROOT
BRANCH   2  13
ATOM     13  C   UNL     1       2.700  -3.551  -1.832  0.00  0.00    +0.039 A 
ATOM     14  C   UNL     1       3.296  -2.665  -0.935  0.00  0.00    +0.142 A 
ATOM     15  N   UNL     1       3.819  -1.673  -1.609  0.00  0.00    -0.181 NA
ATOM     16  N   UNL     1       3.581  -1.881  -2.973  0.00  0.00    -0.274 N 
ATOM     17  H   UNL     1       3.860  -1.299  -3.697  0.00  0.00    +0.189 HD
ATOM     18  C   UNL     1       2.891  -3.051  -3.102  0.00  0.00    +0.106 A 
BRANCH  18  19
ATOM     19  C   UNL     1       2.432  -3.664  -4.364  0.00  0.00    +0.142 C 
ATOM     20  C   UNL     1       1.864  -4.867  -4.430  0.00  0.00    +0.024 C 
ATOM     21  C   UNL     1       1.530  -5.125  -5.890  0.00  0.00    +0.075 C 
ATOM     22  C   UNL     1       1.655  -3.707  -6.498  0.00  0.00    +0.174 C 
ATOM     23  O   UNL     1       2.542  -3.058  -5.570  0.00  0.00    -0.487 OA
ATOM     24  C   UNL     1       2.269  -3.766  -7.899  0.00  0.00    +0.052 C 
ENDBRANCH  18  19
ENDBRANCH   2  13
BRANCH   1  25
ATOM     25  C   UNL     1       0.143  -4.218   0.145  0.00  0.00    +0.145 C 
BRANCH  25  30
ATOM     26  C   UNL     1       0.371   1.535   0.646  0.00  0.00    +0.044 C 
ATOM     27  C   UNL     1       0.312   0.035   0.516  0.00  0.00    -0.050 A 
ATOM     28  C   UNL     1       0.003  -0.541  -0.702  0.00  0.00    +0.003 A 
ATOM     29  C   UNL     1      -0.052  -1.917  -0.822  0.00  0.00    +0.005 A 
ATOM     30  C   UNL     1       0.203  -2.717   0.276  0.00  0.00    -0.030 A 
ATOM     31  C   UNL     1       0.514  -2.142   1.493  0.00  0.00    +0.005 A 
ATOM     32  C   UNL     1       0.572  -0.766   1.612  0.00  0.00    +0.003 A 
ENDBRANCH  25  30
ENDBRANCH   1  25
TORSDOF 4
