REMARK  Name = ZINC63743052
REMARK  7 active torsions:
REMARK  status: ('A' for Active; 'I' for Inactive)
REMARK    1  A    between atoms: C_1  and  C_2
REMARK    2  A    between atoms: C_2  and  C_4
REMARK    3  A    between atoms: C_2  and  S_17
REMARK    4  A    between atoms: C_8  and  C_11
REMARK    5  A    between atoms: S_17  and  C_18
REMARK    6  A    between atoms: C_24  and  O_28
REMARK    7  A    between atoms: O_28  and  C_29
REMARK                            x       y       z     vdW  Elec       q    Type
REMARK                         _______ _______ _______ _____ _____    ______ ____
ROOT
ATOM      1  C   UNL     1      -0.019   1.526   0.010  0.00  0.00    +0.023 C 
ATOM      2  C   UNL     1       0.002  -0.004   0.002  0.00  0.00    +0.092 C 
ENDROOT
BRANCH   2   3
ATOM      3  C   UNL     1       0.718  -0.497  -1.257  0.00  0.00    +0.215 C 
ATOM      4  N   UNL     1       2.128  -0.027  -1.269  0.00  0.00    -0.226 NA
ATOM      5  N   UNL     1       2.784  -1.021  -2.135  0.00  0.00    -0.223 NA
ATOM      6  C   UNL     1       2.091  -2.287  -1.802  0.00  0.00    +0.233 C 
ATOM      7  O   UNL     1       0.811  -1.933  -1.251  0.00  0.00    -0.336 OA
ATOM      8  H   UNL     1       2.197   0.899  -1.665  0.00  0.00    +0.143 HD
ATOM      9  H   UNL     1       3.770  -1.084  -1.932  0.00  0.00    +0.144 HD
BRANCH   6  10
ATOM     10  C   UNL     1       1.905  -3.115  -3.047  0.00  0.00    -0.003 A 
ATOM     11  C   UNL     1       0.712  -3.778  -3.264  0.00  0.00    +0.007 A 
ATOM     12  C   UNL     1       0.541  -4.537  -4.407  0.00  0.00    +0.000 A 
ATOM     13  C   UNL     1       1.564  -4.634  -5.332  0.00  0.00    +0.000 A 
ATOM     14  C   UNL     1       2.757  -3.970  -5.115  0.00  0.00    +0.000 A 
ATOM     15  C   UNL     1       2.926  -3.207  -3.974  0.00  0.00    +0.007 A 
ENDBRANCH   6  10
ENDBRANCH   2   3
BRANCH   2  16
ATOM     16  S   UNL     1      -1.700  -0.632   0.015  0.00  0.00    -0.108 S 
BRANCH  16  17
ATOM     17  C   UNL     1      -2.354  -0.095   1.619  0.00  0.00    +0.236 C 
ATOM     18  N   UNL     1      -2.262   1.366   1.737  0.00  0.00    -0.355 N 
ATOM     19  C   UNL     1      -1.496   1.630   2.757  0.00  0.00    +0.061 A 
ATOM     20  C   UNL     1      -1.045   2.896   3.353  0.00  0.00    +0.031 A 
ATOM     21  C   UNL     1      -0.237   2.878   4.430  0.00  0.00    +0.048 A 
ATOM     22  C   UNL     1       0.213   1.630   5.033  0.00  0.00    +0.122 A 
ATOM     23  C   UNL     1      -0.159   0.423   4.542  0.00  0.00    +0.073 A 
ATOM     24  C   UNL     1      -1.038   0.355   3.372  0.00  0.00    +0.064 A 
ATOM     25  N   UNL     1      -1.540  -0.651   2.707  0.00  0.00    -0.355 N 
ATOM     26  H   UNL     1      -2.692   2.016   1.160  0.00  0.00    +0.162 HD
ATOM     27  H   UNL     1      -1.401  -1.592   2.897  0.00  0.00    +0.162 HD
BRANCH  22  28
ATOM     28  O   UNL     1       1.027   1.678   6.117  0.00  0.00    -0.495 OA
ATOM     29  C   UNL     1       1.392   2.973   6.598  0.00  0.00    +0.277 C 
ENDBRANCH  22  28
ENDBRANCH  16  17
ENDBRANCH   2  16
TORSDOF 5
