REMARK  Name = ZINC12464172
REMARK  10 active torsions:
REMARK  status: ('A' for Active; 'I' for Inactive)
REMARK    1  A    between atoms: C_1  and  C_2
REMARK    2  A    between atoms: C_2  and  O_3
REMARK    3  A    between atoms: O_3  and  C_4
REMARK    4  A    between atoms: C_4  and  C_6
REMARK    5  A    between atoms: C_10  and  N_11
REMARK    6  A    between atoms: C_12  and  C_14
REMARK    7  A    between atoms: C_14  and  C_16
REMARK    8  A    between atoms: C_14  and  S_17
REMARK    9  A    between atoms: S_17  and  C_18
REMARK   10  A    between atoms: C_24  and  C_26
REMARK                            x       y       z     vdW  Elec       q    Type
REMARK                         _______ _______ _______ _____ _____    ______ ____
ROOT
ATOM      1  N   UNL     1      -0.011   0.966   0.007  0.00  0.00    -0.278 N 
ATOM      2  C   UNL     1       1.147   1.655   0.000  0.00  0.00    +0.231 C 
ATOM      3  O   UNL     1       1.130   2.868   0.007  0.00  0.00    -0.274 OA
ATOM      4  H   UNL     1       0.002  -0.004   0.002  0.00  0.00    +0.155 HD
ENDROOT
BRANCH   1   9
ATOM      5  C   UNL     1      -2.505   1.114   0.014  0.00  0.00    +0.091 A 
ATOM      6  C   UNL     1      -3.616   2.051   0.031  0.00  0.00    -0.021 A 
ATOM      7  C   UNL     1      -3.268   3.356   0.035  0.00  0.00    -0.004 A 
ATOM      8  S   UNL     1      -1.498   3.353   0.027  0.00  0.00    -0.077 S 
ATOM      9  C   UNL     1      -1.221   1.643   0.017  0.00  0.00    +0.086 A 
ATOM     10  C   UNL     1      -4.189   4.537   0.046  0.00  0.00    +0.043 C 
ATOM     11  C   UNL     1      -5.599   4.054  -0.328  0.00  0.00    +0.005 C 
ATOM     12  C   UNL     1      -5.931   2.812   0.505  0.00  0.00    +0.005 C 
ATOM     13  C   UNL     1      -5.080   1.629   0.037  0.00  0.00    +0.037 C 
BRANCH   5  14
ATOM     14  C   UNL     1      -2.732  -0.333   0.000  0.00  0.00    +0.342 C 
ATOM     15  O   UNL     1      -2.824  -0.944   1.048  0.00  0.00    -0.245 OA
BRANCH  14  16
ATOM     16  O   UNL     1      -2.838  -0.987  -1.174  0.00  0.00    -0.461 OA
BRANCH  16  18
ATOM     17  C   UNL     1      -3.155  -2.984  -2.532  0.00  0.00    +0.048 C 
ATOM     18  C   UNL     1      -3.062  -2.420  -1.112  0.00  0.00    +0.229 C 
ENDBRANCH  16  18
ENDBRANCH  14  16
ENDBRANCH   5  14
ENDBRANCH   1   9
BRANCH   2  19
ATOM     19  C   UNL     1       2.462   0.920  -0.017  0.00  0.00    +0.137 C 
ATOM     20  C   UNL     1       2.832   0.569  -1.459  0.00  0.00    +0.029 C 
BRANCH  19  21
ATOM     21  S   UNL     1       3.750   1.971   0.698  0.00  0.00    -0.075 S 
BRANCH  21  22
ATOM     22  C   UNL     1       5.103   0.842   0.695  0.00  0.00    +0.170 A 
ATOM     23  N   UNL     1       6.314   1.252   1.165  0.00  0.00    -0.302 N 
ATOM     24  H   UNL     1       6.424   2.157   1.497  0.00  0.00    +0.171 HD
ATOM     25  C   UNL     1       7.361   0.400   1.175  0.00  0.00    +0.253 A 
ATOM     26  O   UNL     1       8.448   0.756   1.599  0.00  0.00    -0.268 OA
ATOM     27  C   UNL     1       7.178  -0.902   0.685  0.00  0.00    +0.098 A 
ATOM     28  C   UNL     1       5.926  -1.266   0.212  0.00  0.00    +0.079 A 
ATOM     29  N   UNL     1       4.924  -0.378   0.233  0.00  0.00    -0.223 NA
BRANCH  28  30
ATOM     30  C   UNL     1       5.697  -2.633  -0.314  0.00  0.00    +0.001 A 
ATOM     31  C   UNL     1       6.742  -3.556  -0.340  0.00  0.00    +0.010 A 
ATOM     32  C   UNL     1       6.522  -4.829  -0.826  0.00  0.00    +0.001 A 
ATOM     33  C   UNL     1       5.271  -5.186  -1.297  0.00  0.00    +0.000 A 
ATOM     34  C   UNL     1       4.232  -4.273  -1.278  0.00  0.00    +0.001 A 
ATOM     35  C   UNL     1       4.439  -2.999  -0.789  0.00  0.00    +0.010 A 
ENDBRANCH  28  30
ENDBRANCH  21  22
ENDBRANCH  19  21
ENDBRANCH   2  19
TORSDOF 8
