REMARK  Name = ZINC39700619
REMARK  4 active torsions:
REMARK  status: ('A' for Active; 'I' for Inactive)
REMARK    1  A    between atoms: C_1  and  C_2
REMARK    2  A    between atoms: C_2  and  C_26
REMARK    3  A    between atoms: N_12  and  N_13
REMARK    4  A    between atoms: C_14  and  C_15
REMARK                            x       y       z     vdW  Elec       q    Type
REMARK                         _______ _______ _______ _____ _____    ______ ____
ROOT
ATOM      1  C   UNL     1      -0.019   1.526   0.010  0.00  0.00    +0.041 C 
ATOM      2  C   UNL     1       0.002  -0.004   0.002  0.00  0.00    +0.068 C 
ATOM      3  C   UNL     1       0.699  -0.496  -1.277  0.00  0.00    +0.067 C 
ATOM      4  C   UNL     1       0.893  -2.001  -1.098  0.00  0.00    -0.037 C 
ATOM      5  C   UNL     1       0.516  -2.934  -1.966  0.00  0.00    +0.071 C 
ATOM      6  C   UNL     1       0.571  -4.358  -1.532  0.00  0.00    +0.113 C 
ATOM      7  N   UNL     1       0.170  -5.341  -2.297  0.00  0.00    -0.208 NA
ATOM      8  C   UNL     1      -0.301  -5.032  -3.514  0.00  0.00    +0.228 C 
ATOM      9  N   UNL     1      -0.396  -3.811  -4.003  0.00  0.00    -0.142 NA
ATOM     10  C   UNL     1      -0.034  -2.700  -3.344  0.00  0.00    +0.273 C 
ATOM     11  O   UNL     1      -0.142  -1.586  -3.827  0.00  0.00    -0.268 OA
ATOM     12  N   UNL     1      -0.717  -6.069  -4.315  0.00  0.00    -0.207 N 
ATOM     13  S   UNL     1       1.257  -4.307   0.094  0.00  0.00    -0.095 S 
ATOM     14  C   UNL     1       1.542  -2.499   0.196  0.00  0.00    +0.105 C 
ATOM     15  C   UNL     1       0.725  -1.892   1.341  0.00  0.00    +0.179 C 
ATOM     16  O   UNL     1       0.692  -0.472   1.158  0.00  0.00    -0.372 OA
ATOM     17  C   UNL     1      -1.435  -0.529   0.023  0.00  0.00    +0.041 C 
ATOM     18  H   UNL     1      -0.663  -6.982  -3.993  0.00  0.00    +0.177 HD
ENDROOT
BRANCH  12  19
ATOM     19  N   UNL     1      -1.218  -5.807  -5.597  0.00  0.00    -0.188 NA
ATOM     20  C   UNL     1      -1.610  -6.786  -6.354  0.00  0.00    +0.138 C 
BRANCH  20  21
ATOM     21  C   UNL     1      -2.138  -6.510  -7.703  0.00  0.00    -0.005 A 
ATOM     22  C   UNL     1      -2.211  -5.197  -8.172  0.00  0.00    +0.009 A 
ATOM     23  C   UNL     1      -2.705  -4.946  -9.435  0.00  0.00    +0.001 A 
ATOM     24  C   UNL     1      -3.128  -5.992 -10.237  0.00  0.00    +0.000 A 
ATOM     25  C   UNL     1      -3.058  -7.296  -9.778  0.00  0.00    +0.001 A 
ATOM     26  C   UNL     1      -2.561  -7.562  -8.519  0.00  0.00    +0.009 A 
ENDBRANCH  20  21
ENDBRANCH  12  19
TORSDOF 2
