REMARK  Name = ZINC05334797
REMARK  2 active torsions:
REMARK  status: ('A' for Active; 'I' for Inactive)
REMARK    1  A    between atoms: C_1  and  N_2
REMARK    2  A    between atoms: C_15  and  C_18
REMARK                            x       y       z     vdW  Elec       q    Type
REMARK                         _______ _______ _______ _____ _____    ______ ____
ROOT
ATOM      1  C   UNL     1      -0.013   1.086   0.008  0.00  0.00    +0.131 C 
ATOM      2  N   UNL     1      -0.700   1.560   1.217  0.00  0.00    -0.309 N 
ATOM      3  C   UNL     1      -2.074   1.308   1.143  0.00  0.00    +0.052 A 
ATOM      4  C   UNL     1      -2.695   1.340  -0.102  0.00  0.00    +0.025 A 
ATOM      5  C   UNL     1      -4.050   1.100  -0.209  0.00  0.00    +0.002 A 
ATOM      6  C   UNL     1      -4.802   0.826   0.918  0.00  0.00    +0.002 A 
ATOM      7  C   UNL     1      -4.196   0.791   2.161  0.00  0.00    +0.025 A 
ATOM      8  C   UNL     1      -2.835   1.030   2.275  0.00  0.00    +0.051 A 
ATOM      9  N   UNL     1      -2.231   0.990   3.545  0.00  0.00    -0.303 N 
ATOM     10  C   UNL     1      -0.861   1.518   3.652  0.00  0.00    +0.329 C 
ATOM     11  C   UNL     1      -0.089   0.997   2.423  0.00  0.00    +0.223 C 
ATOM     12  N   UNL     1       1.296   1.476   2.556  0.00  0.00    -0.303 N 
ATOM     13  C   UNL     1       1.883   1.405   3.813  0.00  0.00    +0.167 C 
ATOM     14  N   UNL     1       1.169   1.184   4.871  0.00  0.00    -0.067 NA
ATOM     15  O   UNL     1      -0.230   0.997   4.823  0.00  0.00    -0.366 OA
ATOM     16  H   UNL     1      -2.696   0.629   4.316  0.00  0.00    +0.150 HD
ATOM     17  H   UNL     1       1.781   1.828   1.794  0.00  0.00    +0.150 HD
ENDROOT
BRANCH  13  18
ATOM     18  C   UNL     1       3.346   1.586   3.946  0.00  0.00    +0.018 A 
ATOM     19  C   UNL     1       4.128   1.820   2.814  0.00  0.00    +0.012 A 
ATOM     20  C   UNL     1       5.491   1.993   2.945  0.00  0.00    +0.016 A 
ATOM     21  C   UNL     1       6.084   1.924   4.194  0.00  0.00    +0.018 A 
ATOM     22  C   UNL     1       5.313   1.687   5.319  0.00  0.00    +0.016 A 
ATOM     23  C   UNL     1       3.949   1.518   5.202  0.00  0.00    +0.012 A 
ATOM     24 BR   UNL     1       7.953   2.154   4.363  0.00  0.00    -0.050 Br
ENDBRANCH  13  18
TORSDOF 1
