REMARK  Name = ZINC12035398
REMARK  11 active torsions:
REMARK  status: ('A' for Active; 'I' for Inactive)
REMARK    1  A    between atoms: C_1  and  C_2
REMARK    2  A    between atoms: C_4  and  C_10
REMARK    3  A    between atoms: C_6  and  C_9
REMARK    4  A    between atoms: C_7  and  O_8
REMARK    5  A    between atoms: C_10  and  N_67
REMARK    6  A    between atoms: C_13  and  C_16
REMARK    7  A    between atoms: C_16  and  C_18
REMARK    8  A    between atoms: C_16  and  N_27
REMARK    9  A    between atoms: C_18  and  C_19
REMARK   10  A    between atoms: N_27  and  C_28
REMARK   11  A    between atoms: C_29  and  C_31
REMARK                            x       y       z     vdW  Elec       q    Type
REMARK                         _______ _______ _______ _____ _____    ______ ____
ROOT
ATOM      1  C   UNL     1       0.030  -0.002  -0.117  0.00  0.00    +0.083 C 
ENDROOT
BRANCH   1   4
ATOM      2  C   UNL     1       1.363   3.588   0.270  0.00  0.00    -0.078 C 
ATOM      3  C   UNL     1       1.412   2.062   0.164  0.00  0.00    -0.013 C 
ATOM      4  C   UNL     1      -0.015   1.518   0.051  0.00  0.00    +0.006 C 
ATOM      5  C   UNL     1      -0.699   2.147  -1.165  0.00  0.00    -0.013 C 
ATOM      6  C   UNL     1      -0.686   3.671  -1.020  0.00  0.00    -0.078 C 
ATOM      7  N   UNL     1       0.716   4.134  -0.942  0.00  0.00    +0.382 N 
ATOM      8  H   UNL     1       1.223   3.800  -1.770  0.00  0.00    -0.081 HD
BRANCH   7   9
ATOM      9  C   UNL     1       0.759   5.610  -0.915  0.00  0.00    -0.043 C 
BRANCH   9  13
ATOM     10  C   UNL     1      -2.930   7.204  -3.897  0.00  0.00    +0.047 C 
ATOM     11  C   UNL     1      -1.471   6.895  -3.677  0.00  0.00    -0.009 A 
ATOM     12  C   UNL     1      -1.043   6.416  -2.454  0.00  0.00    +0.008 A 
ATOM     13  C   UNL     1       0.295   6.133  -2.251  0.00  0.00    -0.063 A 
ATOM     14  C   UNL     1       1.208   6.334  -3.269  0.00  0.00    +0.008 A 
ATOM     15  C   UNL     1       0.785   6.807  -4.495  0.00  0.00    -0.009 A 
ATOM     16  C   UNL     1      -0.557   7.092  -4.702  0.00  0.00    +0.123 A 
ATOM     17  C   UNL     1       1.780   7.020  -5.606  0.00  0.00    +0.047 C 
BRANCH  16  18
ATOM     18  O   UNL     1      -0.976   7.563  -5.906  0.00  0.00    -0.506 OA
ATOM     19  H   UNL     1      -0.964   8.527  -5.977  0.00  0.00    +0.292 HD
ENDBRANCH  16  18
ENDBRANCH   9  13
ENDBRANCH   7   9
ENDBRANCH   1   4
BRANCH   1  20
ATOM     20  N   UNL     1       0.927  -0.345  -1.224  0.00  0.00    -0.294 N 
ATOM     21  C   UNL     1       0.680   0.197  -2.562  0.00  0.00    +0.132 C 
ATOM     22  C   UNL     1       1.980  -1.159  -1.010  0.00  0.00    +0.282 C 
ATOM     23  O   UNL     1       2.793  -1.348  -1.896  0.00  0.00    -0.267 OA
BRANCH  22  24
ATOM     24  C   UNL     1       2.147  -1.817   0.290  0.00  0.00    +0.189 A 
ATOM     25  C   UNL     1       3.231  -2.545   0.688  0.00  0.00    +0.054 A 
ATOM     26  C   UNL     1       2.965  -2.985   1.994  0.00  0.00    +0.042 A 
ATOM     27  C   UNL     1       1.745  -2.512   2.332  0.00  0.00    +0.196 A 
ATOM     28  O   UNL     1       1.257  -1.804   1.305  0.00  0.00    -0.458 OA
ENDBRANCH  22  24
ENDBRANCH   1  20
BRANCH   1  29
ATOM     29  C   UNL     1      -1.376  -0.523  -0.421  0.00  0.00    +0.060 C 
BRANCH  29  30
ATOM     30  C   UNL     1      -1.363  -2.030  -0.423  0.00  0.00    -0.010 A 
ATOM     31  C   UNL     1      -1.808  -2.727   0.685  0.00  0.00    +0.009 A 
ATOM     32  C   UNL     1      -1.798  -4.109   0.684  0.00  0.00    +0.039 A 
ATOM     33  C   UNL     1      -1.342  -4.798  -0.428  0.00  0.00    +0.126 A 
ATOM     34  C   UNL     1      -0.896  -4.101  -1.538  0.00  0.00    +0.077 A 
ATOM     35  C   UNL     1      -0.911  -2.717  -1.537  0.00  0.00    +0.129 A 
ATOM     36  F   UNL     1      -0.481  -2.036  -2.622  0.00  0.00    -0.205 F 
ATOM     37  F   UNL     1      -1.332  -6.148  -0.428  0.00  0.00    -0.205 F 
ENDBRANCH  29  30
ENDBRANCH   1  29
TORSDOF 8
