REMARK  Name = ZINC45335870
REMARK  12 active torsions:
REMARK  status: ('A' for Active; 'I' for Inactive)
REMARK    1  A    between atoms: C_1  and  C_2
REMARK    2  A    between atoms: C_2  and  C_3
REMARK    3  A    between atoms: C_2  and  C_4
REMARK    4  A    between atoms: C_2  and  C_18
REMARK    5  A    between atoms: C_4  and  N_5
REMARK    6  A    between atoms: N_5  and  C_6
REMARK    7  A    between atoms: C_6  and  C_7
REMARK    8  A    between atoms: C_10  and  O_13
REMARK    9  A    between atoms: O_13  and  C_14
REMARK   10  A    between atoms: C_21  and  C_32
REMARK   11  A    between atoms: C_22  and  C_24
REMARK   12  A    between atoms: C_28  and  O_30
REMARK                            x       y       z     vdW  Elec       q    Type
REMARK                         _______ _______ _______ _____ _____    ______ ____
ROOT
ATOM      1  C   UNL     1       0.651  -0.413  -1.308  0.00  0.00    +0.115 A 
ATOM      2  N   UNL     1       1.820   0.068  -1.782  0.00  0.00    -0.341 N 
ATOM      3  H   UNL     1       2.300   0.842  -1.449  0.00  0.00    +0.167 HD
ATOM      4  C   UNL     1       2.206  -0.744  -2.824  0.00  0.00    +0.074 A 
ATOM      5  C   UNL     1       1.224  -1.712  -2.942  0.00  0.00    +0.097 A 
ATOM      6  N   UNL     1       0.303  -1.468  -1.991  0.00  0.00    -0.231 NA
ENDROOT
BRANCH   5   7
ATOM      7  C   UNL     1       1.195  -2.817  -3.928  0.00  0.00    +0.006 A 
ATOM      8  C   UNL     1       2.360  -3.527  -4.218  0.00  0.00    +0.012 A 
ATOM      9  C   UNL     1       2.330  -4.556  -5.137  0.00  0.00    +0.024 A 
ATOM     10  C   UNL     1       1.147  -4.886  -5.774  0.00  0.00    +0.082 A 
ATOM     11  C   UNL     1      -0.018  -4.184  -5.491  0.00  0.00    +0.136 A 
ATOM     12  C   UNL     1       0.002  -3.154  -4.565  0.00  0.00    +0.057 A 
ATOM     13 CL   UNL     1       1.118  -6.181  -6.929  0.00  0.00    -0.080 Cl
BRANCH  11  14
ATOM     14  O   UNL     1      -1.178  -4.511  -6.118  0.00  0.00    -0.505 OA
ATOM     15  H   UNL     1      -1.702  -5.178  -5.654  0.00  0.00    +0.292 HD
ENDBRANCH  11  14
ENDBRANCH   5   7
BRANCH   4  16
ATOM     16  C   UNL     1       3.421  -0.610  -3.650  0.00  0.00    +0.003 A 
ATOM     17  C   UNL     1       3.354  -0.681  -5.048  0.00  0.00    +0.030 A 
ATOM     18  C   UNL     1       4.514  -0.550  -5.780  0.00  0.00    +0.111 A 
ATOM     19  N   UNL     1       5.675  -0.360  -5.182  0.00  0.00    -0.263 NA
ATOM     20  C   UNL     1       5.784  -0.287  -3.869  0.00  0.00    +0.111 A 
ATOM     21  C   UNL     1       4.674  -0.401  -3.059  0.00  0.00    +0.030 A 
ENDBRANCH   4  16
BRANCH   1  23
ATOM     22  C   UNL     1      -0.201   1.696  -0.319  0.00  0.00    +0.020 C 
ATOM     23  C   UNL     1      -0.130   0.175  -0.161  0.00  0.00    +0.035 C 
ATOM     24  C   UNL     1       0.565  -0.168   1.158  0.00  0.00    +0.020 C 
BRANCH  23  25
ATOM     25  C   UNL     1      -1.546  -0.404  -0.157  0.00  0.00    +0.095 C 
BRANCH  25  26
ATOM     26  N   UNL     1      -2.307   0.170   0.961  0.00  0.00    -0.311 NA
ATOM     27  H   UNL     1      -1.834   0.012   1.838  0.00  0.00    +0.122 HD
BRANCH  26  28
ATOM     28  C   UNL     1      -3.674  -0.365   0.996  0.00  0.00    +0.116 C 
BRANCH  28  29
ATOM     29  C   UNL     1      -4.423   0.245   2.153  0.00  0.00    -0.033 A 
ATOM     30  C   UNL     1      -4.393  -0.366   3.393  0.00  0.00    +0.008 A 
ATOM     31  C   UNL     1      -5.079   0.191   4.455  0.00  0.00    +0.046 A 
ATOM     32  C   UNL     1      -5.796   1.365   4.277  0.00  0.00    +0.130 A 
ATOM     33  C   UNL     1      -5.824   1.977   3.032  0.00  0.00    +0.046 A 
ATOM     34  C   UNL     1      -5.133   1.418   1.975  0.00  0.00    +0.008 A 
BRANCH  32  35
ATOM     35  O   UNL     1      -6.472   1.915   5.321  0.00  0.00    -0.406 OA
BRANCH  35  36
ATOM     36  C   UNL     1      -7.189   3.124   5.064  0.00  0.00    +0.575 C 
ATOM     37  F   UNL     1      -8.150   2.895   4.074  0.00  0.00    -0.133 F 
ATOM     38  F   UNL     1      -7.822   3.548   6.238  0.00  0.00    -0.133 F 
ATOM     39  F   UNL     1      -6.298   4.112   4.631  0.00  0.00    -0.133 F 
ENDBRANCH  35  36
ENDBRANCH  32  35
ENDBRANCH  28  29
ENDBRANCH  26  28
ENDBRANCH  25  26
ENDBRANCH  23  25
ENDBRANCH   1  23
TORSDOF 10
