REMARK  Name = ZINC35074729
REMARK  5 active torsions:
REMARK  status: ('A' for Active; 'I' for Inactive)
REMARK    1  A    between atoms: C_6  and  N_7
REMARK    2  A    between atoms: N_7  and  C_8
REMARK    3  A    between atoms: C_8  and  C_9
REMARK    4  A    between atoms: C_11  and  N_16
REMARK    5  A    between atoms: C_14  and  O_15
REMARK                            x       y       z     vdW  Elec       q    Type
REMARK                         _______ _______ _______ _____ _____    ______ ____
ROOT
ATOM      1  C   UNL     1      -1.177  -2.185   0.002  0.00  0.00    +0.140 C 
ENDROOT
BRANCH   1   2
ATOM      2  C   UNL     1      -2.590  -2.708   0.012  0.00  0.00    +0.013 A 
ATOM      3  C   UNL     1      -3.140  -3.237  -1.139  0.00  0.00    +0.041 A 
ATOM      4  C   UNL     1      -4.436  -3.717  -1.130  0.00  0.00    +0.127 A 
ATOM      5  C   UNL     1      -5.186  -3.669   0.031  0.00  0.00    +0.036 A 
ATOM      6  C   UNL     1      -4.641  -3.141   1.185  0.00  0.00    +0.048 A 
ATOM      7  C   UNL     1      -3.337  -2.664   1.180  0.00  0.00    +0.122 A 
BRANCH   4   8
ATOM      8  N   UNL     1      -5.023  -4.284  -2.365  0.00  0.00    +0.056 N 
ATOM      9  O   UNL     1      -4.369  -4.326  -3.381  0.00  0.00    -0.126 OA
ATOM     10  O   UNL     1      -6.157  -4.704  -2.358  0.00  0.00    -0.126 OA
ENDBRANCH   4   8
BRANCH   7  11
ATOM     11  O   UNL     1      -2.797  -2.148   2.315  0.00  0.00    -0.506 OA
ATOM     12  H   UNL     1      -2.939  -1.198   2.422  0.00  0.00    +0.292 HD
ENDBRANCH   7  11
ENDBRANCH   1   2
BRANCH   1  13
ATOM     13  N   UNL     1      -1.198  -0.720   0.010  0.00  0.00    -0.340 N 
ATOM     14  H   UNL     1      -2.045  -0.248   0.020  0.00  0.00    +0.146 HD
BRANCH  13  20
ATOM     15  C   UNL     1      -0.017   1.385   0.010  0.00  0.00    +0.024 A 
ATOM     16  C   UNL     1       1.171   2.091   0.002  0.00  0.00    +0.023 A 
ATOM     17  C   UNL     1       2.378   1.416  -0.013  0.00  0.00    +0.059 A 
ATOM     18  C   UNL     1       2.401   0.031  -0.021  0.00  0.00    +0.061 A 
ATOM     19  C   UNL     1       1.216  -0.680  -0.013  0.00  0.00    +0.044 A 
ATOM     20  C   UNL     1       0.002  -0.004   0.002  0.00  0.00    +0.029 A 
ATOM     21 CL   UNL     1       3.918  -0.812  -0.041  0.00  0.00    -0.082 Cl
ATOM     22 CL   UNL     1       3.868   2.307  -0.024  0.00  0.00    -0.082 Cl
ENDBRANCH  13  20
ENDBRANCH   1  13
TORSDOF 5
