REMARK  Name = ZINC60106517
REMARK  7 active torsions:
REMARK  status: ('A' for Active; 'I' for Inactive)
REMARK    1  A    between atoms: C_1  and  C_2
REMARK    2  A    between atoms: C_2  and  N_3
REMARK    3  A    between atoms: C_12  and  C_14
REMARK    4  A    between atoms: N_16  and  N_17
REMARK    5  A    between atoms: C_18  and  C_20
REMARK    6  A    between atoms: N_23  and  C_25
REMARK    7  A    between atoms: C_30  and  C_31
REMARK                            x       y       z     vdW  Elec       q    Type
REMARK                         _______ _______ _______ _____ _____    ______ ____
ROOT
ATOM      1  N   UNL     1       6.060  -1.529   1.235  0.00  0.00    -0.229 N 
ATOM      2  C   UNL     1       6.450  -1.401  -0.048  0.00  0.00    +0.281 C 
ATOM      3  O   UNL     1       5.628  -1.175  -0.914  0.00  0.00    -0.267 OA
ATOM      4  H   UNL     1       6.717  -1.709   1.926  0.00  0.00    +0.173 HD
ENDROOT
BRANCH   2   5
ATOM      5  C   UNL     1       7.878  -1.534  -0.403  0.00  0.00    +0.152 A 
ATOM      6  C   UNL     1       8.437  -1.421  -1.697  0.00  0.00    +0.006 A 
ATOM      7  C   UNL     1       9.764  -1.615  -1.542  0.00  0.00    +0.049 A 
ATOM      8  N   UNL     1       9.983  -1.834  -0.217  0.00  0.00    -0.235 N 
ATOM      9  N   UNL     1       8.873  -1.777   0.428  0.00  0.00    -0.161 NA
ATOM     10  C   UNL     1      10.466  -1.512  -2.878  0.00  0.00    +0.056 C 
ATOM     11  C   UNL     1       9.345  -1.656  -3.931  0.00  0.00    +0.011 C 
ATOM     12  C   UNL     1       8.105  -1.169  -3.148  0.00  0.00    +0.040 C 
BRANCH   8  13
ATOM     13  C   UNL     1      11.235  -2.079   0.360  0.00  0.00    +0.069 A 
ATOM     14  C   UNL     1      12.094  -3.011  -0.209  0.00  0.00    +0.028 A 
ATOM     15  C   UNL     1      13.328  -3.250   0.362  0.00  0.00    +0.002 A 
ATOM     16  C   UNL     1      13.709  -2.564   1.501  0.00  0.00    +0.000 A 
ATOM     17  C   UNL     1      12.857  -1.635   2.070  0.00  0.00    +0.005 A 
ATOM     18  C   UNL     1      11.624  -1.387   1.500  0.00  0.00    -0.025 A 
ATOM     19  C   UNL     1      10.698  -0.371   2.117  0.00  0.00    +0.046 C 
ENDBRANCH   8  13
ENDBRANCH   2   5
BRANCH   1  22
ATOM     20  C   UNL     1       4.316  -1.530   2.855  0.00  0.00    +0.281 C 
ATOM     21  O   UNL     1       5.139  -1.756   3.721  0.00  0.00    -0.267 OA
ATOM     22  N   UNL     1       4.706  -1.402   1.572  0.00  0.00    -0.229 N 
ATOM     23  H   UNL     1       4.050  -1.222   0.881  0.00  0.00    +0.173 HD
BRANCH  20  33
ATOM     24  N   UNL     1       0.742  -1.022   2.506  0.00  0.00    -0.229 N 
ATOM     25  C   UNL     1       0.191  -1.122   3.733  0.00  0.00    +0.275 A 
ATOM     26  O   UNL     1      -1.010  -0.990   3.889  0.00  0.00    -0.266 OA
ATOM     27  C   UNL     1       1.072  -1.394   4.877  0.00  0.00    +0.050 A 
ATOM     28  C   UNL     1       0.602  -1.515   6.181  0.00  0.00    +0.014 A 
ATOM     29  C   UNL     1       1.495  -1.771   7.200  0.00  0.00    +0.001 A 
ATOM     30  C   UNL     1       2.852  -1.908   6.937  0.00  0.00    +0.001 A 
ATOM     31  C   UNL     1       3.337  -1.792   5.651  0.00  0.00    +0.011 A 
ATOM     32  C   UNL     1       2.453  -1.535   4.609  0.00  0.00    +0.020 A 
ATOM     33  C   UNL     1       2.889  -1.397   3.210  0.00  0.00    +0.155 A 
ATOM     34  N   UNL     1       1.994  -1.158   2.282  0.00  0.00    -0.163 NA
BRANCH  24  36
ATOM     35  C   UNL     1      -0.260   0.761   1.166  0.00  0.00    +0.029 C 
ATOM     36  C   UNL     1      -0.141  -0.751   1.369  0.00  0.00    +0.144 C 
ENDBRANCH  24  36
ENDBRANCH  20  33
ENDBRANCH   1  22
TORSDOF 5
