REMARK  Name = ZINC13495795
REMARK  13 active torsions:
REMARK  status: ('A' for Active; 'I' for Inactive)
REMARK    1  A    between atoms: C_1  and  C_2
REMARK    2  A    between atoms: C_2  and  C_3
REMARK    3  A    between atoms: C_3  and  C_5
REMARK    4  A    between atoms: C_3  and  N_15
REMARK    5  A    between atoms: N_9  and  C_10
REMARK    6  A    between atoms: C_10  and  C_11
REMARK    7  A    between atoms: C_10  and  C_12
REMARK    8  A    between atoms: C_10  and  C_13
REMARK    9  A    between atoms: C_13  and  C_14
REMARK   10  A    between atoms: N_15  and  C_16
REMARK   11  A    between atoms: N_15  and  C_22
REMARK   12  A    between atoms: C_16  and  C_17
REMARK   13  A    between atoms: C_22  and  C_23
REMARK                            x       y       z     vdW  Elec       q    Type
REMARK                         _______ _______ _______ _____ _____    ______ ____
ROOT
ATOM      1  N   UNL     1      -0.564   0.179  -1.947  0.00  0.00    -0.284 NA
ENDROOT
BRANCH   1   2
ATOM      2  C   UNL     1       0.339  -0.582  -1.074  0.00  0.00    +0.127 C 
BRANCH   2   3
ATOM      3  C   UNL     1       0.595  -1.939  -1.678  0.00  0.00    +0.169 A 
ATOM      4  N   UNL     1      -0.281  -2.706  -2.279  0.00  0.00    -0.112 NA
ATOM      5  N   UNL     1       0.323  -3.780  -2.655  0.00  0.00    -0.023 NA
ATOM      6  N   UNL     1       1.562  -3.718  -2.310  0.00  0.00    -0.043 NA
ATOM      7  N   UNL     1       1.770  -2.595  -1.710  0.00  0.00    -0.222 N 
BRANCH   7   8
ATOM      8  C   UNL     1       3.045  -2.125  -1.163  0.00  0.00    +0.061 C 
ATOM      9  C   UNL     1       3.498  -0.878  -1.925  0.00  0.00    +0.036 C 
ATOM     10  C   UNL     1       2.869  -1.781   0.318  0.00  0.00    +0.036 C 
BRANCH   8  11
ATOM     11  C   UNL     1       4.099  -3.224  -1.309  0.00  0.00    +0.026 C 
ATOM     12  C   UNL     1       5.431  -2.732  -0.737  0.00  0.00    +0.006 C 
ENDBRANCH   8  11
ENDBRANCH   7   8
ENDBRANCH   2   3
BRANCH   2  14
ATOM     13  C   UNL     1      -0.407   0.614   0.989  0.00  0.00    +0.006 C 
ATOM     14  C   UNL     1      -0.305  -0.750   0.304  0.00  0.00    +0.023 C 
ENDBRANCH   2  14
ENDBRANCH   1   2
BRANCH   1  15
ATOM     15  C   UNL     1      -1.962  -0.218  -1.733  0.00  0.00    +0.127 C 
BRANCH  15  16
ATOM     16  C   UNL     1      -2.804   0.268  -2.885  0.00  0.00    +0.004 A 
ATOM     17  C   UNL     1      -3.160  -0.385  -4.018  0.00  0.00    +0.012 A 
ATOM     18  C   UNL     1      -3.949   0.266  -4.947  0.00  0.00    +0.008 A 
ATOM     19  C   UNL     1      -4.344   1.538  -4.699  0.00  0.00    +0.045 A 
ATOM     20  S   UNL     1      -3.599   1.851  -3.106  0.00  0.00    -0.100 S 
ENDBRANCH  15  16
ENDBRANCH   1  15
BRANCH   1  21
ATOM     21  C   UNL     1      -0.392   1.625  -1.750  0.00  0.00    +0.126 C 
BRANCH  21  22
ATOM     22  C   UNL     1       0.807   2.099  -2.530  0.00  0.00    +0.031 A 
ATOM     23  C   UNL     1       0.646   2.588  -3.786  0.00  0.00    +0.020 A 
ATOM     24  C   UNL     1       1.829   3.040  -4.518  0.00  0.00    +0.003 A 
ATOM     25  C   UNL     1       1.722   3.553  -5.817  0.00  0.00    +0.059 A 
ATOM     26  C   UNL     1       2.854   3.970  -6.481  0.00  0.00    +0.167 A 
ATOM     27  C   UNL     1       4.108   3.884  -5.863  0.00  0.00    +0.168 A 
ATOM     28  C   UNL     1       4.222   3.379  -4.580  0.00  0.00    +0.075 A 
ATOM     29  C   UNL     1       3.090   2.954  -3.897  0.00  0.00    +0.053 A 
ATOM     30  N   UNL     1       3.185   2.446  -2.617  0.00  0.00    -0.322 N 
ATOM     31  H   UNL     1       4.054   2.388  -2.189  0.00  0.00    +0.169 HD
ATOM     32  C   UNL     1       2.091   2.038  -1.952  0.00  0.00    +0.254 A 
ATOM     33  O   UNL     1       2.212   1.599  -0.821  0.00  0.00    -0.268 OA
ATOM     34  O   UNL     1       5.050   4.357  -6.728  0.00  0.00    -0.453 OA
ATOM     35  C   UNL     1       4.424   4.349  -8.024  0.00  0.00    +0.466 C 
ATOM     36  O   UNL     1       3.022   4.497  -7.730  0.00  0.00    -0.453 OA
ENDBRANCH  21  22
ENDBRANCH   1  21
TORSDOF 9
