REMARK  Name = ZINC36303673
REMARK  16 active torsions:
REMARK  status: ('A' for Active; 'I' for Inactive)
REMARK    1  A    between atoms: C_1  and  C_2
REMARK    2  A    between atoms: C_3  and  C_21
REMARK    3  A    between atoms: C_4  and  O_13
REMARK    4  A    between atoms: N_5  and  C_7
REMARK    5  A    between atoms: O_13  and  C_14
REMARK    6  A    between atoms: C_21  and  N_22
REMARK    7  A    between atoms: N_22  and  C_23
REMARK    8  A    between atoms: N_22  and  C_29
REMARK    9  A    between atoms: C_23  and  C_24
REMARK   10  A    between atoms: C_29  and  C_30
REMARK   11  A    between atoms: C_30  and  C_32
REMARK   12  A    between atoms: C_30  and  O_37
REMARK   13  A    between atoms: C_32  and  O_33
REMARK   14  A    between atoms: O_33  and  C_34
REMARK   15  A    between atoms: C_34  and  C_35
REMARK   16  A    between atoms: C_34  and  C_36
REMARK                            x       y       z     vdW  Elec       q    Type
REMARK                         _______ _______ _______ _____ _____    ______ ____
ROOT
ATOM      1  C   UNL     1       0.836   1.339   0.006  0.00  0.00    +0.068 C 
ATOM      2  C   UNL     1       0.502  -0.130   0.020  0.00  0.00    +0.065 A 
ATOM      3  C   UNL     1       0.060  -0.878  -1.076  0.00  0.00    +0.021 A 
ATOM      4  C   UNL     1      -0.129  -2.158  -0.658  0.00  0.00    +0.225 A 
ATOM      5  N   UNL     1       0.186  -2.208   0.664  0.00  0.00    -0.200 N 
ATOM      6  N   UNL     1       0.583  -0.923   1.058  0.00  0.00    -0.168 NA
ENDROOT
BRANCH   5   7
ATOM      7  C   UNL     1       0.130  -3.342   1.485  0.00  0.00    +0.069 A 
ATOM      8  C   UNL     1      -0.955  -4.205   1.405  0.00  0.00    +0.028 A 
ATOM      9  C   UNL     1      -1.009  -5.322   2.215  0.00  0.00    +0.002 A 
ATOM     10  C   UNL     1       0.017  -5.582   3.105  0.00  0.00    +0.000 A 
ATOM     11  C   UNL     1       1.099  -4.725   3.188  0.00  0.00    +0.002 A 
ATOM     12  C   UNL     1       1.161  -3.609   2.376  0.00  0.00    +0.028 A 
ENDBRANCH   5   7
BRANCH   4  13
ATOM     13  O   UNL     1      -0.557  -3.197  -1.421  0.00  0.00    -0.438 OA
BRANCH  13  14
ATOM     14  C   UNL     1      -1.896  -3.382  -1.553  0.00  0.00    +0.130 A 
ATOM     15  C   UNL     1      -2.782  -2.463  -1.009  0.00  0.00    +0.048 A 
ATOM     16  C   UNL     1      -4.144  -2.654  -1.145  0.00  0.00    +0.023 A 
ATOM     17  C   UNL     1      -4.624  -3.760  -1.823  0.00  0.00    +0.041 A 
ATOM     18  C   UNL     1      -3.742  -4.678  -2.365  0.00  0.00    +0.023 A 
ATOM     19  C   UNL     1      -2.380  -4.489  -2.237  0.00  0.00    +0.048 A 
ATOM     20 CL   UNL     1      -6.335  -3.997  -1.992  0.00  0.00    -0.084 Cl
ENDBRANCH  13  14
ENDBRANCH   4  13
BRANCH   3  21
ATOM     21  C   UNL     1      -0.167  -0.358  -2.472  0.00  0.00    -0.035 C 
BRANCH  21  22
ATOM     22  N   UNL     1       1.108  -0.341  -3.201  0.00  0.00    +0.389 N 
ATOM     23  H   UNL     1       1.791   0.181  -2.672  0.00  0.00    -0.081 HD
BRANCH  22  24
ATOM     24  C   UNL     1       0.914   0.295  -4.511  0.00  0.00    -0.003 C 
BRANCH  24  25
ATOM     25  C   UNL     1       0.558   1.746  -4.318  0.00  0.00    +0.089 A 
ATOM     26  C   UNL     1       1.425   2.774  -4.304  0.00  0.00    +0.042 A 
ATOM     27  C   UNL     1       0.666   3.948  -4.096  0.00  0.00    +0.041 A 
ATOM     28  C   UNL     1      -0.620   3.568  -3.995  0.00  0.00    +0.195 A 
ATOM     29  O   UNL     1      -0.680   2.233  -4.136  0.00  0.00    -0.470 OA
ENDBRANCH  24  25
ENDBRANCH  22  24
BRANCH  22  30
ATOM     30  C   UNL     1       1.583  -1.718  -3.390  0.00  0.00    -0.044 C 
BRANCH  30  31
ATOM     31  C   UNL     1       2.969  -1.695  -4.038  0.00  0.00    +0.124 C 
BRANCH  31  32
ATOM     32  O   UNL     1       3.904  -1.093  -3.142  0.00  0.00    -0.391 OA
ATOM     33  H   UNL     1       3.992  -1.554  -2.296  0.00  0.00    +0.210 HD
ENDBRANCH  31  32
BRANCH  31  34
ATOM     34  C   UNL     1       3.410  -3.127  -4.349  0.00  0.00    +0.189 C 
BRANCH  34  35
ATOM     35  O   UNL     1       4.650  -3.100  -5.058  0.00  0.00    -0.375 OA
BRANCH  35  36
ATOM     36  C   UNL     1       5.153  -4.393  -5.399  0.00  0.00    +0.112 C 
ATOM     37  C   UNL     1       4.616  -4.804  -6.771  0.00  0.00    +0.037 C 
ATOM     38  C   UNL     1       6.682  -4.351  -5.441  0.00  0.00    +0.037 C 
ENDBRANCH  35  36
ENDBRANCH  34  35
ENDBRANCH  31  34
ENDBRANCH  30  31
ENDBRANCH  22  30
ENDBRANCH  21  22
ENDBRANCH   3  21
TORSDOF 13
