REMARK  Name = ZINC43763967
REMARK  6 active torsions:
REMARK  status: ('A' for Active; 'I' for Inactive)
REMARK    1  A    between atoms: C_1  and  C_2
REMARK    2  A    between atoms: N_5  and  C_11
REMARK    3  A    between atoms: C_14  and  O_25
REMARK    4  A    between atoms: C_16  and  C_19
REMARK    5  A    between atoms: C_19  and  O_20
REMARK    6  A    between atoms: O_20  and  P_21
REMARK                            x       y       z     vdW  Elec       q    Type
REMARK                         _______ _______ _______ _____ _____    ______ ____
ROOT
ATOM      1  C   UNL     1      -3.435   0.002   1.469  0.00  0.00    +0.212 C 
ATOM      2  C   UNL     1      -4.194  -1.125   2.215  0.00  0.00    +0.086 C 
ATOM      3  C   UNL     1      -5.402  -0.335   2.789  0.00  0.00    +0.150 C 
ATOM      4  C   UNL     1      -4.779   1.045   3.089  0.00  0.00    +0.175 C 
ATOM      5  O   UNL     1      -3.598   1.172   2.286  0.00  0.00    -0.350 OA
ENDROOT
BRANCH   1   9
ATOM      6  C   UNL     1      -0.019   1.526   0.010  0.00  0.00    +0.019 C 
ATOM      7  C   UNL     1       0.002  -0.004   0.002  0.00  0.00    +0.090 C 
ATOM      8  C   UNL     1      -1.433  -0.535   0.016  0.00  0.00    +0.124 C 
ATOM      9  N   UNL     1      -2.015  -0.338   1.345  0.00  0.00    -0.259 N 
ATOM     10  C   UNL     1      -1.265  -0.464   2.452  0.00  0.00    +0.310 C 
ATOM     11  O   UNL     1      -1.800  -0.397   3.541  0.00  0.00    -0.252 OA
ATOM     12  N   UNL     1       0.062  -0.662   2.384  0.00  0.00    -0.240 N 
ATOM     13  C   UNL     1       0.729  -0.505   1.225  0.00  0.00    +0.225 C 
ATOM     14  O   UNL     1       1.911  -0.766   1.163  0.00  0.00    -0.275 OA
ATOM     15  H   UNL     1       0.547  -0.922   3.183  0.00  0.00    +0.159 HD
ENDBRANCH   1   9
BRANCH   3  16
ATOM     16  O   UNL     1      -6.446  -0.226   1.819  0.00  0.00    -0.389 OA
ATOM     17  H   UNL     1      -6.809  -1.076   1.535  0.00  0.00    +0.210 HD
ENDBRANCH   3  16
BRANCH   4  18
ATOM     18  C   UNL     1      -5.772   2.152   2.731  0.00  0.00    +0.206 C 
BRANCH  18  19
ATOM     19  O   UNL     1      -5.234   3.418   3.119  0.00  0.00    -0.281 OA
BRANCH  19  20
ATOM     20  P   UNL     1      -6.014   4.808   2.893  0.00  0.00    +0.532 P 
ATOM     21  O   UNL     1      -6.394   4.953   1.380  0.00  0.00    -0.222 OA
ATOM     22  O   UNL     1      -7.317   4.824   3.762  0.00  0.00    -0.115 OA
ATOM     23  O   UNL     1      -5.089   6.000   3.315  0.00  0.00    -0.115 OA
ENDBRANCH  19  20
ENDBRANCH  18  19
ENDBRANCH   4  18
TORSDOF 5
