REMARK  Name = ZINC67592957
REMARK  6 active torsions:
REMARK  status: ('A' for Active; 'I' for Inactive)
REMARK    1  A    between atoms: C_1  and  C_2
REMARK    2  A    between atoms: C_2  and  C_3
REMARK    3  A    between atoms: C_2  and  C_4
REMARK    4  A    between atoms: C_6  and  C_10
REMARK    5  A    between atoms: C_15  and  N_18
REMARK    6  A    between atoms: N_18  and  C_19
REMARK                            x       y       z     vdW  Elec       q    Type
REMARK                         _______ _______ _______ _____ _____    ______ ____
ROOT
ATOM      1  C   UNL     1       1.506  -2.702   4.020  0.00  0.00    +0.267 C 
ATOM      2  O   UNL     1       0.653  -3.564   4.113  0.00  0.00    -0.268 OA
ATOM      3  N   UNL     1       2.529  -2.669   4.897  0.00  0.00    -0.296 N 
ATOM      4  C   UNL     1       3.477  -1.547   4.899  0.00  0.00    +0.110 C 
ATOM      5  C   UNL     1       3.551  -0.965   6.314  0.00  0.00    +0.041 C 
ATOM      6  C   UNL     1       3.896  -2.081   7.302  0.00  0.00    +0.073 C 
ATOM      7  C   UNL     1       2.798  -3.147   7.275  0.00  0.00    +0.041 C 
ATOM      8  C   UNL     1       2.712  -3.750   5.875  0.00  0.00    +0.110 C 
ENDROOT
BRANCH   1  11
ATOM      9  C   UNL     1       0.711  -0.478   1.249  0.00  0.00    +0.039 A 
ATOM     10  C   UNL     1       0.346  -1.511   2.044  0.00  0.00    +0.057 A 
ATOM     11  C   UNL     1       1.421  -1.692   2.946  0.00  0.00    +0.147 A 
ATOM     12  N   UNL     1       2.331  -0.787   2.646  0.00  0.00    -0.169 NA
ATOM     13  N   UNL     1       1.934  -0.074   1.654  0.00  0.00    -0.281 N 
ATOM     14  H   UNL     1       2.439   0.652   1.256  0.00  0.00    +0.189 HD
BRANCH   9  16
ATOM     15  C   UNL     1       0.145   1.618   0.050  0.00  0.00    +0.014 C 
ATOM     16  C   UNL     1      -0.095   0.109   0.118  0.00  0.00    +0.031 C 
ATOM     17  C   UNL     1       0.334  -0.536  -1.201  0.00  0.00    +0.014 C 
ENDBRANCH   9  16
ENDBRANCH   1  11
BRANCH   6  18
ATOM     18  N   UNL     1       4.000  -1.522   8.652  0.00  0.00    -0.341 N 
ATOM     19  H   UNL     1       3.526  -0.706   8.878  0.00  0.00    +0.146 HD
BRANCH  18  20
ATOM     20  C   UNL     1       4.784  -2.164   9.617  0.00  0.00    +0.027 A 
ATOM     21  C   UNL     1       5.468  -3.329   9.294  0.00  0.00    +0.026 A 
ATOM     22  C   UNL     1       6.242  -3.961  10.247  0.00  0.00    +0.040 A 
ATOM     23  C   UNL     1       6.335  -3.435  11.525  0.00  0.00    +0.124 A 
ATOM     24  C   UNL     1       5.654  -2.274  11.849  0.00  0.00    +0.040 A 
ATOM     25  C   UNL     1       4.883  -1.635  10.897  0.00  0.00    +0.026 A 
ATOM     26  F   UNL     1       7.092  -4.055  12.456  0.00  0.00    -0.205 F 
ENDBRANCH  18  20
ENDBRANCH   6  18
TORSDOF 4
