REMARK  Name = ZINC45896326
REMARK  6 active torsions:
REMARK  status: ('A' for Active; 'I' for Inactive)
REMARK    1  A    between atoms: C_4  and  C_7
REMARK    2  A    between atoms: C_7  and  C_8
REMARK    3  A    between atoms: C_8  and  N_9
REMARK    4  A    between atoms: N_12  and  C_13
REMARK    5  A    between atoms: C_22  and  O_23
REMARK    6  A    between atoms: N_24  and  C_25
REMARK                            x       y       z     vdW  Elec       q    Type
REMARK                         _______ _______ _______ _____ _____    ______ ____
ROOT
ATOM      1  C   UNL     1       7.996  -2.845   3.993  0.00  0.00    +0.140 A 
ATOM      2  C   UNL     1       9.216  -3.579   3.930  0.00  0.00    +0.075 A 
ATOM      3  C   UNL     1       9.911  -3.848   5.210  0.00  0.00    +0.042 A 
ATOM      4  C   UNL     1      11.108  -4.556   5.248  0.00  0.00    +0.013 A 
ATOM      5  C   UNL     1      11.724  -4.785   6.460  0.00  0.00    +0.001 A 
ATOM      6  C   UNL     1      11.156  -4.313   7.633  0.00  0.00    +0.004 A 
ATOM      7  C   UNL     1       9.969  -3.610   7.606  0.00  0.00    +0.047 A 
ATOM      8  C   UNL     1       9.334  -3.369   6.394  0.00  0.00    +0.141 A 
ATOM      9  O   UNL     1       8.172  -2.682   6.347  0.00  0.00    -0.424 OA
ATOM     10  C   UNL     1       7.533  -2.425   5.195  0.00  0.00    +0.309 A 
ATOM     11  N   UNL     1       9.704  -4.001   2.783  0.00  0.00    -0.380 N 
ATOM     12  H   UNL     1       9.545  -3.493   1.972  0.00  0.00    +0.160 HD
ENDROOT
BRANCH   1  16
ATOM     13  N   UNL     1       6.058  -3.278   0.962  0.00  0.00    -0.299 N 
ATOM     14  C   UNL     1       6.820  -3.554   2.038  0.00  0.00    +0.304 C 
ATOM     15  O   UNL     1       7.093  -4.708   2.310  0.00  0.00    -0.253 OA
ATOM     16  N   UNL     1       7.280  -2.552   2.813  0.00  0.00    -0.262 N 
ATOM     17  H   UNL     1       5.840  -2.358   0.745  0.00  0.00    +0.150 HD
ATOM     18  H   UNL     1       7.120  -1.630   2.560  0.00  0.00    +0.157 HD
BRANCH  13  19
ATOM     19  C   UNL     1       5.557  -4.367   0.120  0.00  0.00    +0.110 C 
BRANCH  19  20
ATOM     20  C   UNL     1       4.725  -3.785  -1.025  0.00  0.00    +0.054 C 
BRANCH  20  24
ATOM     21  C   UNL     1       3.264  -6.960  -3.482  0.00  0.00    +0.000 A 
ATOM     22  C   UNL     1       2.517  -6.519  -2.406  0.00  0.00    +0.000 A 
ATOM     23  C   UNL     1       2.990  -5.492  -1.610  0.00  0.00    +0.004 A 
ATOM     24  C   UNL     1       4.210  -4.906  -1.891  0.00  0.00    -0.046 A 
ATOM     25  C   UNL     1       4.957  -5.347  -2.967  0.00  0.00    +0.004 A 
ATOM     26  C   UNL     1       4.484  -6.373  -3.763  0.00  0.00    +0.000 A 
ENDBRANCH  20  24
ENDBRANCH  19  20
ENDBRANCH  13  19
ENDBRANCH   1  16
BRANCH  11  27
ATOM     27  C   UNL     1      10.488  -5.238   2.731  0.00  0.00    +0.079 C 
ATOM     28  C   UNL     1      11.941  -4.906   2.387  0.00  0.00    +0.024 C 
ATOM     29  C   UNL     1      12.760  -6.198   2.333  0.00  0.00    +0.002 C 
ATOM     30  C   UNL     1      12.181  -7.124   1.262  0.00  0.00    +0.000 C 
ATOM     31  C   UNL     1      10.727  -7.455   1.605  0.00  0.00    +0.002 C 
ATOM     32  C   UNL     1       9.909  -6.164   1.659  0.00  0.00    +0.024 C 
ENDBRANCH  11  27
BRANCH  10  33
ATOM     33  O   UNL     1       6.376  -1.724   5.237  0.00  0.00    -0.479 OA
ATOM     34  H   UNL     1       6.109  -1.459   6.127  0.00  0.00    +0.295 HD
ENDBRANCH  10  33
TORSDOF 6
