REMARK  Name = ZINC64670930
REMARK  9 active torsions:
REMARK  status: ('A' for Active; 'I' for Inactive)
REMARK    1  A    between atoms: C_1  and  C_2
REMARK    2  A    between atoms: C_7  and  C_12
REMARK    3  A    between atoms: C_14  and  O_22
REMARK    4  A    between atoms: C_15  and  O_20
REMARK    5  A    between atoms: C_16  and  O_18
REMARK    6  A    between atoms: O_18  and  C_19
REMARK    7  A    between atoms: O_20  and  C_21
REMARK    8  A    between atoms: O_22  and  C_23
REMARK    9  A    between atoms: N_24  and  C_26
REMARK                            x       y       z     vdW  Elec       q    Type
REMARK                         _______ _______ _______ _____ _____    ______ ____
ROOT
ATOM      1  C   UNL     1      -0.161   1.590   0.027  0.00  0.00    +0.062 C 
ATOM      2  C   UNL     1      -0.093   0.084   0.020  0.00  0.00    +0.024 C 
ATOM      3  C   UNL     1      -1.163  -0.728   0.014  0.00  0.00    +0.031 C 
ATOM      4  C   UNL     1      -0.601  -2.122   0.294  0.00  0.00    +0.115 C 
ATOM      5  C   UNL     1      -1.429  -3.080  -0.561  0.00  0.00    +0.034 C 
ATOM      6  C   UNL     1      -2.880  -2.999  -0.087  0.00  0.00    +0.028 C 
ATOM      7  C   UNL     1      -3.498  -1.628  -0.270  0.00  0.00    +0.087 C 
ATOM      8  C   UNL     1      -2.522  -0.495  -0.169  0.00  0.00    +0.163 C 
ATOM      9  O   UNL     1      -2.929   0.648  -0.229  0.00  0.00    -0.292 OA
ATOM     10  N   UNL     1       0.789  -1.977  -0.170  0.00  0.00    -0.181 NA
ATOM     11  N   UNL     1       1.062  -0.640   0.015  0.00  0.00    -0.278 N 
ATOM     12  H   UNL     1       1.950  -0.267   0.127  0.00  0.00    +0.166 HD
ENDROOT
BRANCH  10  13
ATOM     13  C   UNL     1       1.698  -2.817   0.622  0.00  0.00    +0.269 C 
ATOM     14  N   UNL     1       1.343  -4.233   0.464  0.00  0.00    -0.350 N 
ATOM     15  C   UNL     1       1.031  -4.691   1.641  0.00  0.00    +0.061 A 
ATOM     16  C   UNL     1       0.599  -6.013   2.117  0.00  0.00    +0.027 A 
ATOM     17  C   UNL     1       0.340  -6.196   3.427  0.00  0.00    +0.002 A 
ATOM     18  C   UNL     1       0.464  -5.166   4.376  0.00  0.00    +0.002 A 
ATOM     19  C   UNL     1       0.852  -3.918   4.047  0.00  0.00    +0.027 A 
ATOM     20  C   UNL     1       1.163  -3.601   2.646  0.00  0.00    +0.061 A 
ATOM     21  N   UNL     1       1.552  -2.510   2.050  0.00  0.00    -0.350 N 
ATOM     22  H   UNL     1       1.341  -4.734  -0.366  0.00  0.00    +0.163 HD
ATOM     23  H   UNL     1       1.715  -1.653   2.473  0.00  0.00    +0.163 HD
ENDBRANCH  10  13
BRANCH   6  24
ATOM     24  C   UNL     1      -2.931  -3.358   1.376  0.00  0.00    -0.037 A 
ATOM     25  C   UNL     1      -2.661  -2.396   2.331  0.00  0.00    +0.053 A 
ATOM     26  C   UNL     1      -2.707  -2.722   3.678  0.00  0.00    +0.165 A 
ATOM     27  C   UNL     1      -3.025  -4.017   4.067  0.00  0.00    +0.204 A 
ATOM     28  C   UNL     1      -3.296  -4.982   3.104  0.00  0.00    +0.165 A 
ATOM     29  C   UNL     1      -3.253  -4.646   1.759  0.00  0.00    +0.053 A 
BRANCH  28  30
ATOM     30  O   UNL     1      -3.607  -6.251   3.480  0.00  0.00    -0.491 OA
ATOM     31  C   UNL     1      -3.873  -7.190   2.436  0.00  0.00    +0.277 C 
ENDBRANCH  28  30
BRANCH  27  32
ATOM     32  O   UNL     1      -3.070  -4.341   5.389  0.00  0.00    -0.488 OA
ATOM     33  C   UNL     1      -4.325  -4.183   6.053  0.00  0.00    +0.277 C 
ENDBRANCH  27  32
BRANCH  26  34
ATOM     34  O   UNL     1      -2.441  -1.774   4.617  0.00  0.00    -0.491 OA
ATOM     35  C   UNL     1      -2.121  -0.464   4.145  0.00  0.00    +0.277 C 
ENDBRANCH  26  34
ENDBRANCH   6  24
TORSDOF 5
