REMARK  Name = ZINC37658908
REMARK  8 active torsions:
REMARK  status: ('A' for Active; 'I' for Inactive)
REMARK    1  A    between atoms: C_1  and  C_2
REMARK    2  A    between atoms: N_5  and  S_11
REMARK    3  A    between atoms: C_7  and  C_10
REMARK    4  A    between atoms: S_11  and  C_14
REMARK    5  A    between atoms: C_17  and  C_20
REMARK    6  A    between atoms: N_29  and  C_32
REMARK    7  A    between atoms: C_32  and  C_33
REMARK    8  A    between atoms: C_32  and  C_34
REMARK                            x       y       z     vdW  Elec       q    Type
REMARK                         _______ _______ _______ _____ _____    ______ ____
ROOT
ATOM      1  C   UNL     1       2.728   2.379  -2.109  0.00  0.00    +0.106 A 
ATOM      2  C   UNL     1       1.635   3.048  -2.631  0.00  0.00    +0.029 A 
ATOM      3  C   UNL     1       1.483   4.402  -2.413  0.00  0.00    +0.015 A 
ATOM      4  C   UNL     1       2.434   5.096  -1.664  0.00  0.00    +0.037 A 
ATOM      5  C   UNL     1       3.534   4.415  -1.140  0.00  0.00    +0.015 A 
ATOM      6  C   UNL     1       3.672   3.061  -1.361  0.00  0.00    +0.029 A 
ENDROOT
BRANCH   4   7
ATOM      7  C   UNL     1       2.277   6.547  -1.427  0.00  0.00    +0.250 C 
ATOM      8  O   UNL     1       1.319   7.138  -1.885  0.00  0.00    -0.270 OA
ATOM      9  N   UNL     1       3.197   7.215  -0.703  0.00  0.00    -0.261 N 
ATOM     10  C   UNL     1       3.050   8.578  -0.481  0.00  0.00    +0.165 A 
ATOM     11  N   UNL     1       2.085   9.373  -0.888  0.00  0.00    -0.229 NA
ATOM     12  C   UNL     1       2.075  10.668  -0.598  0.00  0.00    +0.056 A 
ATOM     13  C   UNL     1       3.130  11.098   0.145  0.00  0.00    +0.028 A 
ATOM     14  S   UNL     1       4.061   9.613   0.384  0.00  0.00    -0.055 S 
ATOM     15  C   UNL     1       3.388  12.488   0.616  0.00  0.00    +0.129 C 
ATOM     16  N   UNL     1       2.504  13.399  -0.139  0.00  0.00    -0.295 NA
ATOM     17  C   UNL     1       1.121  12.903  -0.136  0.00  0.00    +0.091 C 
ATOM     18  C   UNL     1       0.999  11.660  -1.023  0.00  0.00    +0.071 C 
ATOM     19  H   UNL     1       3.963   6.744  -0.338  0.00  0.00    +0.157 HD
BRANCH  16  20
ATOM     20  C   UNL     1       2.575  14.764   0.398  0.00  0.00    +0.051 C 
ATOM     21  C   UNL     1       4.028  15.242   0.386  0.00  0.00    +0.024 C 
ATOM     22  C   UNL     1       1.725  15.697  -0.468  0.00  0.00    +0.024 C 
ENDBRANCH  16  20
ENDBRANCH   4   7
BRANCH   1  23
ATOM     23  S   UNL     1       2.915   0.650  -2.391  0.00  0.00    +0.061 S 
ATOM     24  O   UNL     1       4.300   0.363  -2.253  0.00  0.00    -0.153 OA
ATOM     25  O   UNL     1       2.189   0.351  -3.576  0.00  0.00    -0.153 OA
BRANCH  23  29
ATOM     26  C   UNL     1      -0.019   1.526   0.010  0.00  0.00    +0.039 C 
ATOM     27  C   UNL     1       0.002  -0.004   0.002  0.00  0.00    +0.131 C 
ATOM     28  C   UNL     1       0.722  -0.499  -1.258  0.00  0.00    +0.140 C 
ATOM     29  N   UNL     1       2.143  -0.135  -1.154  0.00  0.00    -0.172 NA
ATOM     30  C   UNL     1       2.860  -0.488   0.082  0.00  0.00    +0.140 C 
ATOM     31  C   UNL     1       2.036   0.007   1.277  0.00  0.00    +0.131 C 
ATOM     32  O   UNL     1       0.695  -0.479   1.159  0.00  0.00    -0.371 OA
ATOM     33  C   UNL     1       2.656  -0.513   2.575  0.00  0.00    +0.039 C 
ENDBRANCH  23  29
ENDBRANCH   1  23
TORSDOF 4
