REMARK  Name = ZINC09204041
REMARK  12 active torsions:
REMARK  status: ('A' for Active; 'I' for Inactive)
REMARK    1  A    between atoms: C_1  and  C_2
REMARK    2  A    between atoms: C_4  and  C_20
REMARK    3  A    between atoms: C_5  and  C_19
REMARK    4  A    between atoms: N_6  and  C_7
REMARK    5  A    between atoms: C_11  and  C_13
REMARK    6  A    between atoms: C_13  and  O_15
REMARK    7  A    between atoms: O_15  and  C_16
REMARK    8  A    between atoms: C_16  and  C_17
REMARK    9  A    between atoms: C_16  and  C_18
REMARK   10  A    between atoms: N_21  and  N_22
REMARK   11  A    between atoms: C_23  and  C_25
REMARK   12  A    between atoms: C_25  and  C_26
REMARK                            x       y       z     vdW  Elec       q    Type
REMARK                         _______ _______ _______ _____ _____    ______ ____
ROOT
ATOM      1  C   UNL     1      -0.951   3.131   2.325  0.00  0.00    +0.064 C 
ATOM      2  C   UNL     1      -1.688   2.860   1.039  0.00  0.00    +0.022 A 
ATOM      3  C   UNL     1      -2.895   3.355   0.709  0.00  0.00    +0.032 A 
ATOM      4  C   UNL     1      -3.214   2.827  -0.621  0.00  0.00    +0.016 A 
ATOM      5  C   UNL     1      -2.154   2.049  -0.989  0.00  0.00    +0.030 A 
ATOM      6  N   UNL     1      -1.240   2.070   0.019  0.00  0.00    -0.317 N 
ATOM      7  C   UNL     1      -2.019   1.296  -2.287  0.00  0.00    +0.064 C 
ENDROOT
BRANCH   6   8
ATOM      8  C   UNL     1      -0.017   1.385   0.010  0.00  0.00    +0.047 A 
ATOM      9  C   UNL     1       0.002  -0.004   0.002  0.00  0.00    +0.026 A 
ATOM     10  C   UNL     1       1.206  -0.684  -0.013  0.00  0.00    +0.003 A 
ATOM     11  C   UNL     1       2.397   0.013  -0.021  0.00  0.00    +0.015 A 
ATOM     12  C   UNL     1       2.389   1.409  -0.014  0.00  0.00    +0.061 A 
ATOM     13  C   UNL     1       1.173   2.095   0.002  0.00  0.00    +0.041 A 
BRANCH  12  14
ATOM     14  C   UNL     1       3.662   2.158  -0.022  0.00  0.00    +0.339 C 
ATOM     15  O   UNL     1       3.653   3.373  -0.015  0.00  0.00    -0.245 OA
BRANCH  14  16
ATOM     16  O   UNL     1       4.834   1.494  -0.036  0.00  0.00    -0.458 OA
BRANCH  16  17
ATOM     17  C   UNL     1       6.046   2.294  -0.044  0.00  0.00    +0.171 C 
ATOM     18  C   UNL     1       6.485   2.567   1.396  0.00  0.00    +0.052 C 
ATOM     19  C   UNL     1       7.153   1.537  -0.780  0.00  0.00    +0.052 C 
ENDBRANCH  16  17
ENDBRANCH  14  16
ENDBRANCH  12  14
ENDBRANCH   6   8
BRANCH   4  20
ATOM     20  C   UNL     1      -4.434   3.089  -1.407  0.00  0.00    +0.140 C 
ATOM     21  N   UNL     1      -4.579   2.549  -2.578  0.00  0.00    -0.188 NA
BRANCH  21  22
ATOM     22  N   UNL     1      -5.738   2.797  -3.325  0.00  0.00    -0.207 N 
ATOM     23  C   UNL     1      -5.889   2.237  -4.542  0.00  0.00    +0.237 C 
ATOM     24  O   UNL     1      -5.021   1.517  -4.990  0.00  0.00    -0.274 OA
ATOM     25  H   UNL     1      -6.432   3.373  -2.967  0.00  0.00    +0.177 HD
BRANCH  23  26
ATOM     26  C   UNL     1      -7.136   2.504  -5.345  0.00  0.00    +0.132 C 
BRANCH  26  27
ATOM     27  C   UNL     1      -7.057   1.766  -6.656  0.00  0.00    -0.039 A 
ATOM     28  C   UNL     1      -6.498   2.379  -7.762  0.00  0.00    +0.005 A 
ATOM     29  C   UNL     1      -6.420   1.700  -8.963  0.00  0.00    +0.015 A 
ATOM     30  C   UNL     1      -6.912   0.411  -9.062  0.00  0.00    +0.018 A 
ATOM     31  C   UNL     1      -7.476  -0.200  -7.957  0.00  0.00    +0.015 A 
ATOM     32  C   UNL     1      -7.548   0.477  -6.754  0.00  0.00    +0.005 A 
ATOM     33 BR   UNL     1      -6.812  -0.516 -10.707  0.00  0.00    -0.050 Br
ENDBRANCH  26  27
ENDBRANCH  23  26
ENDBRANCH  21  22
ENDBRANCH   4  20
TORSDOF 8
