REMARK  Name = ZINC00999429
REMARK  3 active torsions:
REMARK  status: ('A' for Active; 'I' for Inactive)
REMARK    1  A    between atoms: C_5  and  C_6
REMARK    2  A    between atoms: C_9  and  C_21
REMARK    3  A    between atoms: C_14  and  C_16
REMARK                            x       y       z     vdW  Elec       q    Type
REMARK                         _______ _______ _______ _____ _____    ______ ____
ROOT
ATOM      1  C   UNL     1      -1.208  -0.902   0.009  0.00  0.00    +0.140 C 
ATOM      2  C   UNL     1      -1.453  -1.425   1.429  0.00  0.00    +0.066 C 
ATOM      3  C   UNL     1      -2.723  -2.283   1.458  0.00  0.00    +0.215 C 
ATOM      4  N   UNL     1      -2.654  -3.269   0.375  0.00  0.00    -0.237 N 
ATOM      5  C   UNL     1      -1.830  -3.148  -0.708  0.00  0.00    +0.133 A 
ATOM      6  C   UNL     1      -2.017  -4.224  -1.499  0.00  0.00    +0.089 A 
ATOM      7  C   UNL     1      -2.993  -5.041  -0.885  0.00  0.00    +0.163 A 
ATOM      8  N   UNL     1      -3.369  -4.458   0.240  0.00  0.00    -0.163 NA
ATOM      9 BR   UNL     1      -1.134  -4.575  -3.134  0.00  0.00    -0.044 Br
ATOM     10  N   UNL     1      -0.978  -2.053  -0.886  0.00  0.00    -0.318 N 
ATOM     11  H   UNL     1      -0.275  -2.050  -1.555  0.00  0.00    +0.148 HD
ENDROOT
BRANCH   1  16
ATOM     12  C   UNL     1      -0.016   1.341   0.009  0.00  0.00    +0.048 A 
ATOM     13  C   UNL     1       1.331   1.769  -0.001  0.00  0.00    +0.057 A 
ATOM     14  C   UNL     1       2.093   0.659  -0.014  0.00  0.00    +0.170 A 
ATOM     15  O   UNL     1       1.282  -0.412  -0.012  0.00  0.00    -0.451 OA
ATOM     16  C   UNL     1       0.002  -0.004   0.002  0.00  0.00    +0.127 A 
ATOM     17 BR   UNL     1       3.983   0.615  -0.034  0.00  0.00    -0.008 Br
ENDBRANCH   1  16
BRANCH   7  18
ATOM     18  C   UNL     1      -3.504  -6.324  -1.409  0.00  0.00    +0.263 C 
ATOM     19  O   UNL     1      -3.081  -6.762  -2.462  0.00  0.00    -0.269 OA
ATOM     20  N   UNL     1      -4.440  -7.008  -0.722  0.00  0.00    -0.324 N 
ATOM     21  H   UNL     1      -4.777  -6.658   0.118  0.00  0.00    +0.145 HD
ATOM     22  H   UNL     1      -4.776  -7.850  -1.066  0.00  0.00    +0.145 HD
ENDBRANCH   7  18
BRANCH   3  23
ATOM     23  C   UNL     1      -2.824  -3.003   2.804  0.00  0.00    +0.412 C 
ATOM     24  F   UNL     1      -2.877  -2.058   3.835  0.00  0.00    -0.168 F 
ATOM     25  F   UNL     1      -3.983  -3.785   2.828  0.00  0.00    -0.168 F 
ATOM     26  F   UNL     1      -1.704  -3.823   2.980  0.00  0.00    -0.168 F 
ENDBRANCH   3  23
TORSDOF 3
