REMARK  Name = ZINC15140532
REMARK  12 active torsions:
REMARK  status: ('A' for Active; 'I' for Inactive)
REMARK    1  A    between atoms: C_1  and  C_2
REMARK    2  A    between atoms: C_2  and  C_3
REMARK    3  A    between atoms: C_2  and  C_4
REMARK    4  A    between atoms: C_7  and  S_10
REMARK    5  A    between atoms: S_10  and  N_13
REMARK    6  A    between atoms: C_16  and  C_19
REMARK    7  A    between atoms: N_21  and  C_22
REMARK    8  A    between atoms: C_22  and  C_23
REMARK    9  A    between atoms: C_26  and  C_29
REMARK   10  A    between atoms: C_29  and  N_67
REMARK   11  A    between atoms: C_30  and  N_67
REMARK   12  A    between atoms: C_31  and  N_67
REMARK                            x       y       z     vdW  Elec       q    Type
REMARK                         _______ _______ _______ _____ _____    ______ ____
ROOT
ATOM      1  N   UNL     1      -1.541   0.831  10.824  0.00  0.00    -0.177 NA
ATOM      2  C   UNL     1      -1.693   2.291  10.898  0.00  0.00    +0.110 C 
ATOM      3  C   UNL     1      -2.454   2.772   9.659  0.00  0.00    +0.030 C 
ATOM      4  C   UNL     1      -1.737   2.277   8.401  0.00  0.00    +0.077 C 
ATOM      5  C   UNL     1      -1.716   0.747   8.391  0.00  0.00    +0.030 C 
ATOM      6  C   UNL     1      -0.946   0.244   9.616  0.00  0.00    +0.110 C 
ENDROOT
BRANCH   4   7
ATOM      7  C   UNL     1      -2.465   2.777   7.179  0.00  0.00    +0.216 C 
ATOM      8  O   UNL     1      -3.459   3.461   7.303  0.00  0.00    -0.276 OA
ATOM      9  N   UNL     1      -2.011   2.464   5.949  0.00  0.00    -0.311 N 
ATOM     10  H   UNL     1      -1.216   1.917   5.851  0.00  0.00    +0.149 HD
BRANCH   9  11
ATOM     11  C   UNL     1      -2.718   2.950   4.762  0.00  0.00    +0.139 C 
BRANCH  11  12
ATOM     12  C   UNL     1      -2.012   2.463   3.523  0.00  0.00    -0.030 A 
ATOM     13  C   UNL     1      -2.366   1.254   2.955  0.00  0.00    +0.005 A 
ATOM     14  C   UNL     1      -1.719   0.808   1.818  0.00  0.00    +0.002 A 
ATOM     15  C   UNL     1      -0.718   1.572   1.248  0.00  0.00    -0.064 A 
ATOM     16  C   UNL     1      -0.360   2.779   1.819  0.00  0.00    +0.002 A 
ATOM     17  C   UNL     1      -1.010   3.227   2.953  0.00  0.00    +0.005 A 
BRANCH  15  18
ATOM     18  C   UNL     1      -0.013   1.086   0.008  0.00  0.00    -0.044 C 
BRANCH  18  21
ATOM     19  C   UNL     1      -0.640   3.036  -1.283  0.00  0.00    -0.096 C 
ATOM     20  C   UNL     1      -0.211   0.930  -2.400  0.00  0.00    -0.096 C 
ATOM     21  N   UNL     1      -0.751   1.565  -1.179  0.00  0.00    +0.379 N 
ATOM     22  H   UNL     1      -1.741   1.312  -1.081  0.00  0.00    -0.082 HD
ENDBRANCH  18  21
ENDBRANCH  15  18
ENDBRANCH  11  12
ENDBRANCH   9  11
ENDBRANCH   4   7
BRANCH   1  23
ATOM     23  S   UNL     1      -2.032  -0.133  12.077  0.00  0.00    +0.061 S 
ATOM     24  O   UNL     1      -1.285  -1.337  11.980  0.00  0.00    -0.153 OA
ATOM     25  O   UNL     1      -2.020   0.679  13.243  0.00  0.00    -0.153 OA
BRANCH  23  29
ATOM     26  C   UNL     1      -6.357  -1.228  11.309  0.00  0.00    -0.045 A 
ATOM     27  C   UNL     1      -5.343  -2.030  10.819  0.00  0.00    +0.006 A 
ATOM     28  C   UNL     1      -4.023  -1.696  11.054  0.00  0.00    +0.029 A 
ATOM     29  C   UNL     1      -3.716  -0.559  11.778  0.00  0.00    +0.105 A 
ATOM     30  C   UNL     1      -4.729   0.240  12.273  0.00  0.00    +0.029 A 
ATOM     31  C   UNL     1      -6.050  -0.092  12.035  0.00  0.00    +0.006 A 
BRANCH  26  33
ATOM     32  C   UNL     1      -8.516  -1.800  12.387  0.00  0.00    +0.012 C 
ATOM     33  C   UNL     1      -7.797  -1.592  11.053  0.00  0.00    +0.013 C 
ATOM     34  C   UNL     1      -8.478  -0.463  10.277  0.00  0.00    +0.012 C 
ENDBRANCH  26  33
ENDBRANCH  23  29
ENDBRANCH   1  23
TORSDOF 8
