REMARK  Name = ZINC64519057
REMARK  9 active torsions:
REMARK  status: ('A' for Active; 'I' for Inactive)
REMARK    1  A    between atoms: C_1  and  N_2
REMARK    2  A    between atoms: N_2  and  C_3
REMARK    3  A    between atoms: N_2  and  S_4
REMARK    4  A    between atoms: S_4  and  C_7
REMARK    5  A    between atoms: C_10  and  C_13
REMARK    6  A    between atoms: C_15  and  C_18
REMARK    7  A    between atoms: N_20  and  C_21
REMARK    8  A    between atoms: C_21  and  C_22
REMARK    9  A    between atoms: C_22  and  C_23
REMARK                            x       y       z     vdW  Elec       q    Type
REMARK                         _______ _______ _______ _____ _____    ______ ____
ROOT
ATOM      1  C   UNL     1       8.821  -3.507  -3.077  0.00  0.00    +0.302 C 
ATOM      2  O   UNL     1       8.665  -4.531  -2.443  0.00  0.00    -0.265 OA
ATOM      3  N   UNL     1      10.012  -3.245  -3.651  0.00  0.00    -0.307 N 
ATOM      4  H   UNL     1      10.136  -2.427  -4.157  0.00  0.00    +0.149 HD
ENDROOT
BRANCH   1   7
ATOM      5  C   UNL     1       5.742  -1.627  -3.036  0.00  0.00    +0.203 A 
ATOM      6  N   UNL     1       6.502  -2.684  -2.713  0.00  0.00    -0.183 NA
ATOM      7  C   UNL     1       7.701  -2.545  -3.220  0.00  0.00    +0.314 A 
ATOM      8  O   UNL     1       7.744  -1.381  -3.891  0.00  0.00    -0.328 OA
ATOM      9  N   UNL     1       6.454  -0.801  -3.764  0.00  0.00    -0.055 NA
BRANCH   5  13
ATOM     10  C   UNL     1       1.682  -1.059  -1.905  0.00  0.00    +0.105 A 
ATOM     11  C   UNL     1       2.322  -0.107  -2.678  0.00  0.00    +0.029 A 
ATOM     12  C   UNL     1       3.639  -0.286  -3.047  0.00  0.00    +0.013 A 
ATOM     13  C   UNL     1       4.325  -1.429  -2.641  0.00  0.00    +0.023 A 
ATOM     14  C   UNL     1       3.676  -2.385  -1.863  0.00  0.00    +0.013 A 
ATOM     15  C   UNL     1       2.360  -2.193  -1.494  0.00  0.00    +0.029 A 
BRANCH  10  16
ATOM     16  S   UNL     1      -0.000  -0.824  -1.437  0.00  0.00    +0.060 S 
ATOM     17  O   UNL     1      -0.531  -2.115  -1.167  0.00  0.00    -0.153 OA
ATOM     18  O   UNL     1      -0.572   0.049  -2.401  0.00  0.00    -0.153 OA
BRANCH  16  20
ATOM     19  C   UNL     1      -0.018   1.461   0.010  0.00  0.00    +0.131 C 
ATOM     20  N   UNL     1       0.002  -0.004   0.002  0.00  0.00    -0.183 NA
ATOM     21  C   UNL     1       0.024  -0.743   1.267  0.00  0.00    +0.131 C 
ENDBRANCH  16  20
ENDBRANCH  10  16
ENDBRANCH   5  13
ENDBRANCH   1   7
BRANCH   3  22
ATOM     22  C   UNL     1      11.118  -4.195  -3.510  0.00  0.00    +0.108 C 
BRANCH  22  23
ATOM     23  C   UNL     1      12.346  -3.661  -4.250  0.00  0.00    +0.065 C 
BRANCH  23  24
ATOM     24  C   UNL     1      13.501  -4.654  -4.103  0.00  0.00    +0.175 C 
ATOM     25  N   UNL     1      13.191  -5.897  -4.819  0.00  0.00    -0.363 N 
ATOM     26  C   UNL     1      14.101  -6.059  -5.735  0.00  0.00    +0.060 A 
ATOM     27  C   UNL     1      14.323  -7.099  -6.750  0.00  0.00    +0.030 A 
ATOM     28  C   UNL     1      15.376  -7.000  -7.585  0.00  0.00    +0.040 A 
ATOM     29  C   UNL     1      16.290  -5.929  -7.529  0.00  0.00    +0.125 A 
ATOM     30  C   UNL     1      16.177  -4.922  -6.635  0.00  0.00    +0.065 A 
ATOM     31  C   UNL     1      15.067  -4.927  -5.676  0.00  0.00    +0.063 A 
ATOM     32  N   UNL     1      14.715  -4.109  -4.723  0.00  0.00    -0.363 N 
ATOM     33  F   UNL     1      17.320  -5.908  -8.404  0.00  0.00    -0.205 F 
ATOM     34  H   UNL     1      12.445  -6.491  -4.642  0.00  0.00    +0.162 HD
ATOM     35  H   UNL     1      15.172  -3.291  -4.471  0.00  0.00    +0.162 HD
ENDBRANCH  23  24
ENDBRANCH  22  23
ENDBRANCH   3  22
TORSDOF 7
