REMARK  Name = ZINC36029661
REMARK  13 active torsions:
REMARK  status: ('A' for Active; 'I' for Inactive)
REMARK    1  A    between atoms: C_1  and  C_2
REMARK    2  A    between atoms: C_2  and  C_3
REMARK    3  A    between atoms: C_3  and  C_5
REMARK    4  A    between atoms: C_3  and  C_6
REMARK    5  A    between atoms: N_10  and  C_24
REMARK    6  A    between atoms: C_18  and  C_20
REMARK    7  A    between atoms: C_20  and  C_21
REMARK    8  A    between atoms: C_21  and  C_22
REMARK    9  A    between atoms: C_21  and  C_23
REMARK   10  A    between atoms: C_24  and  C_26
REMARK   11  A    between atoms: C_24  and  C_27
REMARK   12  A    between atoms: C_27  and  C_28
REMARK   13  A    between atoms: C_28  and  C_29
REMARK                            x       y       z     vdW  Elec       q    Type
REMARK                         _______ _______ _______ _____ _____    ______ ____
ROOT
ATOM      1  C   UNL     1       0.728  -2.273   1.203  0.00  0.00    +0.022 C 
ATOM      2  C   UNL     1       1.469  -2.764  -0.022  0.00  0.00    +0.201 C 
ATOM      3  O   UNL     1       1.124  -2.599  -1.173  0.00  0.00    -0.277 OA
ATOM      4  N   UNL     1       2.579  -3.417   0.382  0.00  0.00    -0.311 N 
ATOM      5  C   UNL     1       2.645  -3.409   1.846  0.00  0.00    +0.006 C 
ATOM      6  N   UNL     1       1.720  -2.349   2.303  0.00  0.00    +0.401 N 
ATOM      7  C   UNL     1       4.066  -3.091   2.310  0.00  0.00    +0.025 C 
ATOM      8  C   UNL     1       5.021  -4.176   1.801  0.00  0.00    +0.108 C 
ATOM      9  N   UNL     1       4.517  -5.488   2.227  0.00  0.00    -0.301 N 
ATOM     10  C   UNL     1       3.134  -5.857   1.893  0.00  0.00    +0.108 C 
ATOM     11  C   UNL     1       2.195  -4.759   2.402  0.00  0.00    +0.025 C 
ATOM     12  C   UNL     1       5.308  -6.338   2.912  0.00  0.00    +0.216 C 
ATOM     13  O   UNL     1       6.447  -6.022   3.181  0.00  0.00    -0.276 OA
ATOM     14  H   UNL     1       2.207  -1.471   2.405  0.00  0.00    -0.082 HD
ATOM     15  H   UNL     1       1.273  -2.613   3.168  0.00  0.00    -0.082 HD
ENDROOT
BRANCH   1  16
ATOM     16  C   UNL     1       0.265  -0.829   1.002  0.00  0.00    -0.020 C 
ATOM     17  C   UNL     1      -0.416  -0.330   2.278  0.00  0.00    +0.006 C 
BRANCH  16  19
ATOM     18  C   UNL     1      -1.095   0.689  -0.444  0.00  0.00    +0.004 C 
ATOM     19  C   UNL     1      -0.727  -0.769  -0.162  0.00  0.00    -0.001 C 
ENDBRANCH  16  19
ENDBRANCH   1  16
BRANCH   4  20
ATOM     20  C   UNL     1       3.566  -4.037  -0.506  0.00  0.00    +0.072 C 
ATOM     21  C   UNL     1       2.844  -4.848  -1.583  0.00  0.00    +0.028 C 
BRANCH  20  22
ATOM     22  C   UNL     1       4.412  -2.947  -1.168  0.00  0.00    +0.027 C 
BRANCH  22  23
ATOM     23  C   UNL     1       5.229  -2.216  -0.101  0.00  0.00    +0.037 C 
BRANCH  23  24
ATOM     24  C   UNL     1       6.062  -1.143  -0.753  0.00  0.00    -0.047 A 
ATOM     25  C   UNL     1       7.335  -1.436  -1.206  0.00  0.00    +0.003 A 
ATOM     26  C   UNL     1       8.099  -0.451  -1.805  0.00  0.00    +0.000 A 
ATOM     27  C   UNL     1       7.590   0.825  -1.951  0.00  0.00    +0.000 A 
ATOM     28  C   UNL     1       6.317   1.118  -1.499  0.00  0.00    +0.000 A 
ATOM     29  C   UNL     1       5.551   0.132  -0.904  0.00  0.00    +0.003 A 
ENDBRANCH  23  24
ENDBRANCH  22  23
ENDBRANCH  20  22
ENDBRANCH   4  20
BRANCH  12  30
ATOM     30  C   UNL     1       4.776  -7.681   3.343  0.00  0.00    +0.099 C 
BRANCH  30  31
ATOM     31  C   UNL     1       5.867  -8.443   4.096  0.00  0.00    -0.008 C 
ATOM     32  C   UNL     1       5.292  -9.752   4.641  0.00  0.00    +0.008 C 
ATOM     33  C   UNL     1       7.024  -8.752   3.144  0.00  0.00    +0.008 C 
ENDBRANCH  30  31
ENDBRANCH  12  30
TORSDOF 8
