REMARK  Name = ZINC36312929
REMARK  14 active torsions:
REMARK  status: ('A' for Active; 'I' for Inactive)
REMARK    1  A    between atoms: C_1  and  C_2
REMARK    2  A    between atoms: C_2  and  C_3
REMARK    3  A    between atoms: C_2  and  O_4
REMARK    4  A    between atoms: O_4  and  C_5
REMARK    5  A    between atoms: C_5  and  C_6
REMARK    6  A    between atoms: C_6  and  C_8
REMARK    7  A    between atoms: C_6  and  O_37
REMARK    8  A    between atoms: C_8  and  N_9
REMARK    9  A    between atoms: N_9  and  C_10
REMARK   10  A    between atoms: N_9  and  C_20
REMARK   11  A    between atoms: C_10  and  C_11
REMARK   12  A    between atoms: C_20  and  C_21
REMARK   13  A    between atoms: C_22  and  C_31
REMARK   14  A    between atoms: C_25  and  N_26
REMARK                            x       y       z     vdW  Elec       q    Type
REMARK                         _______ _______ _______ _____ _____    ______ ____
ROOT
ATOM      1  N   UNL     1      -5.665  -3.646  -0.690  0.00  0.00    +0.387 N 
ATOM      2  H   UNL     1      -6.563  -3.363  -1.053  0.00  0.00    -0.081 HD
ENDROOT
BRANCH   1   3
ATOM      3  C   UNL     1      -4.655  -2.639  -1.044  0.00  0.00    -0.044 C 
BRANCH   3   4
ATOM      4  C   UNL     1      -5.232  -1.239  -0.823  0.00  0.00    +0.124 C 
BRANCH   4   5
ATOM      5  O   UNL     1      -6.430  -1.091  -1.588  0.00  0.00    -0.391 OA
ATOM      6  H   UNL     1      -6.304  -1.202  -2.541  0.00  0.00    +0.210 HD
ENDBRANCH   4   5
BRANCH   4   7
ATOM      7  C   UNL     1      -4.210  -0.191  -1.268  0.00  0.00    +0.189 C 
BRANCH   7   8
ATOM      8  O   UNL     1      -4.700   1.114  -0.955  0.00  0.00    -0.375 OA
BRANCH   8  10
ATOM      9  C   UNL     1      -4.631   3.423  -1.667  0.00  0.00    +0.037 C 
ATOM     10  C   UNL     1      -3.816   2.172  -1.332  0.00  0.00    +0.112 C 
ATOM     11  C   UNL     1      -2.865   2.479  -0.173  0.00  0.00    +0.037 C 
ENDBRANCH   8  10
ENDBRANCH   7   8
ENDBRANCH   4   7
ENDBRANCH   3   4
ENDBRANCH   1   3
BRANCH   1  12
ATOM     12  C   UNL     1      -5.744  -3.768   0.772  0.00  0.00    -0.042 C 
BRANCH  12  13
ATOM     13  C   UNL     1      -6.316  -2.500   1.351  0.00  0.00    -0.060 A 
ATOM     14  C   UNL     1      -5.558  -1.734   2.218  0.00  0.00    +0.005 A 
ATOM     15  C   UNL     1      -6.079  -0.570   2.752  0.00  0.00    +0.050 A 
ATOM     16  C   UNL     1      -7.362  -0.168   2.420  0.00  0.00    +0.166 A 
ATOM     17  C   UNL     1      -8.126  -0.940   1.547  0.00  0.00    +0.166 A 
ATOM     18  C   UNL     1      -7.596  -2.102   1.011  0.00  0.00    +0.051 A 
ATOM     19  O   UNL     1      -9.340  -0.338   1.381  0.00  0.00    -0.453 OA
ATOM     20  C   UNL     1      -9.462   0.589   2.476  0.00  0.00    +0.466 C 
ATOM     21  O   UNL     1      -8.098   0.917   2.801  0.00  0.00    -0.453 OA
ENDBRANCH  12  13
ENDBRANCH   1  12
BRANCH   1  22
ATOM     22  C   UNL     1      -5.288  -4.942  -1.270  0.00  0.00    -0.035 C 
BRANCH  22  23
ATOM     23  C   UNL     1      -6.383  -5.945  -1.012  0.00  0.00    +0.025 A 
ATOM     24  C   UNL     1      -6.426  -6.871   0.051  0.00  0.00    +0.117 A 
ATOM     25  N   UNL     1      -7.533  -7.568  -0.064  0.00  0.00    -0.076 NA
ATOM     26  O   UNL     1      -8.227  -7.102  -1.206  0.00  0.00    -0.339 OA
ATOM     27  C   UNL     1      -7.504  -6.112  -1.758  0.00  0.00    +0.222 A 
BRANCH  24  28
ATOM     28  C   UNL     1      -5.400  -7.030   1.113  0.00  0.00    +0.004 A 
ATOM     29  C   UNL     1      -5.788  -7.203   2.439  0.00  0.00    +0.010 A 
ATOM     30  C   UNL     1      -4.830  -7.351   3.422  0.00  0.00    +0.001 A 
ATOM     31  C   UNL     1      -3.487  -7.328   3.091  0.00  0.00    +0.000 A 
ATOM     32  C   UNL     1      -3.097  -7.157   1.776  0.00  0.00    +0.001 A 
ATOM     33  C   UNL     1      -4.046  -7.013   0.784  0.00  0.00    +0.010 A 
ENDBRANCH  24  28
BRANCH  27  34
ATOM     34  N   UNL     1      -7.843  -5.392  -2.889  0.00  0.00    -0.299 N 
ATOM     35  C   UNL     1      -7.042  -4.316  -3.491  0.00  0.00    +0.108 C 
ATOM     36  C   UNL     1      -7.824  -3.792  -4.714  0.00  0.00    +0.020 C 
ATOM     37  C   UNL     1      -9.283  -4.217  -4.401  0.00  0.00    +0.020 C 
ATOM     38  C   UNL     1      -9.063  -5.580  -3.694  0.00  0.00    +0.108 C 
ENDBRANCH  27  34
ENDBRANCH  22  23
ENDBRANCH   1  22
TORSDOF 12
