REMARK  Name = ZINC40170761
REMARK  12 active torsions:
REMARK  status: ('A' for Active; 'I' for Inactive)
REMARK    1  A    between atoms: C_1  and  C_2
REMARK    2  A    between atoms: C_2  and  C_3
REMARK    3  A    between atoms: C_3  and  C_5
REMARK    4  A    between atoms: C_3  and  S_17
REMARK    5  A    between atoms: N_7  and  C_8
REMARK    6  A    between atoms: C_9  and  C_15
REMARK    7  A    between atoms: C_10  and  C_14
REMARK    8  A    between atoms: C_11  and  C_13
REMARK    9  A    between atoms: S_17  and  C_18
REMARK   10  A    between atoms: C_24  and  C_33
REMARK   11  A    between atoms: C_26  and  C_32
REMARK   12  A    between atoms: C_29  and  C_31
REMARK                            x       y       z     vdW  Elec       q    Type
REMARK                         _______ _______ _______ _____ _____    ______ ____
ROOT
ATOM      1  S   UNL     1      -2.240  -0.023  -1.445  0.00  0.00    -0.073 S 
ENDROOT
BRANCH   1   2
ATOM      2  C   UNL     1      -2.014   1.722  -1.340  0.00  0.00    +0.197 A 
ATOM      3  N   UNL     1      -1.423   2.341  -0.334  0.00  0.00    -0.122 NA
ATOM      4  N   UNL     1      -1.306   3.589  -0.595  0.00  0.00    -0.129 NA
ATOM      5  C   UNL     1      -1.779   3.829  -1.803  0.00  0.00    +0.162 A 
ATOM      6  N   UNL     1      -2.418   2.675  -2.223  0.00  0.00    -0.270 N 
ATOM      7  C   UNL     1      -3.268   2.735  -3.313  0.00  0.00    +0.061 A 
ATOM      8  C   UNL     1      -4.328   1.866  -3.513  0.00  0.00    -0.026 A 
ATOM      9  C   UNL     1      -4.992   1.843  -4.726  0.00  0.00    +0.008 A 
ATOM     10  C   UNL     1      -4.682   2.756  -5.720  0.00  0.00    -0.050 A 
ATOM     11  C   UNL     1      -3.759   3.748  -5.472  0.00  0.00    +0.013 A 
ATOM     12  C   UNL     1      -3.107   3.793  -4.239  0.00  0.00    +0.002 A 
ATOM     13  C   UNL     1      -2.317   4.963  -3.846  0.00  0.00    -0.038 A 
ATOM     14  C   UNL     1      -1.718   4.969  -2.634  0.00  0.00    +0.052 A 
ATOM     15  C   UNL     1      -2.165   6.148  -4.763  0.00  0.00    +0.044 C 
ATOM     16  C   UNL     1      -5.351   2.668  -7.066  0.00  0.00    +0.044 C 
ATOM     17  C   UNL     1      -4.853   0.984  -2.409  0.00  0.00    +0.046 C 
ENDBRANCH   1   2
BRANCH   1  18
ATOM     18  C   UNL     1      -1.327  -0.670  -0.017  0.00  0.00    +0.140 C 
BRANCH  18  19
ATOM     19  C   UNL     1      -2.037  -0.280   1.253  0.00  0.00    +0.231 C 
ATOM     20  O   UNL     1      -3.228  -0.050   1.236  0.00  0.00    -0.274 OA
ATOM     21  N   UNL     1      -1.349  -0.187   2.408  0.00  0.00    -0.278 N 
ATOM     22  H   UNL     1      -0.397  -0.371   2.422  0.00  0.00    +0.155 HD
BRANCH  21  23
ATOM     23  C   UNL     1      -2.004   0.173   3.578  0.00  0.00    +0.090 A 
ATOM     24  C   UNL     1      -1.463   0.323   4.846  0.00  0.00    +0.083 A 
ATOM     25  C   UNL     1      -2.375   0.709   5.897  0.00  0.00    -0.021 A 
ATOM     26  C   UNL     1      -3.658   0.881   5.527  0.00  0.00    -0.007 A 
ATOM     27  S   UNL     1      -3.630   0.533   3.782  0.00  0.00    -0.077 S 
ATOM     28  C   UNL     1      -4.834   1.277   6.382  0.00  0.00    +0.052 C 
ATOM     29  C   UNL     1      -1.919   0.906   7.320  0.00  0.00    +0.046 C 
BRANCH  24  30
ATOM     30  C   UNL     1      -0.070   0.106   5.100  0.00  0.00    +0.102 C 
ATOM     31  N   UNL     1       1.035  -0.065   5.301  0.00  0.00    -0.191 NA
ENDBRANCH  24  30
ENDBRANCH  21  23
ENDBRANCH  18  19
BRANCH  18  33
ATOM     32  C   UNL     1      -0.409  -2.590  -1.327  0.00  0.00    +0.005 C 
ATOM     33  C   UNL     1      -1.250  -2.196  -0.111  0.00  0.00    +0.020 C 
ENDBRANCH  18  33
ENDBRANCH   1  18
TORSDOF 6
