REMARK  Name = ZINC39998652
REMARK  12 active torsions:
REMARK  status: ('A' for Active; 'I' for Inactive)
REMARK    1  A    between atoms: C_1  and  C_2
REMARK    2  A    between atoms: C_5  and  N_8
REMARK    3  A    between atoms: C_9  and  C_11
REMARK    4  A    between atoms: C_11  and  C_36
REMARK    5  A    between atoms: C_12  and  C_13
REMARK    6  A    between atoms: C_14  and  O_25
REMARK    7  A    between atoms: C_19  and  C_24
REMARK    8  A    between atoms: O_25  and  C_26
REMARK    9  A    between atoms: C_29  and  C_32
REMARK   10  A    between atoms: C_32  and  C_33
REMARK   11  A    between atoms: C_32  and  C_34
REMARK   12  A    between atoms: C_32  and  C_35
REMARK                            x       y       z     vdW  Elec       q    Type
REMARK                         _______ _______ _______ _____ _____    ______ ____
ROOT
ATOM      1  C   UNL     1      -0.240  -8.406   2.751  0.00  0.00    +0.103 A 
ATOM      2  C   UNL     1      -0.149  -8.998   4.034  0.00  0.00    +0.235 A 
ATOM      3  N   UNL     1      -0.228 -10.312   4.152  0.00  0.00    -0.194 NA
ATOM      4  C   UNL     1      -0.391 -11.104   3.090  0.00  0.00    +0.144 A 
ATOM      5  C   UNL     1      -0.468 -12.495   3.280  0.00  0.00    +0.047 A 
ATOM      6  C   UNL     1      -0.635 -13.314   2.202  0.00  0.00    +0.008 A 
ATOM      7  C   UNL     1      -0.728 -12.757   0.920  0.00  0.00    -0.034 A 
ATOM      8  C   UNL     1      -0.652 -11.417   0.756  0.00  0.00    +0.099 A 
ATOM      9  N   UNL     1      -0.486 -10.591   1.827  0.00  0.00    -0.267 N 
ATOM     10  C   UNL     1      -0.419  -9.257   1.628  0.00  0.00    +0.269 A 
ATOM     11  O   UNL     1      -0.508  -8.792   0.506  0.00  0.00    -0.266 OA
ATOM     12  C   UNL     1      -0.912 -13.653  -0.278  0.00  0.00    +0.045 C 
ENDROOT
BRANCH   1  14
ATOM     13  C   UNL     1       0.947  -6.320   3.067  0.00  0.00    +0.114 C 
ATOM     14  C   UNL     1      -0.160  -7.011   2.593  0.00  0.00    +0.042 C 
BRANCH  13  16
ATOM     15  N   UNL     1       2.045  -4.185   3.485  0.00  0.00    -0.281 N 
ATOM     16  C   UNL     1       0.970  -4.855   3.025  0.00  0.00    +0.259 C 
ATOM     17  O   UNL     1       0.019  -4.243   2.573  0.00  0.00    -0.269 OA
ATOM     18  H   UNL     1       2.827  -4.672   3.788  0.00  0.00    +0.155 HD
BRANCH  15  23
ATOM     19  C   UNL     1       1.995   1.485   3.648  0.00  0.00    +0.044 C 
ATOM     20  C   UNL     1       2.009  -0.021   3.605  0.00  0.00    -0.050 A 
ATOM     21  C   UNL     1       3.190  -0.694   3.352  0.00  0.00    +0.005 A 
ATOM     22  C   UNL     1       3.206  -2.074   3.312  0.00  0.00    +0.023 A 
ATOM     23  C   UNL     1       2.033  -2.787   3.526  0.00  0.00    +0.034 A 
ATOM     24  C   UNL     1       0.848  -2.108   3.780  0.00  0.00    +0.023 A 
ATOM     25  C   UNL     1       0.840  -0.728   3.825  0.00  0.00    +0.005 A 
ENDBRANCH  15  23
ENDBRANCH  13  16
BRANCH  13  26
ATOM     26  C   UNL     1       2.065  -7.040   3.598  0.00  0.00    +0.104 C 
ATOM     27  N   UNL     1       2.953  -7.610   4.019  0.00  0.00    -0.191 NA
ENDBRANCH  13  26
ENDBRANCH   1  14
BRANCH   2  28
ATOM     28  O   UNL     1       0.017  -8.225   5.130  0.00  0.00    -0.437 OA
BRANCH  28  29
ATOM     29  C   UNL     1       0.166  -8.844   6.331  0.00  0.00    +0.130 A 
ATOM     30  C   UNL     1       1.370  -9.453   6.654  0.00  0.00    +0.046 A 
ATOM     31  C   UNL     1       1.519 -10.082   7.875  0.00  0.00    +0.008 A 
ATOM     32  C   UNL     1       0.469 -10.104   8.775  0.00  0.00    -0.042 A 
ATOM     33  C   UNL     1      -0.732  -9.498   8.455  0.00  0.00    +0.008 A 
ATOM     34  C   UNL     1      -0.884  -8.863   7.237  0.00  0.00    +0.046 A 
BRANCH  32  35
ATOM     35  C   UNL     1       0.634 -10.791  10.106  0.00  0.00    -0.013 C 
ATOM     36  C   UNL     1       1.774 -10.130  10.883  0.00  0.00    +0.015 C 
ATOM     37  C   UNL     1      -0.665 -10.672  10.905  0.00  0.00    +0.015 C 
ATOM     38  C   UNL     1       0.961 -12.269   9.880  0.00  0.00    +0.015 C 
ENDBRANCH  32  35
ENDBRANCH  28  29
ENDBRANCH   2  28
TORSDOF 7
