REMARK  Name = ZINC00970164
REMARK  3 active torsions:
REMARK  status: ('A' for Active; 'I' for Inactive)
REMARK    1  A    between atoms: C_1  and  C_2
REMARK    2  A    between atoms: C_2  and  C_4
REMARK    3  A    between atoms: C_6  and  N_10
REMARK                            x       y       z     vdW  Elec       q    Type
REMARK                         _______ _______ _______ _____ _____    ______ ____
ROOT
ATOM      1  C   UNL     1      -1.229   3.159   0.032  0.00  0.00    +0.066 A 
ATOM      2  C   UNL     1      -0.015   3.860   0.016  0.00  0.00    +0.051 A 
ATOM      3  C   UNL     1       1.167   3.179   0.002  0.00  0.00    +0.173 A 
ATOM      4  C   UNL     1       1.179   1.786   0.004  0.00  0.00    +0.213 A 
ATOM      5  C   UNL     1      -0.013   1.076   0.019  0.00  0.00    +0.104 A 
ATOM      6  C   UNL     1      -1.220   1.752   0.027  0.00  0.00    +0.193 A 
ATOM      7  O   UNL     1      -2.388   1.063   0.037  0.00  0.00    -0.287 OA
ATOM      8  O   UNL     1       2.361   1.121  -0.010  0.00  0.00    -0.285 OA
ENDROOT
BRANCH   1  10
ATOM      9  C   UNL     1      -2.506   5.389   0.169  0.00  0.00    +0.092 C 
ATOM     10  C   UNL     1      -2.499   3.887   0.047  0.00  0.00    +0.164 C 
ATOM     11  O   UNL     1      -3.547   3.281  -0.039  0.00  0.00    -0.292 OA
ENDBRANCH   1  10
BRANCH   3  12
ATOM     12  N   UNL     1       2.446   3.925  -0.013  0.00  0.00    +0.060 N 
ATOM     13  O   UNL     1       2.440   5.143  -0.014  0.00  0.00    -0.126 OA
ATOM     14  O   UNL     1       3.503   3.321  -0.025  0.00  0.00    -0.126 OA
ENDBRANCH   3  12
TORSDOF 2
