REMARK  Name = ZINC08451821
REMARK  12 active torsions:
REMARK  status: ('A' for Active; 'I' for Inactive)
REMARK    1  A    between atoms: C_1  and  C_2
REMARK    2  A    between atoms: C_2  and  O_3
REMARK    3  A    between atoms: O_3  and  C_4
REMARK    4  A    between atoms: C_4  and  C_6
REMARK    5  A    between atoms: C_7  and  C_35
REMARK    6  A    between atoms: C_14  and  C_15
REMARK    7  A    between atoms: C_20  and  O_21
REMARK    8  A    between atoms: C_23  and  C_25
REMARK    9  A    between atoms: C_28  and  O_31
REMARK   10  A    between atoms: O_31  and  C_32
REMARK   11  A    between atoms: C_32  and  C_33
REMARK   12  A    between atoms: C_32  and  C_34
REMARK                            x       y       z     vdW  Elec       q    Type
REMARK                         _______ _______ _______ _____ _____    ______ ____
ROOT
ATOM      1  C   UNL     1      -1.290  10.146   0.661  0.00  0.00    +0.085 C 
ATOM      2  C   UNL     1      -2.651  10.237   0.749  0.00  0.00    +0.053 C 
ATOM      3  N   UNL     1      -3.411   9.159   0.605  0.00  0.00    -0.228 NA
ATOM      4  C   UNL     1      -2.958   7.952   0.375  0.00  0.00    +0.178 A 
ATOM      5  N   UNL     1      -1.624   7.640   0.252  0.00  0.00    -0.275 N 
ATOM      6  C   UNL     1      -1.280   6.366   0.022  0.00  0.00    +0.268 A 
ATOM      7  O   UNL     1      -0.112   6.042  -0.089  0.00  0.00    -0.266 OA
ATOM      8  C   UNL     1      -2.355   5.372  -0.097  0.00  0.00    +0.081 A 
ATOM      9  C   UNL     1      -2.274   4.036  -0.328  0.00  0.00    +0.032 C 
ATOM     10  S   UNL     1      -3.797   6.395   0.154  0.00  0.00    -0.046 S 
ATOM     11  C   UNL     1      -0.684   8.787   0.398  0.00  0.00    +0.162 C 
ATOM     12  C   UNL     1      -3.295  11.575   1.010  0.00  0.00    +0.066 C 
ENDROOT
BRANCH   9  13
ATOM     13  C   UNL     1      -0.984   3.428  -0.674  0.00  0.00    +0.018 A 
ATOM     14  C   UNL     1      -0.138   4.050  -1.599  0.00  0.00    +0.011 A 
ATOM     15  C   UNL     1       1.072   3.473  -1.918  0.00  0.00    +0.001 A 
ATOM     16  C   UNL     1       1.456   2.280  -1.327  0.00  0.00    +0.004 A 
ATOM     17  C   UNL     1       0.631   1.655  -0.412  0.00  0.00    +0.046 A 
ATOM     18  C   UNL     1      -0.593   2.216  -0.082  0.00  0.00    +0.124 A 
BRANCH  18  19
ATOM     19  O   UNL     1      -1.406   1.599   0.813  0.00  0.00    -0.506 OA
ATOM     20  H   UNL     1      -1.259   1.870   1.730  0.00  0.00    +0.292 HD
ENDBRANCH  18  19
ENDBRANCH   9  13
BRANCH  11  21
ATOM     21  C   UNL     1       0.259   8.473   1.530  0.00  0.00    -0.020 A 
ATOM     22  C   UNL     1      -0.239   8.007   2.734  0.00  0.00    +0.009 A 
ATOM     23  C   UNL     1       0.624   7.713   3.772  0.00  0.00    +0.046 A 
ATOM     24  C   UNL     1       1.989   7.895   3.610  0.00  0.00    +0.121 A 
ATOM     25  C   UNL     1       2.486   8.368   2.404  0.00  0.00    +0.046 A 
ATOM     26  C   UNL     1       1.619   8.655   1.367  0.00  0.00    +0.009 A 
BRANCH  24  27
ATOM     27  O   UNL     1       2.840   7.611   4.632  0.00  0.00    -0.489 OA
BRANCH  27  28
ATOM     28  C   UNL     1       4.232   7.833   4.397  0.00  0.00    +0.167 C 
ATOM     29  C   UNL     1       4.559   9.310   4.624  0.00  0.00    +0.051 C 
ATOM     30  C   UNL     1       5.054   6.975   5.362  0.00  0.00    +0.051 C 
ENDBRANCH  27  28
ENDBRANCH  24  27
ENDBRANCH  11  21
BRANCH   1  31
ATOM     31  C   UNL     1      -0.479  11.282   0.813  0.00  0.00    +0.339 C 
ATOM     32  O   UNL     1      -0.986  12.369   1.025  0.00  0.00    -0.245 OA
BRANCH  31  33
ATOM     33  O   UNL     1       0.864  11.170   0.723  0.00  0.00    -0.462 OA
BRANCH  33  35
ATOM     34  C   UNL     1       3.117  12.044   0.754  0.00  0.00    +0.048 C 
ATOM     35  C   UNL     1       1.628  12.367   0.887  0.00  0.00    +0.229 C 
ENDBRANCH  33  35
ENDBRANCH  31  33
ENDBRANCH   1  31
TORSDOF 8
