REMARK  Name = ZINC25394215
REMARK  8 active torsions:
REMARK  status: ('A' for Active; 'I' for Inactive)
REMARK    1  A    between atoms: C_1  and  C_2
REMARK    2  A    between atoms: C_7  and  N_12
REMARK    3  A    between atoms: C_9  and  C_11
REMARK    4  A    between atoms: C_13  and  C_15
REMARK    5  A    between atoms: C_15  and  O_16
REMARK    6  A    between atoms: O_16  and  C_17
REMARK    7  A    between atoms: C_17  and  C_19
REMARK    8  A    between atoms: C_33  and  C_34
REMARK                            x       y       z     vdW  Elec       q    Type
REMARK                         _______ _______ _______ _____ _____    ______ ____
ROOT
ATOM      1  C   UNL     1       1.217   3.574   0.231  0.00  0.00    +0.073 A 
ATOM      2  C   UNL     1       1.175   2.133  -0.019  0.00  0.00    +0.015 A 
ATOM      3  C   UNL     1      -0.036   1.436  -0.084  0.00  0.00    +0.011 A 
ATOM      4  C   UNL     1      -0.030   0.093  -0.321  0.00  0.00    +0.001 A 
ATOM      5  C   UNL     1       1.169  -0.594  -0.498  0.00  0.00    +0.002 A 
ATOM      6  C   UNL     1       2.365   0.052  -0.440  0.00  0.00    +0.028 A 
ATOM      7  C   UNL     1       2.398   1.439  -0.198  0.00  0.00    +0.072 A 
ATOM      8  N   UNL     1       3.553   2.099  -0.135  0.00  0.00    -0.247 NA
ATOM      9  C   UNL     1       3.619   3.401   0.094  0.00  0.00    +0.072 A 
ATOM     10  C   UNL     1       2.464   4.183   0.280  0.00  0.00    -0.007 A 
ATOM     11  C   UNL     1       2.539   5.664   0.527  0.00  0.00    +0.038 C 
ATOM     12  C   UNL     1       3.902   6.064   1.085  0.00  0.00    +0.009 C 
ATOM     13  C   UNL     1       5.003   5.556   0.145  0.00  0.00    +0.037 C 
ATOM     14  C   UNL     1       4.950   4.044   0.157  0.00  0.00    -0.021 C 
ATOM     15  C   UNL     1       6.074   3.309   0.223  0.00  0.00    +0.013 C 
ENDROOT
BRANCH  15  16
ATOM     16  C   UNL     1       7.388   3.963   0.113  0.00  0.00    -0.021 A 
ATOM     17  C   UNL     1       7.545   5.091  -0.699  0.00  0.00    +0.012 A 
ATOM     18  C   UNL     1       8.776   5.702  -0.799  0.00  0.00    +0.050 A 
ATOM     19  C   UNL     1       9.864   5.201  -0.098  0.00  0.00    +0.166 A 
ATOM     20  C   UNL     1       9.716   4.076   0.713  0.00  0.00    +0.167 A 
ATOM     21  C   UNL     1       8.483   3.462   0.823  0.00  0.00    +0.057 A 
ATOM     22  O   UNL     1      10.922   3.790   1.286  0.00  0.00    -0.453 OA
ATOM     23  C   UNL     1      11.898   4.500   0.501  0.00  0.00    +0.466 C 
ATOM     24  O   UNL     1      11.162   5.617  -0.032  0.00  0.00    -0.453 OA
ENDBRANCH  15  16
BRANCH   1  25
ATOM     25  C   UNL     1      -0.024   4.354   0.423  0.00  0.00    +0.341 C 
ATOM     26  O   UNL     1      -0.486   4.494   1.537  0.00  0.00    -0.245 OA
BRANCH  25  27
ATOM     27  O   UNL     1      -0.641   4.910  -0.638  0.00  0.00    -0.452 OA
BRANCH  27  28
ATOM     28  C   UNL     1      -1.855   5.662  -0.375  0.00  0.00    +0.328 C 
BRANCH  28  30
ATOM     29  N   UNL     1      -3.530   6.940  -1.670  0.00  0.00    -0.309 N 
ATOM     30  C   UNL     1      -2.401   6.205  -1.670  0.00  0.00    +0.251 C 
ATOM     31  O   UNL     1      -1.823   5.979  -2.713  0.00  0.00    -0.272 OA
ATOM     32  H   UNL     1      -4.053   7.144  -0.725  0.00  0.00    +0.149 HD
BRANCH  29  38
ATOM     33  C   UNL     1      -6.306  10.504  -3.678  0.00  0.00    +0.008 C 
ATOM     34  C   UNL     1      -5.460   9.261  -3.962  0.00  0.00    -0.009 C 
ATOM     35  C   UNL     1      -6.328   8.197  -4.635  0.00  0.00    +0.003 C 
ATOM     36  C   UNL     1      -5.482   6.954  -4.919  0.00  0.00    +0.002 C 
ATOM     37  C   UNL     1      -4.928   6.403  -3.604  0.00  0.00    +0.022 C 
ATOM     38  C   UNL     1      -4.060   7.468  -2.930  0.00  0.00    +0.076 C 
ATOM     39  C   UNL     1      -4.907   8.710  -2.646  0.00  0.00    +0.009 C 
ATOM     40  C   UNL     1      -6.066   8.338  -1.721  0.00  0.00    +0.009 C 
ENDBRANCH  29  38
ENDBRANCH  28  30
ENDBRANCH  27  28
ENDBRANCH  25  27
ENDBRANCH   1  25
TORSDOF 6
