REMARK  Name = ZINC35484156
REMARK  17 active torsions:
REMARK  status: ('A' for Active; 'I' for Inactive)
REMARK    1  A    between atoms: C_1  and  C_2
REMARK    2  A    between atoms: C_9  and  C_12
REMARK    3  A    between atoms: C_10  and  C_11
REMARK    4  A    between atoms: C_12  and  C_13
REMARK    5  A    between atoms: C_14  and  C_25
REMARK    6  A    between atoms: N_16  and  C_21
REMARK    7  A    between atoms: C_21  and  C_22
REMARK    8  A    between atoms: C_22  and  O_23
REMARK    9  A    between atoms: O_23  and  C_24
REMARK   10  A    between atoms: C_28  and  O_33
REMARK   11  A    between atoms: C_29  and  O_31
REMARK   12  A    between atoms: O_31  and  C_32
REMARK   13  A    between atoms: O_33  and  C_34
REMARK   14  A    between atoms: C_34  and  C_35
REMARK   15  A    between atoms: C_35  and  C_36
REMARK   16  A    between atoms: C_36  and  C_37
REMARK   17  A    between atoms: C_36  and  C_38
REMARK                            x       y       z     vdW  Elec       q    Type
REMARK                         _______ _______ _______ _____ _____    ______ ____
ROOT
ATOM      1  C   UNL     1      -0.281   0.009   5.567  0.00  0.00    +0.078 C 
ATOM      2  C   UNL     1      -0.585   1.322   4.884  0.00  0.00    +0.145 C 
ATOM      3  N   UNL     1      -0.503   2.353   5.925  0.00  0.00    -0.281 N 
ATOM      4  C   UNL     1      -0.190   1.747   7.084  0.00  0.00    +0.288 C 
ATOM      5  O   UNL     1      -0.045   2.312   8.150  0.00  0.00    -0.266 OA
ATOM      6  C   UNL     1      -0.056   0.291   6.872  0.00  0.00    +0.249 C 
ATOM      7  O   UNL     1       0.247  -0.617   7.828  0.00  0.00    -0.282 OA
ENDROOT
BRANCH   2   8
ATOM      8  C   UNL     1       0.431   1.593   3.805  0.00  0.00    -0.019 A 
ATOM      9  C   UNL     1       1.677   2.089   4.140  0.00  0.00    +0.009 A 
ATOM     10  C   UNL     1       2.613   2.339   3.154  0.00  0.00    +0.050 A 
ATOM     11  C   UNL     1       2.304   2.092   1.826  0.00  0.00    +0.162 A 
ATOM     12  C   UNL     1       1.050   1.591   1.489  0.00  0.00    +0.162 A 
ATOM     13  C   UNL     1       0.118   1.339   2.483  0.00  0.00    +0.055 A 
BRANCH  12  14
ATOM     14  O   UNL     1       0.741   1.347   0.187  0.00  0.00    -0.491 OA
ATOM     15  C   UNL     1      -0.600   0.944  -0.097  0.00  0.00    +0.277 C 
ENDBRANCH  12  14
BRANCH  11  16
ATOM     16  O   UNL     1       3.223   2.337   0.854  0.00  0.00    -0.488 OA
BRANCH  16  17
ATOM     17  C   UNL     1       4.489   2.851   1.274  0.00  0.00    +0.229 C 
BRANCH  17  18
ATOM     18  C   UNL     1       5.384   3.062   0.051  0.00  0.00    +0.044 C 
BRANCH  18  19
ATOM     19  C   UNL     1       6.739   3.612   0.501  0.00  0.00    -0.014 C 
ATOM     20  C   UNL     1       7.676   3.706  -0.705  0.00  0.00    +0.007 C 
ATOM     21  C   UNL     1       6.549   5.003   1.109  0.00  0.00    +0.007 C 
ENDBRANCH  18  19
ENDBRANCH  17  18
ENDBRANCH  16  17
ENDBRANCH  11  16
ENDBRANCH   2   8
BRANCH   1  22
ATOM     22  C   UNL     1      -0.242  -1.315   4.939  0.00  0.00    +0.215 C 
ATOM     23  O   UNL     1      -0.616  -1.454   3.789  0.00  0.00    -0.285 OA
BRANCH  22  32
ATOM     24  C   UNL     1       2.103  -3.259   9.589  0.00  0.00    +0.047 C 
ATOM     25  C   UNL     1       1.714  -4.188   8.468  0.00  0.00    -0.008 A 
ATOM     26  C   UNL     1       1.927  -5.525   8.579  0.00  0.00    +0.008 A 
ATOM     27  C   UNL     1       1.560  -6.380   7.526  0.00  0.00    +0.018 A 
ATOM     28  C   UNL     1       0.998  -5.880   6.407  0.00  0.00    +0.093 A 
ATOM     29  N   UNL     1       0.777  -4.537   6.279  0.00  0.00    -0.303 N 
ATOM     30  C   UNL     1       1.119  -3.677   7.293  0.00  0.00    +0.141 A 
ATOM     31  N   UNL     1       0.799  -2.446   6.929  0.00  0.00    -0.224 NA
ATOM     32  C   UNL     1       0.249  -2.479   5.701  0.00  0.00    +0.133 A 
ATOM     33  C   UNL     1       0.237  -3.790   5.276  0.00  0.00    +0.051 A 
ATOM     34  C   UNL     1      -0.289  -4.301   3.960  0.00  0.00    +0.066 C 
ENDBRANCH  22  32
ENDBRANCH   1  22
BRANCH   3  35
ATOM     35  C   UNL     1      -0.722   3.789   5.735  0.00  0.00    +0.137 C 
BRANCH  35  36
ATOM     36  C   UNL     1      -2.201   4.113   5.954  0.00  0.00    +0.178 C 
BRANCH  36  37
ATOM     37  O   UNL     1      -2.548   3.855   7.316  0.00  0.00    -0.381 OA
ATOM     38  C   UNL     1      -3.916   4.126   7.629  0.00  0.00    +0.194 C 
ENDBRANCH  36  37
ENDBRANCH  35  36
ENDBRANCH   3  35
TORSDOF 11
