REMARK  Name = ZINC12377823
REMARK  6 active torsions:
REMARK  status: ('A' for Active; 'I' for Inactive)
REMARK    1  A    between atoms: C_1  and  C_2
REMARK    2  A    between atoms: C_5  and  C_27
REMARK    3  A    between atoms: C_6  and  N_8
REMARK    4  A    between atoms: C_9  and  C_11
REMARK    5  A    between atoms: C_12  and  C_26
REMARK    6  A    between atoms: C_17  and  C_19
REMARK                            x       y       z     vdW  Elec       q    Type
REMARK                         _______ _______ _______ _____ _____    ______ ____
ROOT
ATOM      1  C   UNL     1      -3.555   6.554   0.379  0.00  0.00    +0.056 C 
ATOM      2  C   UNL     1      -3.548   7.899   0.270  0.00  0.00    +0.017 C 
ATOM      3  N   UNL     1      -4.708   8.617   0.322  0.00  0.00    -0.300 N 
ATOM      4  C   UNL     1      -5.917   8.063   0.481  0.00  0.00    +0.135 C 
ATOM      5  S   UNL     1      -7.294   9.080   0.530  0.00  0.00    -0.019 S 
ATOM      6  N   UNL     1      -6.085   6.732   0.606  0.00  0.00    -0.315 N 
ATOM      7  C   UNL     1      -4.894   5.868   0.556  0.00  0.00    +0.139 C 
ATOM      8  C   UNL     1      -2.238   8.621   0.086  0.00  0.00    +0.061 C 
ATOM      9  H   UNL     1      -4.654   9.582   0.238  0.00  0.00    +0.154 HD
ATOM     10  H   UNL     1      -6.970   6.352   0.720  0.00  0.00    +0.149 HD
ENDROOT
BRANCH   7  11
ATOM     11  C   UNL     1      -4.845   5.077   1.838  0.00  0.00    -0.023 A 
ATOM     12  C   UNL     1      -4.994   5.721   3.053  0.00  0.00    +0.007 A 
ATOM     13  C   UNL     1      -4.954   4.995   4.229  0.00  0.00    +0.015 A 
ATOM     14  C   UNL     1      -4.755   3.627   4.191  0.00  0.00    +0.018 A 
ATOM     15  C   UNL     1      -4.601   2.985   2.975  0.00  0.00    +0.015 A 
ATOM     16  C   UNL     1      -4.646   3.710   1.800  0.00  0.00    +0.007 A 
ATOM     17 BR   UNL     1      -4.692   2.635   5.800  0.00  0.00    -0.050 Br
ENDBRANCH   7  11
BRANCH   1  19
ATOM     18  N   UNL     1      -1.516   5.800   1.382  0.00  0.00    -0.281 N 
ATOM     19  C   UNL     1      -2.352   5.809   0.325  0.00  0.00    +0.248 C 
ATOM     20  O   UNL     1      -2.072   5.176  -0.677  0.00  0.00    -0.270 OA
ATOM     21  H   UNL     1      -1.783   6.221   2.215  0.00  0.00    +0.155 HD
BRANCH  18  27
ATOM     22  C   UNL     1       1.331   2.301  -0.571  0.00  0.00    +0.044 C 
ATOM     23  C   UNL     1       1.145   3.487   0.340  0.00  0.00    -0.049 A 
ATOM     24  C   UNL     1       2.212   3.968   1.075  0.00  0.00    +0.004 A 
ATOM     25  C   UNL     1       2.045   5.056   1.912  0.00  0.00    +0.005 A 
ATOM     26  C   UNL     1       0.809   5.663   2.020  0.00  0.00    -0.029 A 
ATOM     27  C   UNL     1      -0.264   5.185   1.279  0.00  0.00    +0.037 A 
ATOM     28  C   UNL     1      -0.093   4.092   0.439  0.00  0.00    +0.027 A 
ATOM     29  C   UNL     1       0.626   6.845   2.937  0.00  0.00    +0.045 C 
ENDBRANCH  18  27
ENDBRANCH   1  19
TORSDOF 3
