REMARK  Name = ZINC38965582
REMARK  8 active torsions:
REMARK  status: ('A' for Active; 'I' for Inactive)
REMARK    1  A    between atoms: C_1  and  C_2
REMARK    2  A    between atoms: C_2  and  C_3
REMARK    3  A    between atoms: C_3  and  C_4
REMARK    4  A    between atoms: C_4  and  C_5
REMARK    5  A    between atoms: C_5  and  N_6
REMARK    6  A    between atoms: N_6  and  C_7
REMARK    7  A    between atoms: N_10  and  S_11
REMARK    8  A    between atoms: S_11  and  C_14
REMARK                            x       y       z     vdW  Elec       q    Type
REMARK                         _______ _______ _______ _____ _____    ______ ____
ROOT
ATOM      1  C   UNL     1       2.156  -4.500  -3.729  0.00  0.00    +0.219 C 
ATOM      2  C   UNL     1       3.163  -5.536  -3.281  0.00  0.00    +0.188 C 
ATOM      3  N   UNL     1       4.098  -5.223  -2.433  0.00  0.00    -0.110 NA
ATOM      4  N   UNL     1       3.077  -6.782  -3.771  0.00  0.00    -0.226 NA
ATOM      5  C   UNL     1       2.140  -7.124  -4.630  0.00  0.00    +0.089 A 
ATOM      6  C   UNL     1       2.079  -8.450  -5.127  0.00  0.00    +0.030 A 
ATOM      7  C   UNL     1       1.120  -8.806  -6.010  0.00  0.00    +0.002 A 
ATOM      8  C   UNL     1       0.148  -7.907  -6.478  0.00  0.00    +0.002 A 
ATOM      9  C   UNL     1       0.115  -6.620  -6.069  0.00  0.00    +0.027 A 
ATOM     10  C   UNL     1       1.125  -6.153  -5.108  0.00  0.00    +0.063 A 
ATOM     11  N   UNL     1       1.123  -4.918  -4.690  0.00  0.00    -0.362 N 
ATOM     12  H   UNL     1       0.456  -4.289  -5.006  0.00  0.00    +0.162 HD
ENDROOT
BRANCH   3  13
ATOM     13  S   UNL     1       5.194  -6.366  -1.950  0.00  0.00    +0.102 S 
ATOM     14  O   UNL     1       4.468  -7.339  -1.211  0.00  0.00    -0.146 OA
ATOM     15  O   UNL     1       5.965  -6.700  -3.096  0.00  0.00    -0.146 OA
BRANCH  13  16
ATOM     16  C   UNL     1       6.293  -5.588  -0.813  0.00  0.00    +0.132 A 
ATOM     17  C   UNL     1       6.329  -5.999   0.506  0.00  0.00    +0.050 A 
ATOM     18  C   UNL     1       7.191  -5.388   1.398  0.00  0.00    +0.043 A 
ATOM     19  C   UNL     1       8.018  -4.364   0.970  0.00  0.00    +0.021 A 
ATOM     20  C   UNL     1       7.982  -3.953  -0.349  0.00  0.00    +0.023 A 
ATOM     21  C   UNL     1       7.123  -4.568  -1.242  0.00  0.00    +0.068 A 
ATOM     22 CL   UNL     1       7.083  -4.056  -2.901  0.00  0.00    -0.082 Cl
ATOM     23 CL   UNL     1       7.236  -5.905   3.055  0.00  0.00    -0.083 Cl
ENDBRANCH  13  16
ENDBRANCH   3  13
BRANCH   1  24
ATOM     24  N   UNL     1       1.475  -3.990  -2.532  0.00  0.00    -0.291 NA
ATOM     25  H   UNL     1       1.902  -4.350  -1.692  0.00  0.00    +0.124 HD
BRANCH  24  26
ATOM     26  C   UNL     1       1.455  -2.521  -2.524  0.00  0.00    +0.083 C 
BRANCH  26  27
ATOM     27  C   UNL     1       0.739  -2.027  -1.265  0.00  0.00    +0.015 C 
BRANCH  27  28
ATOM     28  C   UNL     1       0.718  -0.497  -1.257  0.00  0.00    +0.001 C 
BRANCH  28  30
ATOM     29  C   UNL     1      -0.019   1.526   0.010  0.00  0.00    +0.004 C 
ATOM     30  C   UNL     1       0.002  -0.004   0.002  0.00  0.00    -0.003 C 
ENDBRANCH  28  30
ENDBRANCH  27  28
ENDBRANCH  26  27
ENDBRANCH  24  26
ENDBRANCH   1  24
TORSDOF 7
