REMARK  Name = ZINC04599676
REMARK  8 active torsions:
REMARK  status: ('A' for Active; 'I' for Inactive)
REMARK    1  A    between atoms: C_1  and  C_2
REMARK    2  A    between atoms: C_5  and  N_28
REMARK    3  A    between atoms: C_7  and  N_8
REMARK    4  A    between atoms: C_9  and  C_11
REMARK    5  A    between atoms: C_11  and  C_12
REMARK    6  A    between atoms: C_12  and  C_27
REMARK    7  A    between atoms: N_13  and  N_14
REMARK    8  A    between atoms: C_15  and  C_17
REMARK                            x       y       z     vdW  Elec       q    Type
REMARK                         _______ _______ _______ _____ _____    ______ ____
ROOT
ATOM      1  C   UNL     1      -6.058   3.119  -0.115  0.00  0.00    +0.043 C 
ATOM      2  N   UNL     1      -4.960   3.774  -0.047  0.00  0.00    -0.189 NA
ATOM      3  C   UNL     1      -6.033   1.615  -0.205  0.00  0.00    +0.063 C 
ENDROOT
BRANCH   2   4
ATOM      4  N   UNL     1      -3.736   3.094  -0.055  0.00  0.00    -0.203 N 
ATOM      5  C   UNL     1      -2.581   3.784   0.016  0.00  0.00    +0.264 C 
ATOM      6  O   UNL     1      -2.601   4.998   0.088  0.00  0.00    -0.268 OA
ATOM      7  H   UNL     1      -3.720   2.125  -0.113  0.00  0.00    +0.178 HD
BRANCH   5   8
ATOM      8  C   UNL     1      -1.292   3.067   0.008  0.00  0.00    +0.046 A 
ATOM      9  C   UNL     1      -1.253   1.679   0.038  0.00  0.00    +0.014 A 
ATOM     10  C   UNL     1      -0.038   1.007   0.036  0.00  0.00    +0.001 A 
ATOM     11  C   UNL     1       1.149   1.671  -0.008  0.00  0.00    +0.008 A 
ATOM     12  C   UNL     1       1.185   3.075  -0.048  0.00  0.00    -0.017 A 
ATOM     13  C   UNL     1      -0.031   3.802  -0.041  0.00  0.00    -0.006 A 
ATOM     14  C   UNL     1       0.000   5.201  -0.081  0.00  0.00    +0.009 A 
ATOM     15  C   UNL     1       1.200   5.848  -0.126  0.00  0.00    +0.001 A 
ATOM     16  C   UNL     1       2.397   5.135  -0.133  0.00  0.00    +0.001 A 
ATOM     17  C   UNL     1       2.403   3.774  -0.095  0.00  0.00    +0.008 A 
ENDBRANCH   5   8
ENDBRANCH   2   4
BRANCH   1  18
ATOM     18  C   UNL     1      -7.375   3.851  -0.106  0.00  0.00    +0.148 C 
BRANCH  18  20
ATOM     19  N   UNL     1      -9.274   4.215  -1.649  0.00  0.00    -0.285 N 
ATOM     20  C   UNL     1      -8.071   3.649  -1.427  0.00  0.00    +0.223 C 
ATOM     21  O   UNL     1      -7.550   2.976  -2.291  0.00  0.00    -0.275 OA
ATOM     22  H   UNL     1      -9.665   4.800  -0.981  0.00  0.00    +0.155 HD
BRANCH  19  29
ATOM     23  C   UNL     1     -12.108   4.467  -1.654  0.00  0.00    +0.045 C 
ATOM     24  C   UNL     1     -11.341   4.072  -2.890  0.00  0.00    -0.029 A 
ATOM     25  C   UNL     1     -12.014   3.821  -4.070  0.00  0.00    +0.007 A 
ATOM     26  C   UNL     1     -11.310   3.458  -5.204  0.00  0.00    +0.033 A 
ATOM     27  C   UNL     1      -9.933   3.346  -5.161  0.00  0.00    +0.128 A 
ATOM     28  C   UNL     1      -9.254   3.601  -3.985  0.00  0.00    +0.056 A 
ATOM     29  C   UNL     1      -9.958   3.961  -2.843  0.00  0.00    +0.038 A 
BRANCH  27  30
ATOM     30  N   UNL     1      -9.184   2.959  -6.377  0.00  0.00    +0.056 N 
ATOM     31  O   UNL     1      -9.781   2.739  -7.416  0.00  0.00    -0.126 OA
ATOM     32  O   UNL     1      -7.971   2.860  -6.340  0.00  0.00    -0.126 OA
ENDBRANCH  27  30
ENDBRANCH  19  29
ENDBRANCH  18  20
ENDBRANCH   1  18
TORSDOF 6
