REMARK  Name = ZINC59872633
REMARK  7 active torsions:
REMARK  status: ('A' for Active; 'I' for Inactive)
REMARK    1  A    between atoms: C_10  and  C_11
REMARK    2  A    between atoms: C_11  and  C_13
REMARK    3  A    between atoms: C_13  and  O_14
REMARK    4  A    between atoms: O_14  and  C_15
REMARK    5  A    between atoms: C_15  and  C_17
REMARK    6  A    between atoms: C_20  and  O_36
REMARK    7  A    between atoms: C_24  and  C_26
REMARK                            x       y       z     vdW  Elec       q    Type
REMARK                         _______ _______ _______ _____ _____    ______ ____
ROOT
ATOM      1  C   UNL     1       9.796   0.660   0.064  0.00  0.00    +0.187 C 
ATOM      2  C   UNL     1       9.822   1.403  -1.288  0.00  0.00    +0.066 C 
ATOM      3  C   UNL     1      11.334   1.434  -1.638  0.00  0.00    +0.134 C 
ATOM      4  C   UNL     1      11.809   0.067  -1.085  0.00  0.00    +0.140 C 
ATOM      5  N   UNL     1      11.033  -0.129   0.157  0.00  0.00    -0.285 N 
ATOM      6  C   UNL     1      11.396  -0.902   1.200  0.00  0.00    +0.223 C 
ATOM      7  O   UNL     1      10.633  -1.063   2.129  0.00  0.00    -0.275 OA
ENDROOT
BRANCH   6   8
ATOM      8  C   UNL     1      12.749  -1.565   1.212  0.00  0.00    +0.048 C 
ATOM      9  C   UNL     1      13.840  -0.496   1.305  0.00  0.00    +0.019 C 
ATOM     10  C   UNL     1      15.214  -1.170   1.317  0.00  0.00    -0.009 C 
ATOM     11  C   UNL     1      15.312  -2.106   2.523  0.00  0.00    +0.007 C 
ATOM     12  C   UNL     1      14.222  -3.175   2.429  0.00  0.00    -0.009 C 
ATOM     13  C   UNL     1      12.848  -2.501   2.418  0.00  0.00    +0.019 C 
ATOM     14  C   UNL     1      14.405  -3.981   1.142  0.00  0.00    +0.007 C 
ATOM     15  C   UNL     1      14.307  -3.045  -0.064  0.00  0.00    -0.009 C 
ATOM     16  C   UNL     1      15.398  -1.976   0.029  0.00  0.00    +0.007 C 
ATOM     17  C   UNL     1      12.933  -2.371  -0.076  0.00  0.00    +0.019 C 
ENDBRANCH   6   8
BRANCH   1  18
ATOM     18  C   UNL     1       8.599  -0.254   0.124  0.00  0.00    +0.328 C 
ATOM     19  O   UNL     1       8.755  -1.447   0.238  0.00  0.00    -0.249 OA
BRANCH  18  20
ATOM     20  O   UNL     1       7.360   0.257   0.050  0.00  0.00    -0.455 OA
BRANCH  20  21
ATOM     21  C   UNL     1       6.272  -0.667   0.112  0.00  0.00    +0.311 C 
BRANCH  21  22
ATOM     22  C   UNL     1       4.969   0.083   0.015  0.00  0.00    +0.201 C 
ATOM     23  O   UNL     1       4.972   1.291  -0.098  0.00  0.00    -0.288 OA
BRANCH  22  33
ATOM     24  C   UNL     1      -0.022   1.372   0.137  0.00  0.00    +0.001 A 
ATOM     25  C   UNL     1       1.164   2.101   0.099  0.00  0.00    +0.001 A 
ATOM     26  C   UNL     1       2.373   1.471   0.072  0.00  0.00    +0.009 A 
ATOM     27  C   UNL     1       2.424   0.072   0.083  0.00  0.00    -0.007 A 
ATOM     28  C   UNL     1       1.220  -0.672   0.121  0.00  0.00    -0.017 A 
ATOM     29  C   UNL     1      -0.009   0.011   0.148  0.00  0.00    +0.008 A 
ATOM     30  C   UNL     1       1.275  -2.076   0.133  0.00  0.00    +0.008 A 
ATOM     31  C   UNL     1       2.472  -2.725   0.107  0.00  0.00    +0.001 A 
ATOM     32  C   UNL     1       3.677  -2.039   0.069  0.00  0.00    +0.012 A 
ATOM     33  C   UNL     1       3.698  -0.646   0.055  0.00  0.00    +0.029 A 
ENDBRANCH  22  33
ENDBRANCH  21  22
ENDBRANCH  20  21
ENDBRANCH  18  20
ENDBRANCH   1  18
BRANCH   3  34
ATOM     34  O   UNL     1      11.992   2.513  -0.972  0.00  0.00    -0.390 OA
ATOM     35  H   UNL     1      12.938   2.573  -1.161  0.00  0.00    +0.210 HD
ENDBRANCH   3  34
TORSDOF 7
