REMARK  Name = ZINC33058982
REMARK  12 active torsions:
REMARK  status: ('A' for Active; 'I' for Inactive)
REMARK    1  A    between atoms: C_1  and  C_2
REMARK    2  A    between atoms: C_5  and  C_37
REMARK    3  A    between atoms: C_6  and  N_8
REMARK    4  A    between atoms: C_9  and  C_11
REMARK    5  A    between atoms: N_14  and  S_17
REMARK    6  A    between atoms: S_17  and  C_20
REMARK    7  A    between atoms: C_21  and  C_36
REMARK    8  A    between atoms: C_24  and  C_25
REMARK    9  A    between atoms: C_26  and  C_27
REMARK   10  A    between atoms: C_28  and  C_35
REMARK   11  A    between atoms: C_30  and  C_34
REMARK   12  A    between atoms: C_32  and  C_33
REMARK                            x       y       z     vdW  Elec       q    Type
REMARK                         _______ _______ _______ _____ _____    ______ ____
ROOT
ATOM      1  S   UNL     1      -6.462   8.909  -1.499  0.00  0.00    +0.066 S 
ATOM      2  O   UNL     1      -7.628   8.316  -2.055  0.00  0.00    -0.153 OA
ATOM      3  O   UNL     1      -6.508  10.098  -0.723  0.00  0.00    -0.153 OA
ENDROOT
BRANCH   1   7
ATOM      4  C   UNL     1      -3.786   5.895   0.281  0.00  0.00    +0.078 C 
ATOM      5  C   UNL     1      -4.650   5.611  -0.950  0.00  0.00    +0.030 C 
ATOM      6  C   UNL     1      -5.997   6.326  -0.799  0.00  0.00    +0.110 C 
ATOM      7  N   UNL     1      -5.750   7.753  -0.552  0.00  0.00    -0.176 NA
ATOM      8  C   UNL     1      -4.859   8.134   0.553  0.00  0.00    +0.110 C 
ATOM      9  C   UNL     1      -3.526   7.400   0.387  0.00  0.00    +0.030 C 
BRANCH   4  11
ATOM     10  N   UNL     1      -2.456   3.823   0.044  0.00  0.00    -0.285 N 
ATOM     11  C   UNL     1      -2.473   5.166   0.152  0.00  0.00    +0.220 C 
ATOM     12  O   UNL     1      -1.432   5.789   0.145  0.00  0.00    -0.275 OA
ATOM     13  H   UNL     1      -3.401   3.266  -0.042  0.00  0.00    +0.155 HD
BRANCH  10  19
ATOM     14  C   UNL     1       2.296   3.633   1.287  0.00  0.00    +0.044 C 
ATOM     15  C   UNL     1       1.083   3.022   0.636  0.00  0.00    -0.049 A 
ATOM     16  C   UNL     1       1.175   1.780   0.033  0.00  0.00    +0.004 A 
ATOM     17  C   UNL     1       0.064   1.216  -0.566  0.00  0.00    +0.005 A 
ATOM     18  C   UNL     1      -1.141   1.893  -0.568  0.00  0.00    -0.029 A 
ATOM     19  C   UNL     1      -1.237   3.137   0.040  0.00  0.00    +0.037 A 
ATOM     20  C   UNL     1      -0.119   3.701   0.641  0.00  0.00    +0.027 A 
ATOM     21  C   UNL     1      -2.349   1.279  -1.227  0.00  0.00    +0.045 C 
ENDBRANCH  10  19
ENDBRANCH   4  11
ENDBRANCH   1   7
BRANCH   1  22
ATOM     22  C   UNL     1      -5.369   9.227  -2.844  0.00  0.00    +0.174 A 
ATOM     23  C   UNL     1      -5.329   8.591  -4.100  0.00  0.00    +0.107 A 
ATOM     24  N   UNL     1      -4.362   9.150  -4.771  0.00  0.00    -0.081 NA
ATOM     25  O   UNL     1      -3.810  10.018  -4.135  0.00  0.00    -0.353 OA
ATOM     26  C   UNL     1      -4.360  10.157  -2.914  0.00  0.00    +0.187 A 
ATOM     27  C   UNL     1      -6.229   7.479  -4.575  0.00  0.00    +0.071 C 
BRANCH  26  28
ATOM     28  C   UNL     1      -3.962  11.107  -1.871  0.00  0.00    +0.051 C 
ATOM     29  C   UNL     1      -2.946  11.962  -2.091  0.00  0.00    +0.012 C 
BRANCH  29  30
ATOM     30  C   UNL     1      -2.546  12.916  -1.043  0.00  0.00    -0.019 A 
ATOM     31  C   UNL     1      -3.507  13.718  -0.419  0.00  0.00    -0.043 A 
ATOM     32  C   UNL     1      -3.125  14.605   0.566  0.00  0.00    +0.007 A 
ATOM     33  C   UNL     1      -1.794  14.710   0.928  0.00  0.00    -0.050 A 
ATOM     34  C   UNL     1      -0.837  13.925   0.311  0.00  0.00    +0.007 A 
ATOM     35  C   UNL     1      -1.203  13.029  -0.671  0.00  0.00    -0.043 A 
ATOM     36  C   UNL     1      -0.159  12.175  -1.343  0.00  0.00    +0.044 C 
ATOM     37  C   UNL     1      -1.385  15.687   2.001  0.00  0.00    +0.044 C 
ATOM     38  C   UNL     1      -4.956  13.608  -0.817  0.00  0.00    +0.044 C 
ENDBRANCH  29  30
ENDBRANCH  26  28
ENDBRANCH   1  22
TORSDOF 6
