REMARK  Name = ZINC38193794
REMARK  5 active torsions:
REMARK  status: ('A' for Active; 'I' for Inactive)
REMARK    1  A    between atoms: C_1  and  C_2
REMARK    2  A    between atoms: C_2  and  C_13
REMARK    3  A    between atoms: C_5  and  C_9
REMARK    4  A    between atoms: C_6  and  C_7
REMARK    5  A    between atoms: C_6  and  C_8
REMARK                            x       y       z     vdW  Elec       q    Type
REMARK                         _______ _______ _______ _____ _____    ______ ____
ROOT
ATOM      1  C   UNL     1      -0.019   1.526   0.010  0.00  0.00    +0.023 C 
ATOM      2  C   UNL     1       0.002  -0.004   0.002  0.00  0.00    +0.076 C 
ATOM      3  C   UNL     1      -1.437  -0.552   0.085  0.00  0.00    +0.020 C 
ATOM      4  C   UNL     1      -1.314  -1.811   0.979  0.00  0.00    +0.031 C 
ATOM      5  C   UNL     1      -0.271  -1.377   2.038  0.00  0.00    +0.133 C 
ATOM      6  C   UNL     1       0.744  -0.528   1.244  0.00  0.00    +0.006 C 
ATOM      7  C   UNL     1       1.228   0.645   2.099  0.00  0.00    +0.014 C 
ATOM      8  C   UNL     1       1.932  -1.393   0.819  0.00  0.00    +0.014 C 
ATOM      9 BR   UNL     1      -1.124  -0.295   3.441  0.00  0.00    -0.072 Br
ENDROOT
BRANCH   5  10
ATOM     10  C   UNL     1       0.405  -2.582   2.638  0.00  0.00    +0.373 C 
ATOM     11  O   UNL     1       1.009  -3.363   1.921  0.00  0.00    -0.245 OA
ATOM     12  O   UNL     1       0.349  -2.777   3.840  0.00  0.00    -0.245 OA
ENDBRANCH   5  10
BRANCH   2  13
ATOM     13  C   UNL     1       0.675  -0.504  -1.250  0.00  0.00    +0.362 C 
ATOM     14  O   UNL     1       1.115   0.290  -2.064  0.00  0.00    -0.246 OA
ATOM     15  O   UNL     1       0.779  -1.702  -1.450  0.00  0.00    -0.246 OA
ENDBRANCH   2  13
TORSDOF 2
