REMARK  Name = ZINC43022539
REMARK  6 active torsions:
REMARK  status: ('A' for Active; 'I' for Inactive)
REMARK    1  A    between atoms: C_1  and  C_2
REMARK    2  A    between atoms: C_2  and  C_4
REMARK    3  A    between atoms: C_2  and  N_21
REMARK    4  A    between atoms: C_4  and  C_6
REMARK    5  A    between atoms: C_4  and  O_13
REMARK    6  A    between atoms: O_13  and  C_14
REMARK                            x       y       z     vdW  Elec       q    Type
REMARK                         _______ _______ _______ _____ _____    ______ ____
ROOT
ATOM      1  C   UNL     1       0.756  -0.523   1.255  0.00  0.00    +0.189 C 
ENDROOT
BRANCH   1   2
ATOM      2  C   UNL     1       2.233  -0.224   1.269  0.00  0.00    -0.008 A 
ATOM      3  C   UNL     1       2.690   0.976   1.783  0.00  0.00    +0.007 A 
ATOM      4  C   UNL     1       4.044   1.251   1.797  0.00  0.00    +0.001 A 
ATOM      5  C   UNL     1       4.942   0.327   1.297  0.00  0.00    +0.015 A 
ATOM      6  C   UNL     1       4.486  -0.874   0.783  0.00  0.00    +0.018 A 
ATOM      7  C   UNL     1       3.131  -1.151   0.775  0.00  0.00    +0.022 A 
ATOM      8 BR   UNL     1       5.714  -2.138   0.099  0.00  0.00    -0.050 Br
ENDBRANCH   1   2
BRANCH   1  10
ATOM      9  C   UNL     1       0.229   1.605   0.057  0.00  0.00    -0.010 C 
ATOM     10  C   UNL     1       0.126   0.080  -0.002  0.00  0.00    -0.032 C 
BRANCH  10  11
ATOM     11  N   UNL     1      -1.288  -0.313  -0.078  0.00  0.00    +0.382 N 
ATOM     12  H   UNL     1      -1.775   0.025   0.738  0.00  0.00    -0.089 HD
ATOM     13  H   UNL     1      -1.704   0.085  -0.907  0.00  0.00    -0.089 HD
ATOM     14  H   UNL     1      -1.356  -1.319  -0.117  0.00  0.00    -0.089 HD
ENDBRANCH  10  11
ENDBRANCH   1  10
BRANCH   1  15
ATOM     15  O   UNL     1       0.143   0.044   2.414  0.00  0.00    -0.486 OA
BRANCH  15  16
ATOM     16  C   UNL     1      -0.936  -0.607   2.923  0.00  0.00    +0.121 A 
ATOM     17  C   UNL     1      -1.342  -1.814   2.373  0.00  0.00    +0.047 A 
ATOM     18  C   UNL     1      -2.439  -2.474   2.892  0.00  0.00    +0.019 A 
ATOM     19  C   UNL     1      -3.133  -1.932   3.959  0.00  0.00    +0.018 A 
ATOM     20  C   UNL     1      -2.730  -0.728   4.509  0.00  0.00    +0.019 A 
ATOM     21  C   UNL     1      -1.629  -0.068   3.997  0.00  0.00    +0.047 A 
ATOM     22 BR   UNL     1      -4.634  -2.837   4.668  0.00  0.00    -0.050 Br
ENDBRANCH  15  16
ENDBRANCH   1  15
TORSDOF 5
