REMARK  Name = ZINC39863944
REMARK  4 active torsions:
REMARK  status: ('A' for Active; 'I' for Inactive)
REMARK    1  A    between atoms: C_2  and  C_3
REMARK    2  A    between atoms: C_3  and  N_4
REMARK    3  A    between atoms: C_8  and  C_9
REMARK    4  A    between atoms: N_17  and  C_18
REMARK                            x       y       z     vdW  Elec       q    Type
REMARK                         _______ _______ _______ _____ _____    ______ ____
ROOT
ATOM      1  N   UNL     1       1.489  -1.729   1.075  0.00  0.00    -0.242 N 
ATOM      2  C   UNL     1       2.032  -1.353   2.221  0.00  0.00    +0.259 C 
ATOM      3  O   UNL     1       2.644  -0.305   2.321  0.00  0.00    -0.269 OA
ATOM      4  C   UNL     1       1.863  -2.257   3.369  0.00  0.00    +0.081 C 
ATOM      5  C   UNL     1       2.311  -2.120   4.650  0.00  0.00    +0.066 C 
ATOM      6  S   UNL     1       0.913  -3.580   2.636  0.00  0.00    -0.049 S 
ATOM      7  C   UNL     1       0.795  -2.916   0.983  0.00  0.00    +0.169 C 
ATOM      8  N   UNL     1       0.195  -3.433  -0.066  0.00  0.00    -0.222 NA
ENDROOT
BRANCH   8   9
ATOM      9  C   UNL     1      -0.450  -4.635   0.038  0.00  0.00    +0.103 A 
ATOM     10  C   UNL     1      -1.208  -4.941   1.174  0.00  0.00    +0.032 A 
ATOM     11  C   UNL     1      -1.841  -6.170   1.230  0.00  0.00    +0.022 A 
ATOM     12  C   UNL     1      -1.705  -7.051   0.172  0.00  0.00    +0.112 A 
ATOM     13  N   UNL     1      -0.984  -6.738  -0.887  0.00  0.00    -0.241 NA
ATOM     14  C   UNL     1      -0.367  -5.578  -0.991  0.00  0.00    +0.154 A 
ATOM     15 CL   UNL     1       0.562  -5.221  -2.414  0.00  0.00    -0.060 Cl
ENDBRANCH   8   9
BRANCH   5  16
ATOM     16  C   UNL     1       2.932  -0.918   5.058  0.00  0.00    +0.131 A 
ATOM     17  C   UNL     1       3.506  -0.675   6.290  0.00  0.00    +0.050 A 
ATOM     18  C   UNL     1       3.996   0.639   6.251  0.00  0.00    +0.057 A 
ATOM     19  C   UNL     1       3.710   1.136   5.026  0.00  0.00    +0.171 A 
ATOM     20  O   UNL     1       3.075   0.197   4.310  0.00  0.00    -0.449 OA
ATOM     21 BR   UNL     1       4.141   2.875   4.419  0.00  0.00    -0.008 Br
ENDBRANCH   5  16
BRANCH   1  22
ATOM     22  C   UNL     1       1.622  -0.872  -0.106  0.00  0.00    +0.142 C 
BRANCH  22  24
ATOM     23  C   UNL     1       0.696   1.384  -0.229  0.00  0.00    +0.005 C 
ATOM     24  C   UNL     1       0.468   0.096  -0.157  0.00  0.00    -0.015 C 
ENDBRANCH  22  24
ENDBRANCH   1  22
TORSDOF 4
