REMARK  Name = ZINC17718196
REMARK  11 active torsions:
REMARK  status: ('A' for Active; 'I' for Inactive)
REMARK    1  A    between atoms: C_1  and  C_2
REMARK    2  A    between atoms: C_2  and  C_4
REMARK    3  A    between atoms: C_2  and  N_57
REMARK    4  A    between atoms: C_7  and  S_16
REMARK    5  A    between atoms: N_8  and  C_9
REMARK    6  A    between atoms: S_16  and  C_17
REMARK    7  A    between atoms: C_17  and  C_19
REMARK    8  A    between atoms: C_17  and  C_25
REMARK    9  A    between atoms: N_27  and  C_28
REMARK   10  A    between atoms: C_31  and  N_57
REMARK   11  A    between atoms: C_32  and  N_57
REMARK                            x       y       z     vdW  Elec       q    Type
REMARK                         _______ _______ _______ _____ _____    ______ ____
ROOT
ATOM      1  C   UNL     1      -1.119   2.211   0.019  0.00  0.00    +0.125 A 
ATOM      2  N   UNL     1      -0.693   3.443   0.027  0.00  0.00    -0.135 NA
ATOM      3  N   UNL     1       0.592   3.466   0.015  0.00  0.00    -0.122 NA
ATOM      4  C   UNL     1       1.062   2.240   0.004  0.00  0.00    +0.197 A 
ATOM      5  N   UNL     1      -0.017   1.399   0.010  0.00  0.00    -0.275 N 
ENDROOT
BRANCH   5   6
ATOM      6  C   UNL     1       0.002  -0.004   0.002  0.00  0.00    +0.050 A 
ATOM      7  C   UNL     1      -0.511  -0.700  -1.084  0.00  0.00    +0.028 A 
ATOM      8  C   UNL     1      -0.487  -2.081  -1.091  0.00  0.00    +0.022 A 
ATOM      9  C   UNL     1       0.039  -2.771  -0.013  0.00  0.00    +0.041 A 
ATOM     10  C   UNL     1       0.546  -2.079   1.073  0.00  0.00    +0.022 A 
ATOM     11  C   UNL     1       0.529  -0.698   1.083  0.00  0.00    +0.028 A 
ATOM     12 CL   UNL     1       0.062  -4.507  -0.022  0.00  0.00    -0.084 Cl
ENDBRANCH   5   6
BRANCH   1  14
ATOM     13  C   UNL     1      -3.151   1.962   1.419  0.00  0.00    -0.005 C 
ATOM     14  C   UNL     1      -2.559   1.764   0.022  0.00  0.00    -0.003 C 
BRANCH  14  17
ATOM     15  C   UNL     1      -4.702   2.074  -1.060  0.00  0.00    -0.096 C 
ATOM     16  C   UNL     1      -3.291   3.987  -0.601  0.00  0.00    -0.096 C 
ATOM     17  N   UNL     1      -3.308   2.557  -0.976  0.00  0.00    +0.382 N 
ATOM     18  H   UNL     1      -2.861   2.447  -1.893  0.00  0.00    -0.082 HD
ENDBRANCH  14  17
ENDBRANCH   1  14
BRANCH   4  19
ATOM     19  S   UNL     1       2.759   1.768  -0.015  0.00  0.00    -0.068 S 
BRANCH  19  20
ATOM     20  C   UNL     1       3.539   3.401  -0.013  0.00  0.00    +0.170 C 
BRANCH  20  21
ATOM     21  C   UNL     1       3.227   4.106   1.281  0.00  0.00    -0.025 A 
ATOM     22  C   UNL     1       3.612   3.546   2.484  0.00  0.00    +0.005 A 
ATOM     23  C   UNL     1       3.329   4.194   3.671  0.00  0.00    +0.000 A 
ATOM     24  C   UNL     1       2.652   5.399   3.656  0.00  0.00    +0.000 A 
ATOM     25  C   UNL     1       2.262   5.958   2.453  0.00  0.00    +0.000 A 
ATOM     26  C   UNL     1       2.549   5.311   1.266  0.00  0.00    +0.005 A 
ENDBRANCH  20  21
BRANCH  20  27
ATOM     27  C   UNL     1       5.032   3.244  -0.152  0.00  0.00    +0.231 C 
ATOM     28  O   UNL     1       5.558   2.185   0.116  0.00  0.00    -0.274 OA
ATOM     29  N   UNL     1       5.782   4.282  -0.575  0.00  0.00    -0.311 N 
ATOM     30  H   UNL     1       5.361   5.129  -0.790  0.00  0.00    +0.149 HD
BRANCH  29  31
ATOM     31  C   UNL     1       7.232   4.130  -0.710  0.00  0.00    +0.073 C 
ATOM     32  C   UNL     1       8.113   5.269  -0.193  0.00  0.00    +0.024 C 
ATOM     33  C   UNL     1       7.950   5.051  -1.698  0.00  0.00    +0.024 C 
ENDBRANCH  29  31
ENDBRANCH  20  27
ENDBRANCH  19  20
ENDBRANCH   4  19
TORSDOF 8
