REMARK  Name = ZINC40035724
REMARK  7 active torsions:
REMARK  status: ('A' for Active; 'I' for Inactive)
REMARK    1  A    between atoms: C_1  and  C_2
REMARK    2  A    between atoms: C_2  and  C_3
REMARK    3  A    between atoms: C_3  and  C_34
REMARK    4  A    between atoms: N_15  and  C_31
REMARK    5  A    between atoms: N_18  and  N_19
REMARK    6  A    between atoms: C_20  and  C_21
REMARK    7  A    between atoms: C_31  and  C_32
REMARK                            x       y       z     vdW  Elec       q    Type
REMARK                         _______ _______ _______ _____ _____    ______ ____
ROOT
ATOM      1  C   UNL     1       0.742  -0.511   1.242  0.00  0.00    +0.004 C 
ATOM      2  C   UNL     1       0.423  -1.991   1.047  0.00  0.00    +0.047 C 
ATOM      3  C   UNL     1       1.272  -2.575  -0.050  0.00  0.00    -0.037 A 
ATOM      4  C   UNL     1       0.760  -3.543  -0.889  0.00  0.00    +0.004 A 
ATOM      5  C   UNL     1       1.549  -4.078  -1.892  0.00  0.00    +0.000 A 
ATOM      6  C   UNL     1       2.853  -3.649  -2.062  0.00  0.00    +0.001 A 
ATOM      7  C   UNL     1       3.377  -2.680  -1.229  0.00  0.00    +0.010 A 
ATOM      8  C   UNL     1       2.586  -2.138  -0.220  0.00  0.00    +0.004 A 
ATOM      9  C   UNL     1       3.116  -1.090   0.682  0.00  0.00    +0.084 A 
ATOM     10  C   UNL     1       2.222  -0.304   1.394  0.00  0.00    +0.049 A 
ATOM     11  C   UNL     1       2.726   0.681   2.254  0.00  0.00    +0.260 A 
ATOM     12  O   UNL     1       1.971   1.391   2.899  0.00  0.00    -0.267 OA
ATOM     13  N   UNL     1       4.065   0.829   2.353  0.00  0.00    -0.276 N 
ATOM     14  C   UNL     1       4.899   0.033   1.627  0.00  0.00    +0.219 A 
ATOM     15  N   UNL     1       4.432  -0.896   0.818  0.00  0.00    -0.214 NA
ATOM     16  N   UNL     1       6.254   0.204   1.740  0.00  0.00    -0.206 N 
ATOM     17  C   UNL     1       0.030  -0.003   2.497  0.00  0.00    +0.016 C 
ATOM     18  H   UNL     1       6.609   0.885   2.332  0.00  0.00    +0.177 HD
ENDROOT
BRANCH   1  20
ATOM     19  C   UNL     1       0.538   1.764   0.230  0.00  0.00    +0.005 C 
ATOM     20  C   UNL     1       0.246   0.276   0.027  0.00  0.00    +0.008 C 
ENDBRANCH   1  20
BRANCH  16  21
ATOM     21  N   UNL     1       7.126  -0.605   0.999  0.00  0.00    -0.188 NA
ATOM     22  C   UNL     1       8.414  -0.443   1.107  0.00  0.00    +0.137 C 
BRANCH  22  23
ATOM     23  C   UNL     1       9.296  -1.262   0.358  0.00  0.00    +0.010 C 
ATOM     24  C   UNL     1       8.803  -2.210  -0.475  0.00  0.00    +0.020 C 
ATOM     25  C   UNL     1       9.764  -3.046  -1.213  0.00  0.00    +0.017 A 
ATOM     26  C   UNL     1       9.374  -3.802  -2.317  0.00  0.00    +0.011 A 
ATOM     27  C   UNL     1      10.310  -4.571  -2.980  0.00  0.00    +0.001 A 
ATOM     28  C   UNL     1      11.626  -4.593  -2.552  0.00  0.00    +0.004 A 
ATOM     29  C   UNL     1      12.024  -3.846  -1.457  0.00  0.00    +0.046 A 
ATOM     30  C   UNL     1      11.101  -3.070  -0.781  0.00  0.00    +0.128 A 
ATOM     31  O   UNL     1      11.459  -2.327   0.296  0.00  0.00    -0.487 OA
ATOM     32  C   UNL     1      10.786  -1.077   0.479  0.00  0.00    +0.266 C 
ENDBRANCH  22  23
ENDBRANCH  16  21
BRANCH  13  33
ATOM     33  C   UNL     1       4.622   1.848   3.246  0.00  0.00    +0.155 C 
BRANCH  33  34
ATOM     34  C   UNL     1       4.838   1.254   4.614  0.00  0.00    -0.013 C 
ATOM     35  C   UNL     1       6.021   1.312   5.174  0.00  0.00    +0.005 C 
ENDBRANCH  33  34
ENDBRANCH  13  33
TORSDOF 5
