REMARK  Name = ZINC13044994
REMARK  7 active torsions:
REMARK  status: ('A' for Active; 'I' for Inactive)
REMARK    1  A    between atoms: C_4  and  C_7
REMARK    2  A    between atoms: C_7  and  N_8
REMARK    3  A    between atoms: C_14  and  C_31
REMARK    4  A    between atoms: C_18  and  S_19
REMARK    5  A    between atoms: S_19  and  C_20
REMARK    6  A    between atoms: C_20  and  C_21
REMARK    7  A    between atoms: C_24  and  C_26
REMARK                            x       y       z     vdW  Elec       q    Type
REMARK                         _______ _______ _______ _____ _____    ______ ____
ROOT
ATOM      1  N   UNL     1      -0.016   1.349   0.009  0.00  0.00    -0.283 N 
ATOM      2  C   UNL     1       0.002  -0.004   0.002  0.00  0.00    +0.263 A 
ATOM      3  O   UNL     1      -1.030  -0.649   0.009  0.00  0.00    -0.267 OA
ATOM      4  C   UNL     1       1.316  -0.667  -0.014  0.00  0.00    +0.065 A 
ATOM      5  C   UNL     1       1.434  -2.057  -0.022  0.00  0.00    +0.016 A 
ATOM      6  C   UNL     1       2.671  -2.634  -0.036  0.00  0.00    +0.016 A 
ATOM      7  C   UNL     1       3.827  -1.843  -0.043  0.00  0.00    +0.065 A 
ATOM      8  C   UNL     1       3.733  -0.457  -0.035  0.00  0.00    +0.043 A 
ATOM      9  C   UNL     1       2.472   0.145  -0.021  0.00  0.00    +0.080 A 
ATOM     10  N   UNL     1       2.332   1.492  -0.012  0.00  0.00    -0.223 NA
ATOM     11  C   UNL     1       1.150   2.058   0.002  0.00  0.00    +0.173 A 
ENDROOT
BRANCH   7  12
ATOM     12  C   UNL     1       5.159  -2.488  -0.059  0.00  0.00    +0.387 C 
ATOM     13  O   UNL     1       6.164  -1.807  -0.065  0.00  0.00    -0.241 OA
ATOM     14  O   UNL     1       5.256  -3.832  -0.067  0.00  0.00    -0.241 OA
ENDBRANCH   7  12
BRANCH   1  15
ATOM     15  C   UNL     1      -1.298   2.058   0.019  0.00  0.00    +0.162 C 
BRANCH  15  19
ATOM     16  C   UNL     1      -2.526   2.726   4.056  0.00  0.00    +0.000 A 
ATOM     17  C   UNL     1      -1.747   3.665   3.406  0.00  0.00    +0.000 A 
ATOM     18  C   UNL     1      -1.350   3.449   2.100  0.00  0.00    +0.005 A 
ATOM     19  C   UNL     1      -1.731   2.293   1.444  0.00  0.00    -0.028 A 
ATOM     20  C   UNL     1      -2.514   1.357   2.092  0.00  0.00    +0.005 A 
ATOM     21  C   UNL     1      -2.907   1.570   3.400  0.00  0.00    +0.000 A 
ENDBRANCH  15  19
ENDBRANCH   1  15
BRANCH  11  22
ATOM     22  S   UNL     1       1.063   3.818   0.012  0.00  0.00    -0.081 S 
BRANCH  22  23
ATOM     23  C   UNL     1       2.828   4.221  -0.003  0.00  0.00    +0.136 C 
BRANCH  23  24
ATOM     24  C   UNL     1       3.002   5.718   0.003  0.00  0.00    +0.090 A 
ATOM     25  C   UNL     1       3.088   6.508  -1.081  0.00  0.00    +0.221 A 
ATOM     26  O   UNL     1       3.234   7.776  -0.643  0.00  0.00    -0.443 OA
ATOM     27  C   UNL     1       3.245   7.745   0.702  0.00  0.00    +0.234 A 
ATOM     28  N   UNL     1       3.103   6.497   1.091  0.00  0.00    -0.213 NA
BRANCH  27  29
ATOM     29  C   UNL     1       3.390   8.910   1.587  0.00  0.00    +0.074 A 
ATOM     30  C   UNL     1       3.541  10.243   1.255  0.00  0.00    +0.021 A 
ATOM     31  C   UNL     1       3.659  11.162   2.273  0.00  0.00    +0.008 A 
ATOM     32  C   UNL     1       3.624  10.734   3.562  0.00  0.00    +0.046 A 
ATOM     33  S   UNL     1       3.409   8.972   3.372  0.00  0.00    -0.092 S 
ENDBRANCH  27  29
ENDBRANCH  23  24
ENDBRANCH  22  23
ENDBRANCH  11  22
TORSDOF 7
