REMARK  Name = ZINC36206525
REMARK  15 active torsions:
REMARK  status: ('A' for Active; 'I' for Inactive)
REMARK    1  A    between atoms: C_1  and  C_2
REMARK    2  A    between atoms: C_5  and  C_37
REMARK    3  A    between atoms: C_6  and  C_8
REMARK    4  A    between atoms: C_17  and  C_19
REMARK    5  A    between atoms: C_19  and  N_20
REMARK    6  A    between atoms: N_20  and  C_21
REMARK    7  A    between atoms: N_20  and  C_31
REMARK    8  A    between atoms: C_21  and  C_22
REMARK    9  A    between atoms: C_22  and  C_24
REMARK   10  A    between atoms: C_22  and  O_30
REMARK   11  A    between atoms: C_24  and  O_25
REMARK   12  A    between atoms: O_25  and  C_26
REMARK   13  A    between atoms: C_26  and  C_27
REMARK   14  A    between atoms: C_27  and  C_28
REMARK   15  A    between atoms: C_27  and  C_29
REMARK                            x       y       z     vdW  Elec       q    Type
REMARK                         _______ _______ _______ _____ _____    ______ ____
ROOT
ATOM      1  C   UNL     1      -0.586  -6.953   0.718  0.00  0.00    +0.004 A 
ATOM      2  C   UNL     1      -1.627  -7.527   1.367  0.00  0.00    +0.056 A 
ATOM      3  S   UNL     1      -0.978  -7.836   2.998  0.00  0.00    -0.076 S 
ATOM      4  C   UNL     1       0.661  -7.194   2.773  0.00  0.00    +0.116 A 
ATOM      5  C   UNL     1       0.668  -6.761   1.437  0.00  0.00    +0.080 A 
ATOM      6  C   UNL     1       1.898  -6.190   0.977  0.00  0.00    +0.260 A 
ATOM      7  O   UNL     1       2.001  -5.781  -0.166  0.00  0.00    -0.267 OA
ATOM      8  N   UNL     1       2.939  -6.112   1.827  0.00  0.00    -0.312 N 
ATOM      9  H   UNL     1       3.775  -5.727   1.520  0.00  0.00    +0.170 HD
ATOM     10  C   UNL     1       2.842  -6.563   3.104  0.00  0.00    +0.094 A 
ATOM     11  N   UNL     1       1.731  -7.080   3.555  0.00  0.00    -0.229 NA
ENDROOT
BRANCH   1  17
ATOM     12  C   UNL     1      -2.668  -4.025  -2.747  0.00  0.00    +0.044 C 
ATOM     13  C   UNL     1      -1.716  -5.129  -2.368  0.00  0.00    -0.050 A 
ATOM     14  C   UNL     1      -0.960  -5.755  -3.343  0.00  0.00    +0.003 A 
ATOM     15  C   UNL     1      -0.084  -6.769  -3.002  0.00  0.00    +0.004 A 
ATOM     16  C   UNL     1       0.042  -7.162  -1.685  0.00  0.00    -0.043 A 
ATOM     17  C   UNL     1      -0.716  -6.535  -0.698  0.00  0.00    -0.013 A 
ATOM     18  C   UNL     1      -1.594  -5.509  -1.047  0.00  0.00    +0.012 A 
ATOM     19  C   UNL     1       0.997  -8.268  -1.316  0.00  0.00    +0.044 C 
ENDBRANCH   1  17
BRANCH  10  20
ATOM     20  C   UNL     1       4.035  -6.455   4.019  0.00  0.00    -0.003 C 
BRANCH  20  21
ATOM     21  N   UNL     1       3.640  -6.832   5.383  0.00  0.00    +0.388 N 
ATOM     22  H   UNL     1       2.967  -7.583   5.344  0.00  0.00    -0.081 HD
BRANCH  21  23
ATOM     23  C   UNL     1       3.041  -5.673   6.057  0.00  0.00    -0.068 C 
ATOM     24  C   UNL     1       1.872  -5.146   5.223  0.00  0.00    -0.015 C 
ATOM     25  C   UNL     1       1.247  -3.938   5.925  0.00  0.00    -0.002 C 
ATOM     26  C   UNL     1       2.300  -2.838   6.080  0.00  0.00    -0.000 C 
ATOM     27  C   UNL     1       3.468  -3.365   6.915  0.00  0.00    -0.002 C 
ATOM     28  C   UNL     1       4.093  -4.573   6.213  0.00  0.00    -0.015 C 
ENDBRANCH  21  23
BRANCH  21  29
ATOM     29  C   UNL     1       4.825  -7.275   6.131  0.00  0.00    -0.044 C 
BRANCH  29  30
ATOM     30  C   UNL     1       4.391  -7.846   7.482  0.00  0.00    +0.124 C 
BRANCH  30  31
ATOM     31  O   UNL     1       3.906  -6.789   8.313  0.00  0.00    -0.391 OA
ATOM     32  H   UNL     1       4.539  -6.070   8.444  0.00  0.00    +0.210 HD
ENDBRANCH  30  31
BRANCH  30  33
ATOM     33  C   UNL     1       5.586  -8.519   8.159  0.00  0.00    +0.189 C 
BRANCH  33  34
ATOM     34  O   UNL     1       5.156  -9.153   9.365  0.00  0.00    -0.377 OA
BRANCH  34  35
ATOM     35  C   UNL     1       6.202  -9.816  10.079  0.00  0.00    +0.163 C 
BRANCH  35  36
ATOM     36  C   UNL     1       5.630 -10.455  11.345  0.00  0.00    +0.009 C 
ATOM     37  C   UNL     1       4.642 -11.558  10.959  0.00  0.00    +0.009 C 
ATOM     38  C   UNL     1       6.768 -11.057  12.172  0.00  0.00    +0.009 C 
ENDBRANCH  35  36
ENDBRANCH  34  35
ENDBRANCH  33  34
ENDBRANCH  30  33
ENDBRANCH  29  30
ENDBRANCH  21  29
ENDBRANCH  20  21
ENDBRANCH  10  20
TORSDOF 11
