REMARK  Name = ZINC43112005
REMARK  6 active torsions:
REMARK  status: ('A' for Active; 'I' for Inactive)
REMARK    1  A    between atoms: C_1  and  C_2
REMARK    2  A    between atoms: C_2  and  C_4
REMARK    3  A    between atoms: C_2  and  N_23
REMARK    4  A    between atoms: C_4  and  C_6
REMARK    5  A    between atoms: C_4  and  O_11
REMARK    6  A    between atoms: O_11  and  C_12
REMARK                            x       y       z     vdW  Elec       q    Type
REMARK                         _______ _______ _______ _____ _____    ______ ____
ROOT
ATOM      1  C   UNL     1       0.764  -0.511   1.272  0.00  0.00    +0.196 C 
ENDROOT
BRANCH   1   2
ATOM      2  C   UNL     1       0.186  -0.043   2.583  0.00  0.00    +0.028 A 
ATOM      3  C   UNL     1       0.525   1.037   3.328  0.00  0.00    +0.015 A 
ATOM      4  C   UNL     1      -0.150   1.274   4.511  0.00  0.00    +0.008 A 
ATOM      5  C   UNL     1      -1.131   0.419   4.891  0.00  0.00    +0.045 A 
ATOM      6  S   UNL     1      -1.128  -0.764   3.553  0.00  0.00    -0.098 S 
ENDBRANCH   1   2
BRANCH   1   8
ATOM      7  C   UNL     1      -0.080   1.561   0.160  0.00  0.00    -0.010 C 
ATOM      8  C   UNL     1      -0.082   0.032   0.119  0.00  0.00    -0.032 C 
BRANCH   8   9
ATOM      9  N   UNL     1       0.481  -0.425  -1.159  0.00  0.00    +0.382 N 
ATOM     10  H   UNL     1       1.428  -0.087  -1.248  0.00  0.00    -0.089 HD
ATOM     11  H   UNL     1       0.479  -1.433  -1.186  0.00  0.00    -0.089 HD
ATOM     12  H   UNL     1      -0.077  -0.067  -1.919  0.00  0.00    -0.089 HD
ENDBRANCH   8   9
ENDBRANCH   1   8
BRANCH   1  13
ATOM     13  O   UNL     1       0.761  -1.940   1.234  0.00  0.00    -0.484 OA
BRANCH  13  14
ATOM     14  C   UNL     1       1.755  -2.539   0.526  0.00  0.00    +0.136 A 
ATOM     15  C   UNL     1       2.754  -1.756  -0.060  0.00  0.00    +0.047 A 
ATOM     16  C   UNL     1       3.761  -2.327  -0.774  0.00  0.00    +0.012 A 
ATOM     17  C   UNL     1       3.803  -3.724  -0.927  0.00  0.00    -0.017 A 
ATOM     18  C   UNL     1       4.830  -4.347  -1.657  0.00  0.00    +0.008 A 
ATOM     19  C   UNL     1       4.840  -5.702  -1.785  0.00  0.00    +0.001 A 
ATOM     20  C   UNL     1       3.845  -6.485  -1.202  0.00  0.00    +0.001 A 
ATOM     21  C   UNL     1       2.835  -5.917  -0.487  0.00  0.00    +0.010 A 
ATOM     22  C   UNL     1       2.792  -4.521  -0.333  0.00  0.00    -0.000 A 
ATOM     23  C   UNL     1       1.768  -3.900   0.402  0.00  0.00    +0.067 A 
ATOM     24 BR   UNL     1       0.412  -4.942   1.211  0.00  0.00    -0.046 Br
ENDBRANCH  13  14
ENDBRANCH   1  13
TORSDOF 5
