REMARK  Name = ZINC13065226
REMARK  12 active torsions:
REMARK  status: ('A' for Active; 'I' for Inactive)
REMARK    1  A    between atoms: C_1  and  C_2
REMARK    2  A    between atoms: C_2  and  C_3
REMARK    3  A    between atoms: C_3  and  C_5
REMARK    4  A    between atoms: C_3  and  N_69
REMARK    5  A    between atoms: N_9  and  C_10
REMARK    6  A    between atoms: C_10  and  C_11
REMARK    7  A    between atoms: C_17  and  C_18
REMARK    8  A    between atoms: C_17  and  N_69
REMARK    9  A    between atoms: C_25  and  C_26
REMARK   10  A    between atoms: C_25  and  N_69
REMARK   11  A    between atoms: C_29  and  C_39
REMARK   12  A    between atoms: C_32  and  C_38
REMARK                            x       y       z     vdW  Elec       q    Type
REMARK                         _______ _______ _______ _____ _____    ______ ____
ROOT
ATOM      1  N   UNL     1      -1.294   0.361  -1.253  0.00  0.00    +0.392 N 
ATOM      2  H   UNL     1      -2.218   0.791  -1.131  0.00  0.00    -0.080 HD
ENDROOT
BRANCH   1   3
ATOM      3  C   UNL     1      -0.426   0.764  -0.126  0.00  0.00    +0.003 C 
BRANCH   3   4
ATOM      4  C   UNL     1      -1.258   0.811   1.129  0.00  0.00    +0.138 A 
ATOM      5  N   UNL     1      -2.496   0.403   1.264  0.00  0.00    -0.115 NA
ATOM      6  N   UNL     1      -2.853   0.609   2.484  0.00  0.00    -0.023 NA
ATOM      7  N   UNL     1      -1.877   1.147   3.130  0.00  0.00    -0.044 NA
ATOM      8  N   UNL     1      -0.875   1.288   2.329  0.00  0.00    -0.226 N 
BRANCH   8   9
ATOM      9  C   UNL     1       0.432   1.859   2.662  0.00  0.00    +0.182 C 
BRANCH   9  10
ATOM     10  C   UNL     1       0.408   3.345   2.414  0.00  0.00    -0.026 A 
ATOM     11  C   UNL     1       0.769   3.845   1.177  0.00  0.00    +0.005 A 
ATOM     12  C   UNL     1       0.743   5.208   0.949  0.00  0.00    +0.000 A 
ATOM     13  C   UNL     1       0.366   6.072   1.960  0.00  0.00    +0.000 A 
ATOM     14  C   UNL     1       0.010   5.572   3.199  0.00  0.00    +0.000 A 
ATOM     15  C   UNL     1       0.031   4.209   3.426  0.00  0.00    +0.005 A 
ENDBRANCH   9  10
ENDBRANCH   8   9
ENDBRANCH   3   4
BRANCH   3  17
ATOM     16  C   UNL     1       1.501  -0.360  -1.252  0.00  0.00    +0.002 C 
ATOM     17  C   UNL     1       0.714  -0.241   0.055  0.00  0.00    -0.011 C 
ENDBRANCH   3  17
ENDBRANCH   1   3
BRANCH   1  18
ATOM     18  C   UNL     1      -0.712   0.827  -2.530  0.00  0.00    -0.042 C 
BRANCH  18  19
ATOM     19  C   UNL     1      -1.790   0.815  -3.584  0.00  0.00    -0.064 A 
ATOM     20  C   UNL     1      -1.851  -0.222  -4.496  0.00  0.00    +0.004 A 
ATOM     21  C   UNL     1      -2.841  -0.237  -5.460  0.00  0.00    +0.038 A 
ATOM     22  C   UNL     1      -3.765   0.793  -5.518  0.00  0.00    +0.123 A 
ATOM     23  C   UNL     1      -3.699   1.833  -4.607  0.00  0.00    +0.038 A 
ATOM     24  C   UNL     1      -2.712   1.843  -3.641  0.00  0.00    +0.004 A 
ATOM     25  F   UNL     1      -4.731   0.782  -6.463  0.00  0.00    -0.205 F 
ENDBRANCH  18  19
ENDBRANCH   1  18
BRANCH   1  26
ATOM     26  C   UNL     1      -1.446  -1.109  -1.273  0.00  0.00    -0.036 C 
BRANCH  26  27
ATOM     27  C   UNL     1      -2.594  -1.485  -0.372  0.00  0.00    +0.001 A 
ATOM     28  C   UNL     1      -3.847  -1.588  -0.881  0.00  0.00    +0.017 A 
ATOM     29  C   UNL     1      -4.939  -1.960   0.019  0.00  0.00    +0.002 A 
ATOM     30  C   UNL     1      -6.252  -2.087  -0.448  0.00  0.00    -0.041 A 
ATOM     31  C   UNL     1      -7.249  -2.432   0.419  0.00  0.00    +0.004 A 
ATOM     32  C   UNL     1      -6.973  -2.656   1.761  0.00  0.00    +0.005 A 
ATOM     33  C   UNL     1      -5.688  -2.536   2.244  0.00  0.00    -0.026 A 
ATOM     34  C   UNL     1      -4.655  -2.187   1.379  0.00  0.00    +0.052 A 
ATOM     35  N   UNL     1      -3.360  -2.061   1.835  0.00  0.00    -0.322 N 
ATOM     36  H   UNL     1      -3.166  -2.218   2.772  0.00  0.00    +0.169 HD
ATOM     37  C   UNL     1      -2.362  -1.723   0.999  0.00  0.00    +0.251 A 
ATOM     38  O   UNL     1      -1.230  -1.620   1.437  0.00  0.00    -0.268 OA
ATOM     39  C   UNL     1      -5.402  -2.783   3.703  0.00  0.00    +0.046 C 
ATOM     40  C   UNL     1      -6.563  -1.846  -1.903  0.00  0.00    +0.044 C 
ENDBRANCH  26  27
ENDBRANCH   1  26
TORSDOF 9
