REMARK  Name = ZINC09291057
REMARK  7 active torsions:
REMARK  status: ('A' for Active; 'I' for Inactive)
REMARK    1  A    between atoms: C_4  and  C_7
REMARK    2  A    between atoms: C_7  and  O_8
REMARK    3  A    between atoms: O_8  and  C_9
REMARK    4  A    between atoms: C_12  and  C_15
REMARK    5  A    between atoms: C_22  and  N_33
REMARK    6  A    between atoms: C_23  and  C_31
REMARK    7  A    between atoms: C_24  and  C_26
REMARK                            x       y       z     vdW  Elec       q    Type
REMARK                         _______ _______ _______ _____ _____    ______ ____
ROOT
ATOM      1  C   UNL     1       9.005  -3.667   1.975  0.00  0.00    +0.100 A 
ATOM      2  C   UNL     1       9.933  -3.452   2.998  0.00  0.00    +0.054 A 
ATOM      3  C   UNL     1      10.976  -4.312   2.809  0.00  0.00    +0.223 A 
ATOM      4  N   UNL     1      10.713  -5.040   1.704  0.00  0.00    -0.246 N 
ATOM      5  H   UNL     1      11.280  -5.731   1.328  0.00  0.00    +0.192 HD
ATOM      6  N   UNL     1       9.471  -4.626   1.198  0.00  0.00    -0.171 NA
ATOM      7  O   UNL     1      12.048  -4.357   3.640  0.00  0.00    -0.423 OA
ATOM      8  C   UNL     1      11.946  -3.722   4.825  0.00  0.00    +0.200 C 
ATOM      9  C   UNL     1      10.966  -2.840   5.125  0.00  0.00    +0.098 C 
ATOM     10  C   UNL     1       9.881  -2.474   4.144  0.00  0.00    +0.102 C 
ENDROOT
BRANCH   1  14
ATOM     11  C   UNL     1       5.319  -1.605   1.466  0.00  0.00    +0.121 A 
ATOM     12  C   UNL     1       6.047  -2.006   0.355  0.00  0.00    +0.046 A 
ATOM     13  C   UNL     1       7.242  -2.675   0.517  0.00  0.00    +0.013 A 
ATOM     14  C   UNL     1       7.719  -2.947   1.798  0.00  0.00    +0.003 A 
ATOM     15  C   UNL     1       6.986  -2.542   2.912  0.00  0.00    +0.013 A 
ATOM     16  C   UNL     1       5.794  -1.870   2.744  0.00  0.00    +0.046 A 
BRANCH  11  17
ATOM     17  O   UNL     1       4.141  -0.946   1.304  0.00  0.00    -0.487 OA
BRANCH  17  18
ATOM     18  C   UNL     1       3.711  -0.707  -0.038  0.00  0.00    +0.264 C 
BRANCH  18  22
ATOM     19  C   UNL     1      -0.017   1.378   0.010  0.00  0.00    +0.000 A 
ATOM     20  C   UNL     1       1.171   2.086   0.002  0.00  0.00    +0.000 A 
ATOM     21  C   UNL     1       2.377   1.411  -0.013  0.00  0.00    +0.007 A 
ATOM     22  C   UNL     1       2.396   0.029  -0.020  0.00  0.00    -0.010 A 
ATOM     23  C   UNL     1       1.208  -0.679  -0.012  0.00  0.00    +0.007 A 
ATOM     24  C   UNL     1       0.002  -0.004   0.002  0.00  0.00    +0.000 A 
ENDBRANCH  18  22
ENDBRANCH  17  18
ENDBRANCH  11  17
ENDBRANCH   1  14
BRANCH  10  25
ATOM     25  C   UNL     1      10.110  -1.076   3.629  0.00  0.00    -0.028 A 
ATOM     26  C   UNL     1       9.149  -0.098   3.805  0.00  0.00    +0.012 A 
ATOM     27  C   UNL     1       9.387   1.149   3.330  0.00  0.00    +0.045 A 
ATOM     28  S   UNL     1      11.009   0.967   2.608  0.00  0.00    -0.105 S 
ATOM     29  C   UNL     1      11.264  -0.758   2.993  0.00  0.00    +0.049 A 
ENDBRANCH  10  25
BRANCH   8  30
ATOM     30  N   UNL     1      12.893  -3.987   5.784  0.00  0.00    -0.328 N 
ATOM     31  H   UNL     1      13.608  -4.615   5.598  0.00  0.00    +0.145 HD
ATOM     32  H   UNL     1      12.846  -3.546   6.646  0.00  0.00    +0.145 HD
ENDBRANCH   8  30
BRANCH   9  33
ATOM     33  C   UNL     1      10.959  -2.232   6.421  0.00  0.00    +0.101 C 
ATOM     34  N   UNL     1      10.952  -1.749   7.449  0.00  0.00    -0.191 NA
ENDBRANCH   9  33
TORSDOF 7
