REMARK  Name = ZINC39935188
REMARK  8 active torsions:
REMARK  status: ('A' for Active; 'I' for Inactive)
REMARK    1  A    between atoms: C_1  and  C_2
REMARK    2  A    between atoms: C_2  and  C_4
REMARK    3  A    between atoms: C_2  and  S_16
REMARK    4  A    between atoms: N_6  and  C_7
REMARK    5  A    between atoms: C_10  and  C_13
REMARK    6  A    between atoms: S_16  and  C_17
REMARK    7  A    between atoms: C_21  and  C_26
REMARK    8  A    between atoms: N_22  and  C_23
REMARK                            x       y       z     vdW  Elec       q    Type
REMARK                         _______ _______ _______ _____ _____    ______ ____
ROOT
ATOM      1  C   UNL     1      -2.469  -0.040  -0.802  0.00  0.00    +0.238 C 
ATOM      2  N   UNL     1      -2.207  -0.738  -2.072  0.00  0.00    -0.237 N 
ATOM      3  N   UNL     1      -1.922   0.254  -3.019  0.00  0.00    -0.169 NA
ATOM      4  C   UNL     1      -1.977   1.446  -2.488  0.00  0.00    +0.147 C 
ATOM      5  N   UNL     1      -2.307   1.386  -1.129  0.00  0.00    -0.282 N 
ATOM      6  H   UNL     1      -2.228  -1.696  -2.223  0.00  0.00    +0.171 HD
ENDROOT
BRANCH   4   7
ATOM      7  C   UNL     1      -1.736   2.637  -3.191  0.00  0.00    +0.022 C 
ATOM      8  C   UNL     1      -1.508   2.776  -4.560  0.00  0.00    +0.006 A 
ATOM      9  C   UNL     1      -1.447   1.843  -5.617  0.00  0.00    +0.010 A 
ATOM     10  C   UNL     1      -1.204   2.272  -6.882  0.00  0.00    +0.001 A 
ATOM     11  C   UNL     1      -1.010   3.624  -7.171  0.00  0.00    +0.002 A 
ATOM     12  C   UNL     1      -1.055   4.575  -6.205  0.00  0.00    +0.026 A 
ATOM     13  C   UNL     1      -1.305   4.203  -4.859  0.00  0.00    +0.043 A 
ATOM     14  N   UNL     1      -1.397   4.923  -3.758  0.00  0.00    -0.380 N 
ATOM     15  C   UNL     1      -1.677   4.038  -2.624  0.00  0.00    +0.152 C 
ATOM     16  H   UNL     1      -1.299   5.887  -3.708  0.00  0.00    +0.160 HD
ENDBRANCH   4   7
BRANCH   5  17
ATOM     17  C   UNL     1      -2.461   2.517  -0.210  0.00  0.00    +0.078 C 
ATOM     18  C   UNL     1      -2.765   2.201   1.255  0.00  0.00    +0.024 C 
ATOM     19  C   UNL     1      -3.857   2.783   0.356  0.00  0.00    +0.024 C 
ENDBRANCH   5  17
BRANCH   1  20
ATOM     20  S   UNL     1      -1.265  -0.544   0.458  0.00  0.00    -0.106 S 
BRANCH  20  22
ATOM     21  C   UNL     1       0.599   1.258  -0.415  0.00  0.00    +0.029 C 
ATOM     22  C   UNL     1       0.343  -0.248  -0.329  0.00  0.00    +0.133 C 
BRANCH  22  23
ATOM     23  C   UNL     1       1.429  -0.896   0.491  0.00  0.00    +0.230 C 
ATOM     24  O   UNL     1       1.227  -1.174   1.654  0.00  0.00    -0.274 OA
ATOM     25  N   UNL     1       2.625  -1.165  -0.069  0.00  0.00    -0.285 N 
ATOM     26  H   UNL     1       2.807  -0.891  -0.982  0.00  0.00    +0.155 HD
BRANCH  25  27
ATOM     27  C   UNL     1       3.602  -1.839   0.664  0.00  0.00    +0.033 A 
ATOM     28  C   UNL     1       3.234  -2.845   1.550  0.00  0.00    +0.024 A 
ATOM     29  C   UNL     1       4.196  -3.512   2.275  0.00  0.00    +0.015 A 
ATOM     30  C   UNL     1       5.543  -3.177   2.119  0.00  0.00    +0.037 A 
ATOM     31  C   UNL     1       5.910  -2.166   1.227  0.00  0.00    +0.015 A 
ATOM     32  C   UNL     1       4.943  -1.506   0.502  0.00  0.00    +0.024 A 
BRANCH  30  33
ATOM     33  C   UNL     1       6.577  -3.890   2.895  0.00  0.00    +0.242 C 
ATOM     34  O   UNL     1       6.257  -4.769   3.671  0.00  0.00    -0.270 OA
ATOM     35  N   UNL     1       7.876  -3.565   2.744  0.00  0.00    -0.325 N 
ATOM     36  H   UNL     1       8.132  -2.864   2.124  0.00  0.00    +0.145 HD
ATOM     37  H   UNL     1       8.556  -4.034   3.253  0.00  0.00    +0.145 HD
ENDBRANCH  30  33
ENDBRANCH  25  27
ENDBRANCH  22  23
ENDBRANCH  20  22
ENDBRANCH   1  20
TORSDOF 7
