REMARK  Name = ZINC35779211
REMARK  16 active torsions:
REMARK  status: ('A' for Active; 'I' for Inactive)
REMARK    1  A    between atoms: C_1  and  C_2
REMARK    2  A    between atoms: C_2  and  C_3
REMARK    3  A    between atoms: C_3  and  C_5
REMARK    4  A    between atoms: C_3  and  C_6
REMARK    5  A    between atoms: C_6  and  N_7
REMARK    6  A    between atoms: N_7  and  C_8
REMARK    7  A    between atoms: N_7  and  C_30
REMARK    8  A    between atoms: C_8  and  C_9
REMARK    9  A    between atoms: C_19  and  C_21
REMARK   10  A    between atoms: C_21  and  O_22
REMARK   11  A    between atoms: O_22  and  C_23
REMARK   12  A    between atoms: C_27  and  C_29
REMARK   13  A    between atoms: C_30  and  C_31
REMARK   14  A    between atoms: C_31  and  C_32
REMARK   15  A    between atoms: C_31  and  C_33
REMARK   16  A    between atoms: C_31  and  O_35
REMARK                            x       y       z     vdW  Elec       q    Type
REMARK                         _______ _______ _______ _____ _____    ______ ____
ROOT
ATOM      1  C   UNL     1      -0.432  -3.488  -2.992  0.00  0.00    +0.200 C 
ATOM      2  O   UNL     1      -0.967  -2.423  -3.221  0.00  0.00    -0.278 OA
ATOM      3  N   UNL     1      -1.132  -4.633  -3.111  0.00  0.00    -0.292 N 
ATOM      4  C   UNL     1      -0.496  -5.928  -2.830  0.00  0.00    +0.113 C 
ATOM      5  C   UNL     1      -1.187  -6.551  -1.607  0.00  0.00    +0.061 C 
ATOM      6  C   UNL     1      -2.663  -6.364  -1.744  0.00  0.00    -0.004 A 
ATOM      7  C   UNL     1      -3.324  -5.510  -2.573  0.00  0.00    -0.014 A 
ATOM      8  C   UNL     1      -4.716  -5.522  -2.502  0.00  0.00    +0.013 A 
ATOM      9  C   UNL     1      -5.343  -6.359  -1.644  0.00  0.00    +0.046 A 
ATOM     10  S   UNL     1      -3.965  -7.194  -0.872  0.00  0.00    -0.101 S 
ATOM     11  C   UNL     1      -2.544  -4.604  -3.516  0.00  0.00    +0.144 C 
ENDROOT
BRANCH   1  12
ATOM     12  C   UNL     1       1.016  -3.529  -2.575  0.00  0.00    +0.019 C 
BRANCH  12  13
ATOM     13  N   UNL     1       1.549  -2.162  -2.520  0.00  0.00    +0.388 N 
ATOM     14  H   UNL     1       1.412  -1.711  -3.413  0.00  0.00    -0.081 HD
BRANCH  13  15
ATOM     15  C   UNL     1       0.847  -1.404  -1.476  0.00  0.00    -0.075 C 
BRANCH  15  16
ATOM     16  C   UNL     1       1.305   0.056  -1.510  0.00  0.00    -0.031 C 
ATOM     17  C   UNL     1       0.899   0.687  -2.843  0.00  0.00    +0.005 C 
BRANCH  16  19
ATOM     18  C   UNL     1       1.201   2.249  -0.318  0.00  0.00    +0.004 C 
ATOM     19  C   UNL     1       0.648   0.823  -0.361  0.00  0.00    -0.002 C 
ENDBRANCH  16  19
ENDBRANCH  15  16
ENDBRANCH  13  15
BRANCH  13  20
ATOM     20  C   UNL     1       2.984  -2.208  -2.210  0.00  0.00    -0.039 C 
BRANCH  20  21
ATOM     21  C   UNL     1       3.743  -2.808  -3.395  0.00  0.00    +0.067 C 
ATOM     22  C   UNL     1       3.376  -2.050  -4.672  0.00  0.00    +0.044 C 
BRANCH  21  23
ATOM     23  C   UNL     1       5.226  -2.694  -3.151  0.00  0.00    -0.003 C 
ATOM     24  C   UNL     1       5.967  -3.773  -3.103  0.00  0.00    +0.006 C 
ENDBRANCH  21  23
BRANCH  21  25
ATOM     25  O   UNL     1       3.389  -4.185  -3.539  0.00  0.00    -0.387 OA
ATOM     26  H   UNL     1       3.594  -4.727  -2.765  0.00  0.00    +0.210 HD
ENDBRANCH  21  25
ENDBRANCH  20  21
ENDBRANCH  13  20
ENDBRANCH  12  13
ENDBRANCH   1  12
BRANCH  11  27
ATOM     27  C   UNL     1      -2.681  -5.117  -4.952  0.00  0.00    +0.256 C 
BRANCH  27  28
ATOM     28  O   UNL     1      -2.305  -6.494  -5.003  0.00  0.00    -0.490 OA
BRANCH  28  29
ATOM     29  C   UNL     1      -2.370  -7.106  -6.215  0.00  0.00    +0.121 A 
ATOM     30  C   UNL     1      -2.783  -6.394  -7.332  0.00  0.00    +0.045 A 
ATOM     31  C   UNL     1      -2.848  -7.019  -8.562  0.00  0.00    +0.004 A 
ATOM     32  C   UNL     1      -2.502  -8.353  -8.681  0.00  0.00    +0.003 A 
ATOM     33  C   UNL     1      -2.091  -9.064  -7.569  0.00  0.00    -0.047 A 
ATOM     34  C   UNL     1      -2.019  -8.443  -6.338  0.00  0.00    +0.049 A 
ATOM     35  C   UNL     1      -1.716 -10.518  -7.703  0.00  0.00    +0.044 C 
ENDBRANCH  28  29
ENDBRANCH  27  28
ENDBRANCH  11  27
TORSDOF 12
