REMARK  Name = ZINC13302273
REMARK  5 active torsions:
REMARK  status: ('A' for Active; 'I' for Inactive)
REMARK    1  A    between atoms: C_6  and  C_7
REMARK    2  A    between atoms: N_8  and  N_9
REMARK    3  A    between atoms: C_10  and  S_12
REMARK    4  A    between atoms: S_12  and  C_13
REMARK    5  A    between atoms: N_18  and  C_21
REMARK                            x       y       z     vdW  Elec       q    Type
REMARK                         _______ _______ _______ _____ _____    ______ ____
ROOT
ATOM      1  N   UNL     1       2.490  -4.266  -0.047  0.00  0.00    -0.217 N 
ATOM      2  C   UNL     1       3.650  -5.008  -0.080  0.00  0.00    +0.146 C 
ATOM      3  N   UNL     1       4.804  -4.409  -0.184  0.00  0.00    -0.380 N 
ATOM      4  H   UNL     1       1.516  -4.771   0.041  0.00  0.00    +0.176 HD
ATOM      5  H   UNL     1       5.730  -5.001  -0.211  0.00  0.00    +0.158 HD
ATOM      6  H   UNL     1       4.851  -3.312  -0.245  0.00  0.00    +0.158 HD
ENDROOT
BRANCH   1   8
ATOM      7  C   UNL     1       1.456  -2.170  -0.093  0.00  0.00    +0.138 C 
ATOM      8  N   UNL     1       2.549  -2.869  -0.124  0.00  0.00    -0.188 NA
BRANCH   7  14
ATOM      9  C   UNL     1       0.344   0.056  -0.141  0.00  0.00    +0.010 A 
ATOM     10  C   UNL     1       0.410   1.432  -0.217  0.00  0.00    +0.016 A 
ATOM     11  C   UNL     1       1.637   2.064  -0.327  0.00  0.00    +0.018 A 
ATOM     12  C   UNL     1       2.805   1.322  -0.360  0.00  0.00    +0.016 A 
ATOM     13  C   UNL     1       2.754  -0.054  -0.285  0.00  0.00    +0.010 A 
ATOM     14  C   UNL     1       1.519  -0.699  -0.174  0.00  0.00    -0.005 A 
ATOM     15 BR   UNL     1       1.718   3.951  -0.431  0.00  0.00    -0.050 Br
ENDBRANCH   7  14
ENDBRANCH   1   8
BRANCH   2  16
ATOM     16  S   UNL     1       3.575  -6.766   0.017  0.00  0.00    -0.078 S 
BRANCH  16  17
ATOM     17  C   UNL     1       5.341  -7.152   0.099  0.00  0.00    +0.149 C 
ATOM     18  C   UNL     1       5.569  -8.674   0.006  0.00  0.00    +0.120 C 
ATOM     19  C   UNL     1       6.235  -9.014   1.321  0.00  0.00    +0.228 C 
ATOM     20  O   UNL     1       6.590 -10.122   1.663  0.00  0.00    -0.275 OA
ATOM     21  N   UNL     1       6.371  -7.898   2.048  0.00  0.00    -0.209 N 
ATOM     22  C   UNL     1       5.902  -6.791   1.457  0.00  0.00    +0.240 C 
ATOM     23  O   UNL     1       5.925  -5.677   1.935  0.00  0.00    -0.274 OA
BRANCH  21  24
ATOM     24  C   UNL     1       6.956  -7.888   3.322  0.00  0.00    +0.044 A 
ATOM     25  C   UNL     1       8.159  -7.228   3.530  0.00  0.00    +0.025 A 
ATOM     26  C   UNL     1       8.731  -7.216   4.787  0.00  0.00    +0.017 A 
ATOM     27  C   UNL     1       8.111  -7.870   5.837  0.00  0.00    +0.018 A 
ATOM     28  C   UNL     1       6.914  -8.533   5.631  0.00  0.00    +0.017 A 
ATOM     29  C   UNL     1       6.336  -8.544   4.377  0.00  0.00    +0.025 A 
ATOM     30 BR   UNL     1       8.900  -7.857   7.555  0.00  0.00    -0.050 Br
ENDBRANCH  21  24
ENDBRANCH  16  17
ENDBRANCH   2  16
TORSDOF 5
