REMARK  Name = ZINC08619057
REMARK  12 active torsions:
REMARK  status: ('A' for Active; 'I' for Inactive)
REMARK    1  A    between atoms: C_1  and  C_2
REMARK    2  A    between atoms: C_5  and  C_35
REMARK    3  A    between atoms: C_6  and  C_8
REMARK    4  A    between atoms: C_8  and  N_9
REMARK    5  A    between atoms: C_12  and  C_15
REMARK    6  A    between atoms: C_15  and  N_16
REMARK    7  A    between atoms: C_17  and  C_19
REMARK    8  A    between atoms: C_19  and  C_21
REMARK    9  A    between atoms: C_19  and  N_25
REMARK   10  A    between atoms: C_21  and  C_22
REMARK   11  A    between atoms: C_22  and  C_23
REMARK   12  A    between atoms: C_22  and  C_24
REMARK                            x       y       z     vdW  Elec       q    Type
REMARK                         _______ _______ _______ _____ _____    ______ ____
ROOT
ATOM      1  N   UNL     1       5.743  -4.628   5.823  0.00  0.00    -0.314 N 
ATOM      2  C   UNL     1       6.837  -5.224   6.337  0.00  0.00    +0.234 C 
ATOM      3  O   UNL     1       7.915  -5.082   5.799  0.00  0.00    -0.274 OA
ATOM      4  H   UNL     1       4.881  -4.742   6.253  0.00  0.00    +0.149 HD
ENDROOT
BRANCH   1   5
ATOM      5  C   UNL     1       5.856  -3.806   4.616  0.00  0.00    +0.107 C 
BRANCH   5   9
ATOM      6  N   UNL     1       2.394  -2.945   2.259  0.00  0.00    +0.382 N 
ATOM      7  C   UNL     1       3.227  -1.800   2.646  0.00  0.00    -0.078 C 
ATOM      8  C   UNL     1       4.616  -2.291   3.060  0.00  0.00    -0.014 C 
ATOM      9  C   UNL     1       4.480  -3.249   4.247  0.00  0.00    +0.003 C 
ATOM     10  C   UNL     1       3.549  -4.401   3.856  0.00  0.00    -0.014 C 
ATOM     11  C   UNL     1       2.200  -3.832   3.413  0.00  0.00    -0.078 C 
ATOM     12  H   UNL     1       2.850  -3.455   1.518  0.00  0.00    -0.081 HD
BRANCH   6  13
ATOM     13  C   UNL     1       1.089  -2.463   1.789  0.00  0.00    -0.043 C 
BRANCH  13  19
ATOM     14  C   UNL     1       1.460   1.978  -0.489  0.00  0.00    +0.044 C 
ATOM     15  C   UNL     1       1.453   0.472  -0.558  0.00  0.00    -0.050 A 
ATOM     16  C   UNL     1       1.617  -0.166  -1.773  0.00  0.00    +0.003 A 
ATOM     17  C   UNL     1       1.610  -1.546  -1.836  0.00  0.00    +0.004 A 
ATOM     18  C   UNL     1       1.439  -2.290  -0.683  0.00  0.00    -0.049 A 
ATOM     19  C   UNL     1       1.276  -1.652   0.532  0.00  0.00    -0.061 A 
ATOM     20  C   UNL     1       1.287  -0.271   0.596  0.00  0.00    +0.005 A 
ATOM     21  C   UNL     1       1.431  -3.795  -0.751  0.00  0.00    +0.044 C 
ENDBRANCH  13  19
ENDBRANCH   6  13
ENDBRANCH   5   9
ENDBRANCH   1   5
BRANCH   2  22
ATOM     22  C   UNL     1       6.721  -6.070   7.579  0.00  0.00    +0.163 C 
BRANCH  22  23
ATOM     23  N   UNL     1       8.039  -6.603   7.932  0.00  0.00    -0.282 N 
ATOM     24  C   UNL     1       8.415  -8.021   7.933  0.00  0.00    +0.144 C 
ATOM     25  C   UNL     1       9.860  -8.074   8.361  0.00  0.00    -0.018 A 
ATOM     26  C   UNL     1      10.751  -9.106   8.547  0.00  0.00    +0.006 A 
ATOM     27  C   UNL     1      12.046  -8.837   8.956  0.00  0.00    +0.000 A 
ATOM     28  C   UNL     1      12.448  -7.532   9.179  0.00  0.00    +0.001 A 
ATOM     29  C   UNL     1      11.563  -6.490   8.996  0.00  0.00    +0.013 A 
ATOM     30  C   UNL     1      10.255  -6.753   8.583  0.00  0.00    +0.042 A 
ATOM     31  C   UNL     1       9.105  -5.873   8.303  0.00  0.00    +0.248 C 
ATOM     32  O   UNL     1       9.119  -4.661   8.397  0.00  0.00    -0.270 OA
ENDBRANCH  22  23
BRANCH  22  33
ATOM     33  C   UNL     1       6.192  -5.213   8.731  0.00  0.00    +0.035 C 
BRANCH  33  34
ATOM     34  C   UNL     1       6.004  -6.087   9.973  0.00  0.00    -0.015 C 
ATOM     35  C   UNL     1       5.616  -5.207  11.162  0.00  0.00    +0.007 C 
ATOM     36  C   UNL     1       4.896  -7.110   9.713  0.00  0.00    +0.007 C 
ENDBRANCH  33  34
ENDBRANCH  22  33
ENDBRANCH   2  22
TORSDOF 8
