REMARK  Name = ZINC36476299
REMARK  5 active torsions:
REMARK  status: ('A' for Active; 'I' for Inactive)
REMARK    1  A    between atoms: C_1  and  C_2
REMARK    2  A    between atoms: C_9  and  C_11
REMARK    3  A    between atoms: N_13  and  N_14
REMARK    4  A    between atoms: C_15  and  C_16
REMARK    5  A    between atoms: C_19  and  O_22
REMARK                            x       y       z     vdW  Elec       q    Type
REMARK                         _______ _______ _______ _____ _____    ______ ____
ROOT
ATOM      1  C   UNL     1       3.402  -0.623  -1.135  0.00  0.00    +0.236 C 
ATOM      2  O   UNL     1       3.813  -0.135  -0.103  0.00  0.00    -0.274 OA
ATOM      3  N   UNL     1       3.441   0.088  -2.279  0.00  0.00    -0.207 N 
ATOM      4  H   UNL     1       3.112  -0.301  -3.104  0.00  0.00    +0.177 HD
ENDROOT
BRANCH   1  12
ATOM      5  C   UNL     1       0.539  -0.888  -0.854  0.00  0.00    +0.012 C 
ATOM      6  C   UNL     1       1.338  -2.184  -1.000  0.00  0.00    -0.017 C 
ATOM      7  C   UNL     1       0.633  -3.278  -1.787  0.00  0.00    +0.008 C 
ATOM      8  C   UNL     1       1.333  -4.621  -1.582  0.00  0.00    +0.001 C 
ATOM      9  C   UNL     1       1.413  -4.905  -0.077  0.00  0.00    +0.000 C 
ATOM     10  C   UNL     1       2.491  -4.008   0.531  0.00  0.00    +0.005 C 
ATOM     11  C   UNL     1       2.236  -2.548   0.172  0.00  0.00    +0.008 C 
ATOM     12  C   UNL     1       2.847  -2.024  -1.137  0.00  0.00    +0.086 C 
ENDBRANCH   1  12
BRANCH   3  13
ATOM     13  N   UNL     1       3.957   1.391  -2.277  0.00  0.00    -0.188 NA
ATOM     14  C   UNL     1       3.861   2.128  -3.340  0.00  0.00    +0.138 C 
BRANCH  14  15
ATOM     15  C   UNL     1       2.920   1.758  -4.412  0.00  0.00    -0.005 A 
ATOM     16  C   UNL     1       3.104   2.249  -5.708  0.00  0.00    +0.013 A 
ATOM     17  C   UNL     1       2.221   1.899  -6.707  0.00  0.00    +0.046 A 
ATOM     18  C   UNL     1       1.150   1.061  -6.428  0.00  0.00    +0.117 A 
ATOM     19  C   UNL     1       0.962   0.571  -5.141  0.00  0.00    +0.046 A 
ATOM     20  C   UNL     1       1.843   0.910  -4.137  0.00  0.00    +0.013 A 
BRANCH  18  21
ATOM     21  O   UNL     1       0.282   0.719  -7.415  0.00  0.00    -0.507 OA
ATOM     22  H   UNL     1       0.530  -0.083  -7.896  0.00  0.00    +0.292 HD
ENDBRANCH  18  21
ENDBRANCH  14  15
ENDBRANCH   3  13
TORSDOF 4
