REMARK  Name = ZINC60884782
REMARK  7 active torsions:
REMARK  status: ('A' for Active; 'I' for Inactive)
REMARK    1  A    between atoms: C_1  and  C_2
REMARK    2  A    between atoms: C_5  and  C_8
REMARK    3  A    between atoms: C_8  and  C_9
REMARK    4  A    between atoms: C_9  and  C_10
REMARK    5  A    between atoms: N_12  and  C_13
REMARK    6  A    between atoms: C_13  and  C_14
REMARK    7  A    between atoms: C_13  and  C_15
REMARK                            x       y       z     vdW  Elec       q    Type
REMARK                         _______ _______ _______ _____ _____    ______ ____
ROOT
ATOM      1  C   UNL     1       2.723  -8.397  -0.059  0.00  0.00    +0.100 C 
ATOM      2  C   UNL     1       2.611  -8.916   1.376  0.00  0.00    +0.033 C 
ENDROOT
BRANCH   1   3
ATOM      3  C   UNL     1       4.013  -8.879  -0.669  0.00  0.00    -0.025 A 
ATOM      4  C   UNL     1       5.200  -8.232  -0.372  0.00  0.00    +0.007 A 
ATOM      5  C   UNL     1       6.388  -8.666  -0.927  0.00  0.00    +0.028 A 
ATOM      6  C   UNL     1       6.392  -9.756  -1.784  0.00  0.00    +0.067 A 
ATOM      7  C   UNL     1       5.194 -10.409  -2.083  0.00  0.00    +0.067 A 
ATOM      8  C   UNL     1       4.008  -9.969  -1.517  0.00  0.00    +0.033 A 
ATOM      9  N   UNL     1       5.510 -11.448  -2.955  0.00  0.00    -0.306 N 
ATOM     10  H   UNL     1       4.880 -12.079  -3.339  0.00  0.00    +0.170 HD
ATOM     11  C   UNL     1       6.838 -11.428  -3.177  0.00  0.00    +0.325 A 
ATOM     12  O   UNL     1       7.441 -12.204  -3.894  0.00  0.00    -0.247 OA
ATOM     13  N   UNL     1       7.397 -10.419  -2.484  0.00  0.00    -0.306 N 
ATOM     14  H   UNL     1       8.341 -10.191  -2.474  0.00  0.00    +0.170 HD
ENDBRANCH   1   3
BRANCH   1  17
ATOM     15  C   UNL     1       1.528  -6.274  -0.041  0.00  0.00    +0.214 C 
ATOM     16  O   UNL     1       0.485  -6.893  -0.038  0.00  0.00    -0.276 OA
ATOM     17  N   UNL     1       2.704  -6.932  -0.051  0.00  0.00    -0.309 N 
ATOM     18  H   UNL     1       3.537  -6.436  -0.052  0.00  0.00    +0.149 HD
BRANCH  15  19
ATOM     19  C   UNL     1       1.508  -4.767  -0.032  0.00  0.00    +0.100 C 
BRANCH  19  20
ATOM     20  C   UNL     1       0.059  -4.275  -0.021  0.00  0.00    +0.044 C 
BRANCH  20  25
ATOM     21  C   UNL     1      -0.018   1.503   0.010  0.00  0.00    +0.044 C 
ATOM     22  C   UNL     1       0.002  -0.004   0.002  0.00  0.00    -0.050 A 
ATOM     23  C   UNL     1       0.006  -0.689  -1.199  0.00  0.00    +0.003 A 
ATOM     24  C   UNL     1       0.025  -2.071  -1.206  0.00  0.00    +0.004 A 
ATOM     25  C   UNL     1       0.040  -2.768  -0.013  0.00  0.00    -0.047 A 
ATOM     26  C   UNL     1       0.037  -2.084   1.188  0.00  0.00    +0.004 A 
ATOM     27  C   UNL     1       0.023  -0.702   1.195  0.00  0.00    +0.003 A 
ENDBRANCH  20  25
ENDBRANCH  19  20
ENDBRANCH  15  19
ENDBRANCH   1  17
TORSDOF 5
