REMARK  Name = ZINC35306094
REMARK  10 active torsions:
REMARK  status: ('A' for Active; 'I' for Inactive)
REMARK    1  A    between atoms: C_1  and  C_2
REMARK    2  A    between atoms: C_4  and  C_19
REMARK    3  A    between atoms: C_5  and  C_18
REMARK    4  A    between atoms: N_6  and  C_7
REMARK    5  A    between atoms: C_10  and  O_15
REMARK    6  A    between atoms: C_12  and  O_13
REMARK    7  A    between atoms: O_13  and  C_14
REMARK    8  A    between atoms: O_15  and  C_16
REMARK    9  A    between atoms: C_29  and  S_31
REMARK   10  A    between atoms: S_31  and  C_32
REMARK                            x       y       z     vdW  Elec       q    Type
REMARK                         _______ _______ _______ _____ _____    ______ ____
ROOT
ATOM      1  C   UNL     1       0.909   1.558  -0.546  0.00  0.00    +0.064 C 
ATOM      2  C   UNL     1       0.651   0.082  -0.384  0.00  0.00    +0.022 A 
ATOM      3  C   UNL     1       0.488  -0.794  -1.389  0.00  0.00    +0.031 A 
ATOM      4  C   UNL     1       0.264  -2.106  -0.765  0.00  0.00    -0.003 A 
ATOM      5  C   UNL     1       0.315  -1.888   0.603  0.00  0.00    +0.028 A 
ATOM      6  N   UNL     1       0.552  -0.578   0.809  0.00  0.00    -0.314 N 
ATOM      7  C   UNL     1       0.141  -2.935   1.673  0.00  0.00    +0.064 C 
ENDROOT
BRANCH   4   8
ATOM      8  C   UNL     1       0.041  -3.340  -1.426  0.00  0.00    +0.026 C 
ATOM      9  C   UNL     1      -0.650  -3.368  -2.621  0.00  0.00    +0.081 C 
ATOM     10  C   UNL     1      -0.761  -4.611  -3.434  0.00  0.00    +0.153 C 
ATOM     11  N   UNL     1      -0.816  -5.808  -2.911  0.00  0.00    -0.283 NA
ATOM     12  N   UNL     1      -0.802  -4.370  -4.822  0.00  0.00    -0.151 N 
ATOM     13  C   UNL     1      -1.228  -3.129  -5.240  0.00  0.00    +0.181 C 
ATOM     14  N   UNL     1      -1.516  -2.091  -4.495  0.00  0.00    -0.152 NA
ATOM     15  C   UNL     1      -1.327  -2.164  -3.160  0.00  0.00    +0.273 C 
ATOM     16  O   UNL     1      -1.697  -1.267  -2.420  0.00  0.00    -0.268 OA
ATOM     17  S   UNL     1      -1.255  -3.315  -7.003  0.00  0.00    -0.027 S 
ATOM     18  C   UNL     1      -0.608  -4.980  -7.074  0.00  0.00    +0.156 C 
ATOM     19  N   UNL     1      -0.463  -5.274  -5.806  0.00  0.00    -0.158 NA
ATOM     20  H   UNL     1      -0.888  -6.586  -3.486  0.00  0.00    +0.188 HD
BRANCH  18  21
ATOM     21  S   UNL     1      -0.255  -5.971  -8.488  0.00  0.00    -0.101 S 
ATOM     22  C   UNL     1       0.366  -7.526  -7.790  0.00  0.00    +0.092 C 
ENDBRANCH  18  21
ENDBRANCH   4   8
BRANCH   6  23
ATOM     23  C   UNL     1       0.677   0.025   2.070  0.00  0.00    +0.090 A 
ATOM     24  C   UNL     1      -0.445   0.525   2.714  0.00  0.00    +0.053 A 
ATOM     25  C   UNL     1      -0.323   1.118   3.957  0.00  0.00    +0.085 A 
ATOM     26  C   UNL     1       0.923   1.214   4.563  0.00  0.00    +0.142 A 
ATOM     27  C   UNL     1       2.047   0.715   3.922  0.00  0.00    +0.094 A 
ATOM     28  C   UNL     1       1.926   0.115   2.679  0.00  0.00    +0.147 A 
ATOM     29 CL   UNL     1      -1.728   1.745   4.760  0.00  0.00    -0.080 Cl
BRANCH  28  30
ATOM     30  O   UNL     1       3.027  -0.379   2.053  0.00  0.00    -0.493 OA
ATOM     31  C   UNL     1       4.275  -0.252   2.736  0.00  0.00    +0.277 C 
ENDBRANCH  28  30
BRANCH  26  32
ATOM     32  O   UNL     1       1.040   1.798   5.785  0.00  0.00    -0.494 OA
ATOM     33  C   UNL     1       2.352   1.863   6.349  0.00  0.00    +0.277 C 
ENDBRANCH  26  32
ENDBRANCH   6  23
TORSDOF 5
