REMARK  Name = ZINC59432677
REMARK  8 active torsions:
REMARK  status: ('A' for Active; 'I' for Inactive)
REMARK    1  A    between atoms: C_1  and  C_2
REMARK    2  A    between atoms: C_5  and  N_9
REMARK    3  A    between atoms: C_7  and  C_8
REMARK    4  A    between atoms: C_10  and  C_12
REMARK    5  A    between atoms: C_12  and  C_29
REMARK    6  A    between atoms: C_13  and  C_14
REMARK    7  A    between atoms: C_17  and  C_19
REMARK    8  A    between atoms: C_22  and  N_26
REMARK                            x       y       z     vdW  Elec       q    Type
REMARK                         _______ _______ _______ _____ _____    ______ ____
ROOT
ATOM      1  C   UNL     1      -0.132  -6.302  -1.187  0.00  0.00    +0.117 C 
ATOM      2  C   UNL     1      -0.234  -6.991  -2.388  0.00  0.00    +0.070 C 
ENDROOT
BRANCH   2   3
ATOM      3  C   UNL     1      -0.321  -8.393  -2.388  0.00  0.00    +0.130 A 
ATOM      4  C   UNL     1      -0.421  -9.202  -3.511  0.00  0.00    +0.050 A 
ATOM      5  C   UNL     1      -0.481 -10.518  -3.055  0.00  0.00    +0.050 A 
ATOM      6  C   UNL     1      -0.417 -10.472  -1.678  0.00  0.00    +0.137 A 
ATOM      7  O   UNL     1      -0.316  -9.187  -1.296  0.00  0.00    -0.455 OA
BRANCH   6   8
ATOM      8  C   UNL     1      -0.450 -11.638  -0.775  0.00  0.00    +0.031 A 
ATOM      9  C   UNL     1      -1.442 -12.612  -0.921  0.00  0.00    +0.015 A 
ATOM     10  C   UNL     1      -1.465 -13.699  -0.074  0.00  0.00    +0.033 A 
ATOM     11  C   UNL     1      -0.511 -13.829   0.919  0.00  0.00    +0.127 A 
ATOM     12  C   UNL     1       0.474 -12.869   1.071  0.00  0.00    +0.048 A 
ATOM     13  C   UNL     1       0.515 -11.778   0.227  0.00  0.00    +0.031 A 
ATOM     14 BR   UNL     1       1.867 -10.471   0.430  0.00  0.00    -0.049 Br
BRANCH  11  15
ATOM     15  N   UNL     1      -0.544 -14.999   1.825  0.00  0.00    +0.056 N 
ATOM     16  O   UNL     1      -1.404 -15.839   1.696  0.00  0.00    -0.126 OA
ATOM     17  O   UNL     1       0.288 -15.115   2.694  0.00  0.00    -0.126 OA
ENDBRANCH  11  15
ENDBRANCH   6   8
ENDBRANCH   2   3
BRANCH   1  19
ATOM     18  N   UNL     1       0.059  -4.169  -0.021  0.00  0.00    -0.281 N 
ATOM     19  C   UNL     1      -0.040  -4.838  -1.187  0.00  0.00    +0.259 C 
ATOM     20  O   UNL     1      -0.054  -4.227  -2.240  0.00  0.00    -0.269 OA
ATOM     21  H   UNL     1       0.147  -4.657   0.812  0.00  0.00    +0.155 HD
BRANCH  18  26
ATOM     22  C   UNL     1      -0.039   1.502   0.011  0.00  0.00    +0.044 C 
ATOM     23  C   UNL     1      -0.013  -0.004   0.003  0.00  0.00    -0.047 A 
ATOM     24  C   UNL     1       0.749  -0.687   0.934  0.00  0.00    +0.005 A 
ATOM     25  C   UNL     1       0.775  -2.067   0.929  0.00  0.00    +0.023 A 
ATOM     26  C   UNL     1       0.034  -2.771  -0.013  0.00  0.00    +0.034 A 
ATOM     27  C   UNL     1      -0.730  -2.083  -0.946  0.00  0.00    +0.027 A 
ATOM     28  C   UNL     1      -0.755  -0.702  -0.932  0.00  0.00    -0.046 A 
ATOM     29  C   UNL     1      -1.589   0.046  -1.941  0.00  0.00    +0.044 C 
ENDBRANCH  18  26
ENDBRANCH   1  19
BRANCH   1  30
ATOM     30  C   UNL     1      -0.115  -7.021   0.051  0.00  0.00    +0.104 C 
ATOM     31  N   UNL     1      -0.102  -7.591   1.034  0.00  0.00    -0.191 NA
ENDBRANCH   1  30
TORSDOF 6
