REMARK  Name = ZINC35065496
REMARK  11 active torsions:
REMARK  status: ('A' for Active; 'I' for Inactive)
REMARK    1  A    between atoms: C_1  and  C_2
REMARK    2  A    between atoms: C_2  and  C_3
REMARK    3  A    between atoms: C_3  and  C_4
REMARK    4  A    between atoms: C_4  and  N_5
REMARK    5  A    between atoms: N_5  and  C_6
REMARK    6  A    between atoms: N_5  and  S_27
REMARK    7  A    between atoms: C_6  and  C_8
REMARK    8  A    between atoms: C_6  and  C_9
REMARK    9  A    between atoms: N_19  and  C_20
REMARK   10  A    between atoms: C_24  and  C_26
REMARK   11  A    between atoms: S_27  and  C_30
REMARK                            x       y       z     vdW  Elec       q    Type
REMARK                         _______ _______ _______ _____ _____    ______ ____
ROOT
ATOM      1  C   UNL     1       2.175  -3.000  -3.235  0.00  0.00    +0.143 C 
ATOM      2  C   UNL     1       2.556  -1.544  -3.516  0.00  0.00    +0.034 C 
ENDROOT
BRANCH   1   3
ATOM      3  C   UNL     1       2.745  -3.420  -1.905  0.00  0.00    +0.136 A 
ATOM      4  N   UNL     1       2.454  -2.710  -0.857  0.00  0.00    -0.231 NA
ATOM      5  C   UNL     1       2.930  -3.028   0.372  0.00  0.00    +0.078 A 
ATOM      6  C   UNL     1       2.617  -2.265   1.499  0.00  0.00    +0.028 A 
ATOM      7  C   UNL     1       3.122  -2.624   2.728  0.00  0.00    +0.002 A 
ATOM      8  C   UNL     1       3.942  -3.738   2.862  0.00  0.00    +0.001 A 
ATOM      9  C   UNL     1       4.266  -4.506   1.766  0.00  0.00    +0.015 A 
ATOM     10  C   UNL     1       3.764  -4.160   0.513  0.00  0.00    +0.065 A 
ATOM     11  C   UNL     1       4.075  -4.942  -0.692  0.00  0.00    +0.266 A 
ATOM     12  O   UNL     1       4.787  -5.928  -0.639  0.00  0.00    -0.267 OA
ATOM     13  N   UNL     1       3.534  -4.527  -1.862  0.00  0.00    -0.263 N 
BRANCH  13  14
ATOM     14  C   UNL     1       3.795  -5.240  -3.039  0.00  0.00    +0.051 A 
ATOM     15  C   UNL     1       4.765  -4.790  -3.925  0.00  0.00    +0.026 A 
ATOM     16  C   UNL     1       5.020  -5.496  -5.084  0.00  0.00    +0.002 A 
ATOM     17  C   UNL     1       4.310  -6.650  -5.363  0.00  0.00    +0.003 A 
ATOM     18  C   UNL     1       3.344  -7.100  -4.483  0.00  0.00    -0.048 A 
ATOM     19  C   UNL     1       3.088  -6.402  -3.319  0.00  0.00    +0.029 A 
ATOM     20  C   UNL     1       2.572  -8.357  -4.792  0.00  0.00    +0.044 C 
ENDBRANCH  13  14
ENDBRANCH   1   3
BRANCH   1  21
ATOM     21  N   UNL     1       0.716  -3.125  -3.203  0.00  0.00    -0.167 NA
BRANCH  21  22
ATOM     22  S   UNL     1      -0.051  -4.145  -4.258  0.00  0.00    +0.061 S 
ATOM     23  O   UNL     1       0.903  -5.125  -4.642  0.00  0.00    -0.153 OA
ATOM     24  O   UNL     1      -1.295  -4.486  -3.662  0.00  0.00    -0.153 OA
BRANCH  22  25
ATOM     25  C   UNL     1      -0.425  -3.212  -5.705  0.00  0.00    +0.106 A 
ATOM     26  C   UNL     1      -1.639  -2.533  -5.789  0.00  0.00    +0.029 A 
ATOM     27  C   UNL     1      -1.959  -1.804  -6.893  0.00  0.00    +0.010 A 
ATOM     28  C   UNL     1      -1.054  -1.732  -7.966  0.00  0.00    -0.018 A 
ATOM     29  C   UNL     1      -1.349  -0.989  -9.121  0.00  0.00    +0.008 A 
ATOM     30  C   UNL     1      -0.448  -0.943 -10.140  0.00  0.00    +0.001 A 
ATOM     31  C   UNL     1       0.767  -1.622 -10.056  0.00  0.00    +0.001 A 
ATOM     32  C   UNL     1       1.086  -2.351  -8.952  0.00  0.00    +0.008 A 
ATOM     33  C   UNL     1       0.181  -2.423  -7.880  0.00  0.00    -0.016 A 
ATOM     34  C   UNL     1       0.478  -3.161  -6.722  0.00  0.00    +0.037 A 
ENDBRANCH  22  25
ENDBRANCH  21  22
BRANCH  21  35
ATOM     35  C   UNL     1      -0.065  -2.348  -2.236  0.00  0.00    +0.110 C 
BRANCH  35  36
ATOM     36  C   UNL     1      -0.365  -0.965  -2.818  0.00  0.00    +0.017 C 
BRANCH  36  38
ATOM     37  C   UNL     1      -1.587   1.182  -2.447  0.00  0.00    +0.004 C 
ATOM     38  C   UNL     1      -1.288  -0.201  -1.866  0.00  0.00    -0.002 C 
ENDBRANCH  36  38
ENDBRANCH  35  36
ENDBRANCH  21  35
ENDBRANCH   1  21
TORSDOF 8
