REMARK  Name = ZINC03655559
REMARK  8 active torsions:
REMARK  status: ('A' for Active; 'I' for Inactive)
REMARK    1  A    between atoms: C_1  and  C_2
REMARK    2  A    between atoms: C_2  and  C_3
REMARK    3  A    between atoms: C_3  and  O_4
REMARK    4  A    between atoms: O_4  and  C_5
REMARK    5  A    between atoms: C_9  and  C_11
REMARK    6  A    between atoms: N_13  and  C_14
REMARK    7  A    between atoms: C_22  and  C_23
REMARK    8  A    between atoms: C_23  and  C_25
REMARK                            x       y       z     vdW  Elec       q    Type
REMARK                         _______ _______ _______ _____ _____    ______ ____
ROOT
ATOM      1  C   UNL     1       1.121   7.394   0.088  0.00  0.00    +0.091 A 
ATOM      2  C   UNL     1       2.250   8.273  -0.237  0.00  0.00    +0.042 A 
ATOM      3  C   UNL     1       3.547   8.053  -0.704  0.00  0.00    +0.013 A 
ATOM      4  C   UNL     1       4.379   9.116  -0.921  0.00  0.00    +0.001 A 
ATOM      5  C   UNL     1       3.939  10.411  -0.686  0.00  0.00    +0.004 A 
ATOM      6  C   UNL     1       2.661  10.649  -0.230  0.00  0.00    +0.047 A 
ATOM      7  C   UNL     1       1.797   9.583  -0.002  0.00  0.00    +0.138 A 
ATOM      8  O   UNL     1       0.523   9.513   0.432  0.00  0.00    -0.450 OA
ATOM      9  C   UNL     1       0.099   8.231   0.494  0.00  0.00    +0.197 A 
ENDROOT
BRANCH   1  12
ATOM     10  C   UNL     1       1.895   5.364  -0.856  0.00  0.00    +0.248 C 
ATOM     11  O   UNL     1       2.603   5.997  -1.615  0.00  0.00    -0.270 OA
ATOM     12  N   UNL     1       1.088   6.009   0.009  0.00  0.00    -0.278 N 
ATOM     13  H   UNL     1       0.484   5.505   0.577  0.00  0.00    +0.155 HD
BRANCH  10  18
ATOM     14  C   UNL     1       2.778   1.832  -1.792  0.00  0.00    +0.121 A 
ATOM     15  C   UNL     1       1.963   1.114  -0.925  0.00  0.00    +0.046 A 
ATOM     16  C   UNL     1       1.135   1.777  -0.039  0.00  0.00    +0.004 A 
ATOM     17  C   UNL     1       1.109   3.157  -0.012  0.00  0.00    +0.013 A 
ATOM     18  C   UNL     1       1.920   3.886  -0.882  0.00  0.00    +0.040 A 
ATOM     19  C   UNL     1       2.756   3.216  -1.777  0.00  0.00    +0.058 A 
BRANCH  14  20
ATOM     20  O   UNL     1       3.594   1.175  -2.658  0.00  0.00    -0.492 OA
BRANCH  20  21
ATOM     21  C   UNL     1       3.562  -0.254  -2.622  0.00  0.00    +0.229 C 
BRANCH  21  23
ATOM     22  C   UNL     1       4.505  -2.340  -3.621  0.00  0.00    +0.007 C 
ATOM     23  C   UNL     1       4.539  -0.811  -3.659  0.00  0.00    +0.038 C 
ENDBRANCH  21  23
ENDBRANCH  20  21
ENDBRANCH  14  20
ENDBRANCH  10  18
ENDBRANCH   1  12
BRANCH   9  24
ATOM     24  C   UNL     1      -1.188   7.811   0.909  0.00  0.00    +0.230 C 
ATOM     25  O   UNL     1      -1.436   6.624   1.017  0.00  0.00    -0.283 OA
BRANCH  24  26
ATOM     26  C   UNL     1      -2.231   8.816   1.212  0.00  0.00    +0.026 A 
ATOM     27  C   UNL     1      -1.913  10.175   1.223  0.00  0.00    +0.013 A 
ATOM     28  C   UNL     1      -2.891  11.107   1.500  0.00  0.00    +0.016 A 
ATOM     29  C   UNL     1      -4.184  10.696   1.778  0.00  0.00    +0.018 A 
ATOM     30  C   UNL     1      -4.504   9.348   1.775  0.00  0.00    +0.016 A 
ATOM     31  C   UNL     1      -3.536   8.407   1.494  0.00  0.00    +0.013 A 
ATOM     32 BR   UNL     1      -5.518  11.979   2.164  0.00  0.00    -0.050 Br
ENDBRANCH  24  26
ENDBRANCH   9  24
TORSDOF 7
