REMARK  Name = ZINC36203392
REMARK  12 active torsions:
REMARK  status: ('A' for Active; 'I' for Inactive)
REMARK    1  A    between atoms: C_1  and  O_2
REMARK    2  A    between atoms: O_2  and  C_3
REMARK    3  A    between atoms: C_7  and  C_9
REMARK    4  A    between atoms: C_9  and  N_10
REMARK    5  A    between atoms: N_10  and  C_11
REMARK    6  A    between atoms: N_10  and  C_29
REMARK    7  A    between atoms: C_11  and  C_12
REMARK    8  A    between atoms: C_15  and  C_17
REMARK    9  A    between atoms: C_17  and  C_18
REMARK   10  A    between atoms: C_17  and  C_23
REMARK   11  A    between atoms: C_17  and  O_28
REMARK   12  A    between atoms: C_29  and  C_30
REMARK                            x       y       z     vdW  Elec       q    Type
REMARK                         _______ _______ _______ _____ _____    ______ ____
ROOT
ATOM      1  C   UNL     1       0.194  -6.006   2.977  0.00  0.00    -0.003 C 
ENDROOT
BRANCH   1   2
ATOM      2  C   UNL     1      -1.071  -6.511   3.621  0.00  0.00    +0.089 A 
ATOM      3  C   UNL     1      -2.206  -6.837   2.977  0.00  0.00    +0.043 A 
ATOM      4  C   UNL     1      -3.129  -7.260   3.961  0.00  0.00    +0.048 A 
ATOM      5  C   UNL     1      -2.502  -7.167   5.148  0.00  0.00    +0.147 A 
ATOM      6  O   UNL     1      -1.254  -6.719   4.935  0.00  0.00    -0.463 OA
BRANCH   5   7
ATOM      7  C   UNL     1      -3.098  -7.513   6.489  0.00  0.00    +0.186 C 
BRANCH   7   8
ATOM      8  C   UNL     1      -2.008  -7.988   7.415  0.00  0.00    +0.034 A 
ATOM      9  C   UNL     1      -2.083  -8.876   8.436  0.00  0.00    +0.015 A 
ATOM     10  C   UNL     1      -0.941  -9.165   9.159  0.00  0.00    +0.008 A 
ATOM     11  C   UNL     1       0.221  -8.550   8.825  0.00  0.00    +0.045 A 
ATOM     12  S   UNL     1      -0.282  -7.533   7.447  0.00  0.00    -0.098 S 
ENDBRANCH   7   8
BRANCH   7  13
ATOM     13  C   UNL     1      -3.758  -6.292   7.075  0.00  0.00    +0.034 A 
ATOM     14  C   UNL     1      -4.822  -6.215   7.911  0.00  0.00    +0.015 A 
ATOM     15  C   UNL     1      -5.261  -4.972   8.326  0.00  0.00    +0.008 A 
ATOM     16  C   UNL     1      -4.614  -3.865   7.884  0.00  0.00    +0.045 A 
ATOM     17  S   UNL     1      -3.338  -4.571   6.854  0.00  0.00    -0.098 S 
ENDBRANCH   7  13
BRANCH   7  18
ATOM     18  O   UNL     1      -4.069  -8.548   6.325  0.00  0.00    -0.371 OA
ATOM     19  H   UNL     1      -3.714  -9.366   5.952  0.00  0.00    +0.212 HD
ENDBRANCH   7  18
ENDBRANCH   5   7
ENDBRANCH   1   2
BRANCH   1  20
ATOM     20  N   UNL     1       0.157  -4.539   2.909  0.00  0.00    +0.389 N 
ATOM     21  H   UNL     1      -0.682  -4.245   2.433  0.00  0.00    -0.081 HD
BRANCH  20  22
ATOM     22  C   UNL     1       1.333  -4.053   2.175  0.00  0.00    -0.042 C 
BRANCH  22  27
ATOM     23  C   UNL     1       1.831  -6.070  -0.981  0.00  0.00    +0.120 A 
ATOM     24  C   UNL     1       1.098  -5.330  -1.898  0.00  0.00    +0.045 A 
ATOM     25  C   UNL     1       0.445  -4.183  -1.493  0.00  0.00    +0.004 A 
ATOM     26  C   UNL     1       0.521  -3.770  -0.175  0.00  0.00    +0.002 A 
ATOM     27  C   UNL     1       1.251  -4.505   0.740  0.00  0.00    -0.060 A 
ATOM     28  C   UNL     1       1.901  -5.657   0.342  0.00  0.00    +0.047 A 
BRANCH  23  30
ATOM     29  C   UNL     1       2.357  -7.565  -2.753  0.00  0.00    +0.277 C 
ATOM     30  O   UNL     1       2.474  -7.200  -1.376  0.00  0.00    -0.495 OA
ENDBRANCH  23  30
ENDBRANCH  22  27
ENDBRANCH  20  22
BRANCH  20  31
ATOM     31  C   UNL     1       0.167  -3.986   4.271  0.00  0.00    -0.046 C 
BRANCH  31  32
ATOM     32  C   UNL     1      -0.022  -2.469   4.206  0.00  0.00    +0.102 C 
ATOM     33  C   UNL     1      -0.023  -1.881   5.633  0.00  0.00    +0.032 C 
ATOM     34  C   UNL     1      -1.127  -0.792   5.540  0.00  0.00    +0.030 C 
ATOM     35  C   UNL     1      -2.115  -1.460   4.551  0.00  0.00    +0.160 C 
ATOM     36  O   UNL     1      -1.287  -2.162   3.608  0.00  0.00    -0.378 OA
ENDBRANCH  31  32
ENDBRANCH  20  31
ENDBRANCH   1  20
TORSDOF 11
