REMARK  Name = ZINC63874088
REMARK  6 active torsions:
REMARK  status: ('A' for Active; 'I' for Inactive)
REMARK    1  A    between atoms: C_1  and  C_2
REMARK    2  A    between atoms: C_2  and  C_3
REMARK    3  A    between atoms: C_2  and  C_4
REMARK    4  A    between atoms: C_2  and  C_5
REMARK    5  A    between atoms: C_8  and  C_11
REMARK    6  A    between atoms: C_23  and  C_27
REMARK                            x       y       z     vdW  Elec       q    Type
REMARK                         _______ _______ _______ _____ _____    ______ ____
ROOT
ATOM      1  C   UNL     1       2.829  -2.293  -4.618  0.00  0.00    +0.111 C 
ATOM      2  C   UNL     1       4.030  -3.232  -4.485  0.00  0.00    +0.128 C 
ATOM      3  C   UNL     1       5.058  -2.492  -3.637  0.00  0.00    -0.028 C 
ATOM      4  C   UNL     1       5.364  -3.297  -2.630  0.00  0.00    -0.000 A 
ATOM      5  C   UNL     1       6.347  -3.178  -1.541  0.00  0.00    +0.010 A 
ATOM      6  C   UNL     1       6.386  -4.206  -0.653  0.00  0.00    +0.001 A 
ATOM      7  C   UNL     1       5.556  -5.328  -0.738  0.00  0.00    +0.002 A 
ATOM      8  C   UNL     1       4.628  -5.524  -1.708  0.00  0.00    +0.026 A 
ATOM      9  C   UNL     1       4.497  -4.513  -2.704  0.00  0.00    +0.043 A 
ATOM     10  N   UNL     1       3.707  -4.460  -3.759  0.00  0.00    -0.376 N 
ATOM     11  C   UNL     1       5.473  -1.075  -3.954  0.00  0.00    +0.063 C 
ATOM     12  C   UNL     1       4.170  -0.287  -4.181  0.00  0.00    +0.094 C 
ATOM     13  N   UNL     1       3.307  -0.999  -5.128  0.00  0.00    -0.307 NA
ATOM     14  H   UNL     1       3.764  -1.109  -6.021  0.00  0.00    +0.123 HD
ATOM     15  H   UNL     1       3.030  -5.108  -4.013  0.00  0.00    +0.160 HD
ENDROOT
BRANCH  11  16
ATOM     16  C   UNL     1       6.241  -0.490  -2.797  0.00  0.00    -0.021 A 
ATOM     17  C   UNL     1       5.594  -0.212  -1.608  0.00  0.00    +0.006 A 
ATOM     18  C   UNL     1       6.298   0.326  -0.547  0.00  0.00    +0.000 A 
ATOM     19  C   UNL     1       7.651   0.585  -0.674  0.00  0.00    +0.001 A 
ATOM     20  C   UNL     1       8.299   0.307  -1.863  0.00  0.00    +0.020 A 
ATOM     21  C   UNL     1       7.595  -0.236  -2.924  0.00  0.00    +0.045 A 
ATOM     22 CL   UNL     1       8.410  -0.592  -4.415  0.00  0.00    -0.083 Cl
ENDBRANCH  11  16
BRANCH   1  26
ATOM     23  C   UNL     1       1.000  -1.748  -0.796  0.00  0.00    -0.042 A 
ATOM     24  C   UNL     1       0.228  -2.099  -1.888  0.00  0.00    +0.004 A 
ATOM     25  C   UNL     1       0.820  -2.276  -3.125  0.00  0.00    +0.005 A 
ATOM     26  C   UNL     1       2.183  -2.100  -3.270  0.00  0.00    -0.028 A 
ATOM     27  C   UNL     1       2.955  -1.748  -2.178  0.00  0.00    +0.005 A 
ATOM     28  C   UNL     1       2.362  -1.567  -0.942  0.00  0.00    +0.004 A 
BRANCH  23  30
ATOM     29  C   UNL     1       0.591  -0.122   1.031  0.00  0.00    +0.015 C 
ATOM     30  C   UNL     1       0.354  -1.556   0.552  0.00  0.00    -0.013 C 
ATOM     31  C   UNL     1       0.967  -2.536   1.555  0.00  0.00    +0.015 C 
ATOM     32  C   UNL     1      -1.149  -1.815   0.440  0.00  0.00    +0.015 C 
ENDBRANCH  23  30
ENDBRANCH   1  26
TORSDOF 3
