REMARK  Name = ZINC35065885
REMARK  16 active torsions:
REMARK  status: ('A' for Active; 'I' for Inactive)
REMARK    1  A    between atoms: C_1  and  C_2
REMARK    2  A    between atoms: C_2  and  C_3
REMARK    3  A    between atoms: C_3  and  C_4
REMARK    4  A    between atoms: C_4  and  C_5
REMARK    5  A    between atoms: C_5  and  C_6
REMARK    6  A    between atoms: C_9  and  C_12
REMARK    7  A    between atoms: N_14  and  C_15
REMARK    8  A    between atoms: N_14  and  C_20
REMARK    9  A    between atoms: C_15  and  C_16
REMARK   10  A    between atoms: C_16  and  N_17
REMARK   11  A    between atoms: N_17  and  C_18
REMARK   12  A    between atoms: N_17  and  C_19
REMARK   13  A    between atoms: C_20  and  C_22
REMARK   14  A    between atoms: C_20  and  C_23
REMARK   15  A    between atoms: N_33  and  C_34
REMARK   16  A    between atoms: C_38  and  C_40
REMARK                            x       y       z     vdW  Elec       q    Type
REMARK                         _______ _______ _______ _____ _____    ______ ____
ROOT
ATOM      1  C   UNL     1       1.877  -8.547  -2.788  0.00  0.00    +0.247 C 
ATOM      2  O   UNL     1       2.132  -7.396  -3.083  0.00  0.00    -0.270 OA
ATOM      3  N   UNL     1       0.880  -9.199  -3.417  0.00  0.00    -0.290 N 
ENDROOT
BRANCH   1   7
ATOM      4  C   UNL     1       4.129 -10.514   0.229  0.00  0.00    -0.047 A 
ATOM      5  C   UNL     1       2.749 -10.605   0.230  0.00  0.00    +0.004 A 
ATOM      6  C   UNL     1       2.011  -9.968  -0.746  0.00  0.00    +0.013 A 
ATOM      7  C   UNL     1       2.661  -9.231  -1.738  0.00  0.00    +0.037 A 
ATOM      8  C   UNL     1       4.054  -9.143  -1.733  0.00  0.00    +0.013 A 
ATOM      9  C   UNL     1       4.779  -9.780  -0.748  0.00  0.00    +0.004 A 
BRANCH   4  10
ATOM     10  C   UNL     1       4.928 -11.212   1.299  0.00  0.00    +0.035 C 
BRANCH  10  11
ATOM     11  C   UNL     1       5.116 -10.271   2.491  0.00  0.00    +0.005 C 
BRANCH  11  12
ATOM     12  C   UNL     1       5.927 -10.980   3.577  0.00  0.00    +0.000 C 
BRANCH  12  14
ATOM     13  C   UNL     1       6.926 -10.748   5.856  0.00  0.00    +0.004 C 
ATOM     14  C   UNL     1       6.115 -10.039   4.769  0.00  0.00    -0.003 C 
ENDBRANCH  12  14
ENDBRANCH  11  12
ENDBRANCH  10  11
ENDBRANCH   4  10
ENDBRANCH   1   7
BRANCH   3  15
ATOM     15  C   UNL     1       0.516 -10.556  -3.003  0.00  0.00    +0.140 C 
ATOM     16  C   UNL     1       0.538 -11.484  -4.219  0.00  0.00    +0.036 C 
BRANCH  15  17
ATOM     17  C   UNL     1      -0.867 -10.545  -2.405  0.00  0.00    +0.138 A 
ATOM     18  N   UNL     1      -1.481  -9.406  -2.293  0.00  0.00    -0.231 NA
ATOM     19  C   UNL     1      -2.727  -9.319  -1.765  0.00  0.00    +0.078 A 
ATOM     20  C   UNL     1      -3.388  -8.095  -1.645  0.00  0.00    +0.028 A 
ATOM     21  C   UNL     1      -4.652  -8.052  -1.103  0.00  0.00    +0.002 A 
ATOM     22  C   UNL     1      -5.282  -9.213  -0.673  0.00  0.00    +0.001 A 
ATOM     23  C   UNL     1      -4.651 -10.433  -0.780  0.00  0.00    +0.015 A 
ATOM     24  C   UNL     1      -3.370 -10.498  -1.327  0.00  0.00    +0.065 A 
ATOM     25  C   UNL     1      -2.649 -11.771  -1.467  0.00  0.00    +0.266 A 
ATOM     26  O   UNL     1      -3.147 -12.823  -1.109  0.00  0.00    -0.267 OA
ATOM     27  N   UNL     1      -1.412 -11.729  -2.015  0.00  0.00    -0.263 N 
BRANCH  27  28
ATOM     28  C   UNL     1      -0.684 -12.915  -2.176  0.00  0.00    +0.051 A 
ATOM     29  C   UNL     1       0.491 -13.112  -1.463  0.00  0.00    +0.026 A 
ATOM     30  C   UNL     1       1.207 -14.282  -1.623  0.00  0.00    +0.002 A 
ATOM     31  C   UNL     1       0.754 -15.257  -2.494  0.00  0.00    +0.003 A 
ATOM     32  C   UNL     1      -0.414 -15.063  -3.207  0.00  0.00    -0.048 A 
ATOM     33  C   UNL     1      -1.138 -13.897  -3.046  0.00  0.00    +0.029 A 
ATOM     34  C   UNL     1      -0.903 -16.127  -4.155  0.00  0.00    +0.044 C 
ENDBRANCH  27  28
ENDBRANCH  15  17
ENDBRANCH   3  15
BRANCH   3  35
ATOM     35  C   UNL     1       0.160  -8.551  -4.517  0.00  0.00    +0.090 C 
BRANCH  35  36
ATOM     36  C   UNL     1       0.944  -8.734  -5.818  0.00  0.00    -0.060 C 
BRANCH  36  37
ATOM     37  N   UNL     1       0.222  -8.085  -6.920  0.00  0.00    +0.377 N 
ATOM     38  C   UNL     1       1.030  -8.156  -8.144  0.00  0.00    -0.097 C 
ATOM     39  C   UNL     1      -1.059  -8.770  -7.138  0.00  0.00    -0.097 C 
ATOM     40  H   UNL     1       0.051  -7.118  -6.686  0.00  0.00    -0.083 HD
ENDBRANCH  36  37
ENDBRANCH  35  36
ENDBRANCH   3  35
TORSDOF 11
