REMARK  Name = ZINC43730015
REMARK  2 active torsions:
REMARK  status: ('A' for Active; 'I' for Inactive)
REMARK    1  A    between atoms: C_8  and  C_27
REMARK    2  A    between atoms: C_27  and  C_29
REMARK                            x       y       z     vdW  Elec       q    Type
REMARK                         _______ _______ _______ _____ _____    ______ ____
ROOT
ATOM      1  C   UNL     1      -0.102   1.345   0.054  0.00  0.00    +0.000 A 
ATOM      2  C   UNL     1       1.078   2.066   0.077  0.00  0.00    +0.002 A 
ATOM      3  C   UNL     1       2.294   1.415   0.074  0.00  0.00    +0.023 A 
ATOM      4  C   UNL     1       2.343   0.023   0.046  0.00  0.00    +0.038 A 
ATOM      5  C   UNL     1       1.149  -0.693   0.022  0.00  0.00    -0.011 A 
ATOM      6  C   UNL     1      -0.062  -0.038   0.026  0.00  0.00    +0.006 A 
ATOM      7  C   UNL     1       1.541  -2.144  -0.007  0.00  0.00    +0.085 C 
ATOM      8  C   UNL     1       0.999  -2.841  -1.263  0.00  0.00    +0.066 C 
ATOM      9  C   UNL     1       0.114  -3.989  -0.734  0.00  0.00    -0.055 C 
ATOM     10  C   UNL     1       0.417  -5.270  -1.532  0.00  0.00    -0.016 C 
ATOM     11  C   UNL     1       1.536  -5.987  -0.753  0.00  0.00    -0.020 C 
ATOM     12  C   UNL     1       1.846  -5.068   0.445  0.00  0.00    -0.076 C 
ATOM     13  N   UNL     1       0.600  -4.246   0.657  0.00  0.00    +0.395 N 
ATOM     14  C   UNL     1       0.962  -2.913   1.176  0.00  0.00    +0.060 C 
ATOM     15  C   UNL     1       1.944  -3.017   2.309  0.00  0.00    -0.024 A 
ATOM     16  C   UNL     1       3.211  -3.546   2.418  0.00  0.00    +0.043 A 
ATOM     17  C   UNL     1       3.883  -3.490   3.628  0.00  0.00    +0.124 A 
ATOM     18  C   UNL     1       3.277  -2.904   4.726  0.00  0.00    +0.040 A 
ATOM     19  C   UNL     1       2.008  -2.374   4.619  0.00  0.00    +0.026 A 
ATOM     20  C   UNL     1       1.325  -2.426   3.406  0.00  0.00    +0.036 A 
ATOM     21  N   UNL     1       0.053  -1.967   3.054  0.00  0.00    -0.286 N 
ATOM     22  C   UNL     1      -0.236  -2.214   1.762  0.00  0.00    +0.212 C 
ATOM     23  O   UNL     1      -1.263  -1.929   1.183  0.00  0.00    -0.277 OA
ATOM     24  F   UNL     1       5.127  -4.008   3.737  0.00  0.00    -0.205 F 
ATOM     25  C   UNL     1       3.045  -2.142   0.009  0.00  0.00    +0.228 C 
ATOM     26  O   UNL     1       3.770  -3.115  -0.004  0.00  0.00    -0.275 OA
ATOM     27  N   UNL     1       3.431  -0.852   0.039  0.00  0.00    -0.285 N 
ATOM     28  H   UNL     1      -0.551  -1.522   3.669  0.00  0.00    +0.155 HD
ATOM     29  H   UNL     1       4.357  -0.564   0.054  0.00  0.00    +0.155 HD
ATOM     30  H   UNL     1      -0.086  -4.717   1.226  0.00  0.00    -0.079 HD
ENDROOT
BRANCH   8  31
ATOM     31  C   UNL     1       0.177  -1.879  -2.082  0.00  0.00    +0.172 C 
ATOM     32  O   UNL     1      -1.026  -1.821  -1.925  0.00  0.00    -0.291 OA
BRANCH  31  33
ATOM     33  C   UNL     1       0.805  -1.044  -3.032  0.00  0.00    +0.055 A 
ATOM     34  C   UNL     1       0.238  -0.094  -3.876  0.00  0.00    +0.019 A 
ATOM     35  C   UNL     1       1.114   0.568  -4.699  0.00  0.00    +0.008 A 
ATOM     36  C   UNL     1       2.436   0.263  -4.639  0.00  0.00    +0.046 A 
ATOM     37  S   UNL     1       2.533  -0.927  -3.457  0.00  0.00    -0.094 S 
ENDBRANCH  31  33
ENDBRANCH   8  31
TORSDOF 2
