REMARK  Name = ZINC08617366
REMARK  12 active torsions:
REMARK  status: ('A' for Active; 'I' for Inactive)
REMARK    1  A    between atoms: C_1  and  C_2
REMARK    2  A    between atoms: C_2  and  O_3
REMARK    3  A    between atoms: O_3  and  C_4
REMARK    4  A    between atoms: C_11  and  C_15
REMARK    5  A    between atoms: C_12  and  O_14
REMARK    6  A    between atoms: C_15  and  N_74
REMARK    7  A    between atoms: C_16  and  C_17
REMARK    8  A    between atoms: C_16  and  N_74
REMARK    9  A    between atoms: C_17  and  O_18
REMARK   10  A    between atoms: C_19  and  C_25
REMARK   11  A    between atoms: C_19  and  N_74
REMARK   12  A    between atoms: N_29  and  C_30
REMARK                            x       y       z     vdW  Elec       q    Type
REMARK                         _______ _______ _______ _____ _____    ______ ____
ROOT
ATOM      1  N   UNL     1      -0.283  -0.028   0.310  0.00  0.00    +0.393 N 
ATOM      2  H   UNL     1      -0.960  -0.707   0.675  0.00  0.00    -0.080 HD
ENDROOT
BRANCH   1   3
ATOM      3  C   UNL     1      -0.950   1.283   0.162  0.00  0.00    -0.002 C 
ATOM      4  C   UNL     1      -1.511   1.710   1.519  0.00  0.00    -0.004 C 
ATOM      5  C   UNL     1      -2.503   0.657   2.015  0.00  0.00    -0.001 C 
ATOM      6  C   UNL     1      -3.648   0.521   1.010  0.00  0.00    -0.000 C 
ATOM      7  C   UNL     1      -3.087   0.093  -0.348  0.00  0.00    -0.001 C 
ATOM      8  C   UNL     1      -2.095   1.147  -0.844  0.00  0.00    -0.004 C 
BRANCH   3   9
ATOM      9  C   UNL     1       0.028   2.321  -0.327  0.00  0.00    +0.141 A 
ATOM     10  N   UNL     1       1.297   2.135  -0.597  0.00  0.00    -0.115 NA
ATOM     11  N   UNL     1       1.789   3.260  -0.987  0.00  0.00    -0.023 NA
ATOM     12  N   UNL     1       0.867   4.158  -0.973  0.00  0.00    -0.044 NA
ATOM     13  N   UNL     1      -0.235   3.617  -0.577  0.00  0.00    -0.228 N 
BRANCH  13  14
ATOM     14  C   UNL     1      -1.528   4.288  -0.425  0.00  0.00    +0.111 C 
ATOM     15  C   UNL     1      -1.971   4.855  -1.775  0.00  0.00    +0.027 C 
ATOM     16  C   UNL     1      -3.321   5.556  -1.616  0.00  0.00    +0.002 C 
ATOM     17  C   UNL     1      -3.189   6.695  -0.604  0.00  0.00    +0.000 C 
ATOM     18  C   UNL     1      -2.746   6.128   0.747  0.00  0.00    +0.002 C 
ATOM     19  C   UNL     1      -1.396   5.427   0.588  0.00  0.00    +0.027 C 
ENDBRANCH  13  14
ENDBRANCH   3   9
ENDBRANCH   1   3
BRANCH   1  20
ATOM     20  C   UNL     1       0.844   0.084   1.260  0.00  0.00    -0.036 C 
BRANCH  20  28
ATOM     21  C   UNL     1       4.778  -4.638   1.261  0.00  0.00    +0.121 A 
ATOM     22  C   UNL     1       3.956  -5.514   1.974  0.00  0.00    +0.048 A 
ATOM     23  C   UNL     1       2.720  -5.130   2.393  0.00  0.00    +0.032 A 
ATOM     24  C   UNL     1       2.257  -3.833   2.110  0.00  0.00    +0.075 A 
ATOM     25  C   UNL     1       3.091  -2.945   1.387  0.00  0.00    +0.004 A 
ATOM     26  C   UNL     1       4.361  -3.371   0.967  0.00  0.00    +0.055 A 
ATOM     27  C   UNL     1       2.623  -1.647   1.099  0.00  0.00    +0.017 A 
ATOM     28  C   UNL     1       1.383  -1.295   1.541  0.00  0.00    -0.002 A 
ATOM     29  C   UNL     1       0.607  -2.220   2.251  0.00  0.00    +0.214 A 
ATOM     30  N   UNL     1       1.046  -3.431   2.512  0.00  0.00    -0.213 NA
BRANCH  29  31
ATOM     31  O   UNL     1      -0.627  -1.856   2.680  0.00  0.00    -0.492 OA
ATOM     32  H   UNL     1      -1.334  -2.041   2.046  0.00  0.00    +0.294 HD
ENDBRANCH  29  31
BRANCH  21  33
ATOM     33  O   UNL     1       6.008  -5.051   0.855  0.00  0.00    -0.492 OA
BRANCH  33  35
ATOM     34  C   UNL     1       7.793  -6.669   0.655  0.00  0.00    +0.048 C 
ATOM     35  C   UNL     1       6.388  -6.387   1.192  0.00  0.00    +0.225 C 
ENDBRANCH  33  35
ENDBRANCH  21  33
ENDBRANCH  20  28
ENDBRANCH   1  20
BRANCH   1  36
ATOM     36  C   UNL     1       0.208  -0.497  -1.002  0.00  0.00    -0.049 C 
BRANCH  36  37
ATOM     37  C   UNL     1       0.233  -2.027  -0.996  0.00  0.00    +0.137 C 
BRANCH  37  38
ATOM     38  O   UNL     1      -1.100  -2.524  -0.854  0.00  0.00    -0.397 OA
ATOM     39  H   UNL     1      -1.160  -3.489  -0.842  0.00  0.00    +0.209 HD
ENDBRANCH  37  38
ENDBRANCH  36  37
ENDBRANCH   1  36
TORSDOF 11
