REMARK  Name = ZINC12139918
REMARK  7 active torsions:
REMARK  status: ('A' for Active; 'I' for Inactive)
REMARK    1  A    between atoms: C_1  and  N_2
REMARK    2  A    between atoms: C_6  and  C_23
REMARK    3  A    between atoms: C_8  and  C_16
REMARK    4  A    between atoms: C_10  and  C_11
REMARK    5  A    between atoms: C_10  and  O_15
REMARK    6  A    between atoms: C_16  and  C_18
REMARK    7  A    between atoms: C_26  and  N_29
REMARK                            x       y       z     vdW  Elec       q    Type
REMARK                         _______ _______ _______ _____ _____    ______ ____
ROOT
ATOM      1  C   UNL     1      -1.905   8.912   0.363  0.00  0.00    +0.137 C 
ATOM      2  N   UNL     1      -2.314   7.631  -0.221  0.00  0.00    -0.253 N 
ATOM      3  C   UNL     1      -2.179   7.438  -1.541  0.00  0.00    +0.305 C 
ATOM      4  O   UNL     1      -1.728   8.340  -2.220  0.00  0.00    -0.253 OA
ATOM      5  N   UNL     1      -2.523   6.289  -2.142  0.00  0.00    -0.292 N 
ATOM      6  C   UNL     1      -3.082   5.170  -1.382  0.00  0.00    +0.120 C 
ATOM      7  C   UNL     1      -2.542   5.215   0.051  0.00  0.00    +0.145 C 
ATOM      8  C   UNL     1      -2.862   6.589   0.650  0.00  0.00    +0.245 C 
ATOM      9  H   UNL     1      -2.398   6.197  -3.099  0.00  0.00    +0.151 HD
ENDROOT
BRANCH   6  10
ATOM     10  C   UNL     1      -2.681   3.870  -2.030  0.00  0.00    -0.026 A 
ATOM     11  C   UNL     1      -1.408   3.720  -2.549  0.00  0.00    +0.008 A 
ATOM     12  C   UNL     1      -1.039   2.526  -3.139  0.00  0.00    +0.033 A 
ATOM     13  C   UNL     1      -1.945   1.486  -3.220  0.00  0.00    +0.126 A 
ATOM     14  C   UNL     1      -3.220   1.637  -2.707  0.00  0.00    +0.033 A 
ATOM     15  C   UNL     1      -3.588   2.829  -2.112  0.00  0.00    +0.008 A 
BRANCH  13  16
ATOM     16  N   UNL     1      -1.551   0.209  -3.857  0.00  0.00    +0.056 N 
ATOM     17  O   UNL     1      -2.349  -0.708  -3.929  0.00  0.00    -0.126 OA
ATOM     18  O   UNL     1      -0.428   0.075  -4.309  0.00  0.00    -0.126 OA
ENDBRANCH  13  16
ENDBRANCH   6  10
BRANCH   8  19
ATOM     19  C   UNL     1      -2.232   6.701   2.040  0.00  0.00    +0.436 C 
ATOM     20  F   UNL     1      -0.845   6.549   1.937  0.00  0.00    -0.166 F 
ATOM     21  F   UNL     1      -2.524   7.955   2.585  0.00  0.00    -0.166 F 
ATOM     22  F   UNL     1      -2.750   5.700   2.868  0.00  0.00    -0.166 F 
ENDBRANCH   8  19
BRANCH   8  23
ATOM     23  O   UNL     1      -4.278   6.748   0.752  0.00  0.00    -0.364 OA
ATOM     24  H   UNL     1      -4.553   7.597   1.124  0.00  0.00    +0.212 HD
ENDBRANCH   8  23
BRANCH   7  25
ATOM     25  C   UNL     1      -1.050   5.004   0.037  0.00  0.00    +0.180 C 
ATOM     26  O   UNL     1      -0.302   5.961   0.035  0.00  0.00    -0.291 OA
BRANCH  25  27
ATOM     27  C   UNL     1      -0.522   3.695   0.025  0.00  0.00    +0.055 A 
ATOM     28  C   UNL     1       0.807   3.285   0.011  0.00  0.00    +0.019 A 
ATOM     29  C   UNL     1       1.043   1.935   0.003  0.00  0.00    +0.008 A 
ATOM     30  C   UNL     1      -0.013   1.076   0.008  0.00  0.00    +0.046 A 
ATOM     31  S   UNL     1      -1.386   2.134   0.019  0.00  0.00    -0.094 S 
ENDBRANCH  25  27
ENDBRANCH   7  25
TORSDOF 6
