REMARK  Name = ZINC09835549
REMARK  12 active torsions:
REMARK  status: ('A' for Active; 'I' for Inactive)
REMARK    1  A    between atoms: C_1  and  C_2
REMARK    2  A    between atoms: C_6  and  N_9
REMARK    3  A    between atoms: C_7  and  C_8
REMARK    4  A    between atoms: C_10  and  C_25
REMARK    5  A    between atoms: C_12  and  O_16
REMARK    6  A    between atoms: O_16  and  C_17
REMARK    7  A    between atoms: C_25  and  N_54
REMARK    8  A    between atoms: C_26  and  C_27
REMARK    9  A    between atoms: C_26  and  N_54
REMARK   10  A    between atoms: C_27  and  C_28
REMARK   11  A    between atoms: C_28  and  O_29
REMARK   12  A    between atoms: O_29  and  C_30
REMARK                            x       y       z     vdW  Elec       q    Type
REMARK                         _______ _______ _______ _____ _____    ______ ____
ROOT
ATOM      1  N   UNL     1       3.587   3.835   1.024  0.00  0.00    -0.263 N 
ATOM      2  C   UNL     1       2.656   3.933  -0.114  0.00  0.00    +0.114 C 
ATOM      3  C   UNL     1       2.883   5.452  -0.051  0.00  0.00    +0.278 C 
ATOM      4  C   UNL     1       3.813   5.175   1.112  0.00  0.00    +0.263 C 
ATOM      5  O   UNL     1       4.492   5.871   1.837  0.00  0.00    -0.271 OA
ENDROOT
BRANCH   1  11
ATOM      6  C   UNL     1       3.123   0.760   4.832  0.00  0.00    +0.044 C 
ATOM      7  C   UNL     1       3.863   1.233   3.608  0.00  0.00    -0.046 A 
ATOM      8  C   UNL     1       5.021   0.590   3.208  0.00  0.00    +0.004 A 
ATOM      9  C   UNL     1       5.702   1.021   2.085  0.00  0.00    +0.002 A 
ATOM     10  C   UNL     1       5.229   2.097   1.359  0.00  0.00    +0.024 A 
ATOM     11  C   UNL     1       4.068   2.745   1.758  0.00  0.00    +0.040 A 
ATOM     12  C   UNL     1       3.389   2.313   2.889  0.00  0.00    -0.026 A 
ATOM     13  C   UNL     1       2.132   3.018   3.329  0.00  0.00    +0.046 C 
ENDBRANCH   1  11
BRANCH   3  14
ATOM     14  O   UNL     1       1.716   6.193   0.310  0.00  0.00    -0.476 OA
BRANCH  14  15
ATOM     15  C   UNL     1       1.681   7.504  -0.049  0.00  0.00    +0.140 A 
ATOM     16  C   UNL     1       2.797   8.097  -0.622  0.00  0.00    +0.048 A 
ATOM     17  C   UNL     1       2.760   9.429  -0.986  0.00  0.00    +0.023 A 
ATOM     18  C   UNL     1       1.611  10.173  -0.779  0.00  0.00    +0.043 A 
ATOM     19  C   UNL     1       0.497   9.584  -0.207  0.00  0.00    +0.043 A 
ATOM     20  C   UNL     1       0.528   8.250   0.153  0.00  0.00    +0.084 A 
ATOM     21 CL   UNL     1      -0.872   7.509   0.863  0.00  0.00    -0.080 Cl
ATOM     22 CL   UNL     1       1.568  11.846  -1.238  0.00  0.00    -0.083 Cl
ENDBRANCH  14  15
ENDBRANCH   3  14
BRANCH   2  23
ATOM     23  C   UNL     1       1.224   3.511   0.224  0.00  0.00    -0.055 C 
BRANCH  23  24
ATOM     24  N   UNL     1       1.158   2.039   0.295  0.00  0.00    +0.380 N 
ATOM     25  H   UNL     1       1.801   1.706   1.023  0.00  0.00    -0.086 HD
ATOM     26  H   UNL     1       1.434   1.644  -0.612  0.00  0.00    -0.086 HD
BRANCH  24  27
ATOM     27  C   UNL     1      -0.213   1.603   0.620  0.00  0.00    -0.080 C 
BRANCH  27  28
ATOM     28  C   UNL     1      -0.250   0.075   0.687  0.00  0.00    +0.009 C 
BRANCH  28  29
ATOM     29  C   UNL     1      -1.670  -0.386   1.024  0.00  0.00    +0.157 C 
BRANCH  29  30
ATOM     30  O   UNL     1      -1.705  -1.813   1.086  0.00  0.00    -0.383 OA
ATOM     31  C   UNL     1      -2.992  -2.350   1.396  0.00  0.00    +0.193 C 
ENDBRANCH  29  30
ENDBRANCH  28  29
ENDBRANCH  27  28
ENDBRANCH  24  27
ENDBRANCH  23  24
ENDBRANCH   2  23
TORSDOF 9
