REMARK  Name = ZINC24105447
REMARK  14 active torsions:
REMARK  status: ('A' for Active; 'I' for Inactive)
REMARK    1  A    between atoms: C_1  and  C_2
REMARK    2  A    between atoms: C_2  and  C_4
REMARK    3  A    between atoms: C_2  and  N_30
REMARK    4  A    between atoms: C_7  and  S_16
REMARK    5  A    between atoms: N_8  and  C_9
REMARK    6  A    between atoms: S_16  and  C_17
REMARK    7  A    between atoms: C_17  and  C_18
REMARK    8  A    between atoms: N_20  and  C_21
REMARK    9  A    between atoms: C_23  and  C_26
REMARK   10  A    between atoms: C_26  and  C_27
REMARK   11  A    between atoms: C_26  and  C_28
REMARK   12  A    between atoms: C_26  and  C_29
REMARK   13  A    between atoms: N_30  and  C_31
REMARK   14  A    between atoms: N_30  and  C_32
REMARK                            x       y       z     vdW  Elec       q    Type
REMARK                         _______ _______ _______ _____ _____    ______ ____
ROOT
ATOM      1  C   UNL     1      -7.212  -0.014   0.037  0.00  0.00    +0.125 A 
ATOM      2  N   UNL     1      -6.310  -0.954   0.028  0.00  0.00    -0.135 NA
ATOM      3  N   UNL     1      -5.133  -0.439   0.025  0.00  0.00    -0.122 NA
ATOM      4  C   UNL     1      -5.218   0.872   0.032  0.00  0.00    +0.197 A 
ATOM      5  N   UNL     1      -6.550   1.185   0.045  0.00  0.00    -0.275 N 
ENDROOT
BRANCH   5   6
ATOM      6  C   UNL     1      -7.119   2.468   0.061  0.00  0.00    +0.050 A 
ATOM      7  C   UNL     1      -7.860   2.885   1.157  0.00  0.00    +0.029 A 
ATOM      8  C   UNL     1      -8.414   4.151   1.174  0.00  0.00    +0.040 A 
ATOM      9  C   UNL     1      -8.241   4.997   0.092  0.00  0.00    +0.124 A 
ATOM     10  C   UNL     1      -7.506   4.580  -1.005  0.00  0.00    +0.040 A 
ATOM     11  C   UNL     1      -6.946   3.318  -1.023  0.00  0.00    +0.029 A 
ATOM     12  F   UNL     1      -8.789   6.232   0.107  0.00  0.00    -0.205 F 
ENDBRANCH   5   6
BRANCH   1  14
ATOM     13  C   UNL     1      -9.170  -0.638  -1.349  0.00  0.00    -0.005 C 
ATOM     14  C   UNL     1      -8.706  -0.209   0.044  0.00  0.00    -0.003 C 
BRANCH  14  15
ATOM     15  N   UNL     1      -9.059  -1.249   1.019  0.00  0.00    +0.382 N 
ATOM     16  C   UNL     1     -10.517  -1.385   1.139  0.00  0.00    -0.096 C 
ATOM     17  C   UNL     1      -8.439  -2.534   0.668  0.00  0.00    -0.096 C 
ATOM     18  H   UNL     1      -8.667  -0.941   1.999  0.00  0.00    -0.082 HD
ENDBRANCH  14  15
ENDBRANCH   1  14
BRANCH   4  19
ATOM     19  S   UNL     1      -3.874   2.010   0.031  0.00  0.00    -0.076 S 
BRANCH  19  20
ATOM     20  C   UNL     1      -2.482   0.853   0.018  0.00  0.00    +0.173 C 
BRANCH  20  21
ATOM     21  C   UNL     1      -1.187   1.624   0.017  0.00  0.00    +0.230 C 
ATOM     22  O   UNL     1      -1.204   2.836   0.023  0.00  0.00    -0.274 OA
ATOM     23  N   UNL     1      -0.011   0.966   0.007  0.00  0.00    -0.254 N 
ATOM     24  H   UNL     1       0.004  -0.134   0.006  0.00  0.00    +0.158 HD
BRANCH  23  25
ATOM     25  C   UNL     1       1.181   1.676  -0.000  0.00  0.00    +0.224 A 
ATOM     26  C   UNL     1       2.443   1.157  -0.015  0.00  0.00    +0.092 A 
ATOM     27  C   UNL     1       3.277   2.293  -0.017  0.00  0.00    +0.091 A 
ATOM     28  N   UNL     1       2.489   3.331  -0.004  0.00  0.00    -0.081 NA
ATOM     29  O   UNL     1       1.323   3.011  -0.000  0.00  0.00    -0.339 OA
BRANCH  27  30
ATOM     30  C   UNL     1       4.784   2.306  -0.032  0.00  0.00    +0.008 C 
ATOM     31  C   UNL     1       5.283   1.944  -1.432  0.00  0.00    +0.017 C 
ATOM     32  C   UNL     1       5.286   3.701   0.345  0.00  0.00    +0.017 C 
ATOM     33  C   UNL     1       5.312   1.284   0.978  0.00  0.00    +0.017 C 
ENDBRANCH  27  30
ENDBRANCH  23  25
ENDBRANCH  20  21
ENDBRANCH  19  20
ENDBRANCH   4  19
TORSDOF 8
