REMARK  Name = ZINC00550220
REMARK  4 active torsions:
REMARK  status: ('A' for Active; 'I' for Inactive)
REMARK    1  A    between atoms: C_1  and  C_2
REMARK    2  A    between atoms: C_5  and  N_8
REMARK    3  A    between atoms: N_18  and  N_19
REMARK    4  A    between atoms: C_23  and  C_25
REMARK                            x       y       z     vdW  Elec       q    Type
REMARK                         _______ _______ _______ _____ _____    ______ ____
ROOT
ATOM      1  N   UNL     1      -0.272  -4.445   0.161  0.00  0.00    -0.248 N 
ATOM      2  C   UNL     1      -0.278  -5.015  -1.058  0.00  0.00    +0.268 A 
ATOM      3  O   UNL     1      -0.304  -4.325  -2.063  0.00  0.00    -0.266 OA
ATOM      4  C   UNL     1      -0.249  -6.442  -1.158  0.00  0.00    +0.076 A 
ATOM      5  C   UNL     1      -0.246  -7.266  -2.368  0.00  0.00    -0.020 A 
ATOM      6  C   UNL     1      -0.222  -8.604  -2.198  0.00  0.00    -0.004 A 
ATOM      7  S   UNL     1      -0.201  -8.844  -0.442  0.00  0.00    -0.073 S 
ATOM      8  C   UNL     1      -0.226  -7.141   0.060  0.00  0.00    +0.118 A 
ATOM      9  N   UNL     1      -0.226  -6.517   1.233  0.00  0.00    -0.207 NA
ATOM     10  C   UNL     1      -0.249  -5.202   1.297  0.00  0.00    +0.218 A 
ATOM     11  N   UNL     1      -0.248  -4.584   2.523  0.00  0.00    -0.253 N 
ATOM     12  C   UNL     1      -0.214  -9.655  -3.265  0.00  0.00    +0.043 C 
ATOM     13  C   UNL     1       0.136  -8.986  -4.602  0.00  0.00    +0.006 C 
ATOM     14  C   UNL     1      -0.725  -7.729  -4.762  0.00  0.00    +0.008 C 
ATOM     15  C   UNL     1      -0.271  -6.659  -3.768  0.00  0.00    +0.018 C 
ATOM     16  C   UNL     1      -1.245  -5.480  -3.799  0.00  0.00    +0.012 C 
ATOM     17  H   UNL     1      -0.340  -3.620   2.580  0.00  0.00    +0.169 HD
ENDROOT
BRANCH   1  22
ATOM     18  C   UNL     1      -0.370   1.213   0.586  0.00  0.00    +0.044 C 
ATOM     19  C   UNL     1      -0.344  -0.289   0.473  0.00  0.00    -0.050 A 
ATOM     20  C   UNL     1      -1.530  -0.999   0.434  0.00  0.00    +0.005 A 
ATOM     21  C   UNL     1      -1.510  -2.376   0.325  0.00  0.00    +0.026 A 
ATOM     22  C   UNL     1      -0.296  -3.048   0.266  0.00  0.00    +0.053 A 
ATOM     23  C   UNL     1       0.893  -2.333   0.312  0.00  0.00    +0.026 A 
ATOM     24  C   UNL     1       0.866  -0.956   0.415  0.00  0.00    +0.005 A 
ENDBRANCH   1  22
BRANCH  11  25
ATOM     25  N   UNL     1      -0.118  -5.327   3.662  0.00  0.00    -0.254 NA
ATOM     26  H   UNL     1       0.721  -5.886   3.636  0.00  0.00    +0.140 HD
ATOM     27  H   UNL     1      -0.135  -4.738   4.482  0.00  0.00    +0.140 HD
ENDBRANCH  11  25
TORSDOF 2
