REMARK  Name = ZINC33794725
REMARK  9 active torsions:
REMARK  status: ('A' for Active; 'I' for Inactive)
REMARK    1  A    between atoms: C_1  and  C_2
REMARK    2  A    between atoms: C_3  and  C_36
REMARK    3  A    between atoms: C_8  and  C_27
REMARK    4  A    between atoms: C_10  and  C_11
REMARK    5  A    between atoms: C_11  and  C_12
REMARK    6  A    between atoms: C_30  and  N_33
REMARK    7  A    between atoms: N_33  and  C_34
REMARK    8  A    between atoms: N_33  and  C_35
REMARK    9  A    between atoms: C_36  and  C_38
REMARK                            x       y       z     vdW  Elec       q    Type
REMARK                         _______ _______ _______ _____ _____    ______ ____
ROOT
ATOM      1  C   UNL     1       6.124   6.782  -0.032  0.00  0.00    +0.067 C 
ATOM      2  C   UNL     1       6.894   5.490  -0.126  0.00  0.00    +0.058 A 
ATOM      3  C   UNL     1       8.285   5.484  -0.212  0.00  0.00    +0.078 A 
ATOM      4  S   UNL     1       8.600   3.726  -0.295  0.00  0.00    -0.049 S 
ATOM      5  C   UNL     1       6.948   3.196  -0.212  0.00  0.00    +0.169 A 
ATOM      6  N   UNL     1       6.281   4.338  -0.135  0.00  0.00    -0.229 NA
ATOM      7  N   UNL     1       6.454   1.906  -0.229  0.00  0.00    -0.232 N 
ATOM      8  C   UNL     1       5.037   1.536  -0.155  0.00  0.00    +0.152 C 
ATOM      9  C   UNL     1       4.982   0.027  -0.207  0.00  0.00    +0.077 C 
ATOM     10  C   UNL     1       6.312  -0.410  -0.301  0.00  0.00    +0.250 C 
ATOM     11  O   UNL     1       6.681  -1.569  -0.363  0.00  0.00    -0.282 OA
ATOM     12  C   UNL     1       7.194   0.787  -0.310  0.00  0.00    +0.293 C 
ATOM     13  O   UNL     1       8.405   0.758  -0.385  0.00  0.00    -0.266 OA
ENDROOT
BRANCH   8  14
ATOM     14  C   UNL     1       4.289   2.121  -1.325  0.00  0.00    -0.022 A 
ATOM     15  C   UNL     1       4.804   2.001  -2.603  0.00  0.00    +0.007 A 
ATOM     16  C   UNL     1       4.118   2.530  -3.678  0.00  0.00    +0.023 A 
ATOM     17  C   UNL     1       2.916   3.195  -3.474  0.00  0.00    +0.029 A 
ATOM     18  C   UNL     1       2.404   3.319  -2.188  0.00  0.00    +0.023 A 
ATOM     19  C   UNL     1       3.092   2.782  -1.118  0.00  0.00    +0.007 A 
BRANCH  17  20
ATOM     20  N   UNL     1       2.223   3.737  -4.558  0.00  0.00    -0.336 N 
ATOM     21  C   UNL     1       0.955   4.438  -4.340  0.00  0.00    +0.129 C 
ATOM     22  C   UNL     1       2.763   3.605  -5.913  0.00  0.00    +0.129 C 
ENDBRANCH  17  20
ENDBRANCH   8  14
BRANCH   3  23
ATOM     23  C   UNL     1       9.191   6.563  -0.230  0.00  0.00    +0.168 C 
ATOM     24  O   UNL     1       8.778   7.703  -0.163  0.00  0.00    -0.292 OA
ATOM     25  C   UNL     1      10.672   6.301  -0.331  0.00  0.00    +0.092 C 
ENDBRANCH   3  23
BRANCH   9  26
ATOM     26  C   UNL     1       3.850  -0.764  -0.171  0.00  0.00    +0.195 C 
ATOM     27  O   UNL     1       3.948  -2.094  -0.378  0.00  0.00    -0.287 OA
BRANCH  26  28
ATOM     28  C   UNL     1       2.537  -0.156   0.095  0.00  0.00    +0.026 A 
ATOM     29  C   UNL     1       2.362   0.686   1.200  0.00  0.00    +0.015 A 
ATOM     30  C   UNL     1       1.132   1.252   1.445  0.00  0.00    +0.050 A 
ATOM     31  C   UNL     1       0.059   0.991   0.599  0.00  0.00    +0.162 A 
ATOM     32  C   UNL     1       0.225   0.157  -0.504  0.00  0.00    +0.163 A 
ATOM     33  C   UNL     1       1.457  -0.417  -0.757  0.00  0.00    +0.061 A 
ATOM     34  O   UNL     1      -0.814  -0.102  -1.345  0.00  0.00    -0.485 OA
ATOM     35  C   UNL     1      -2.127   0.188  -0.852  0.00  0.00    +0.270 C 
ATOM     36  C   UNL     1      -2.100   1.578  -0.203  0.00  0.00    +0.270 C 
ATOM     37  O   UNL     1      -1.149   1.555   0.867  0.00  0.00    -0.485 OA
ENDBRANCH  26  28
ENDBRANCH   9  26
TORSDOF 5
