REMARK  Name = ZINC23448557
REMARK  9 active torsions:
REMARK  status: ('A' for Active; 'I' for Inactive)
REMARK    1  A    between atoms: C_1  and  C_2
REMARK    2  A    between atoms: C_4  and  C_16
REMARK    3  A    between atoms: C_5  and  C_15
REMARK    4  A    between atoms: N_6  and  C_7
REMARK    5  A    between atoms: C_16  and  C_18
REMARK    6  A    between atoms: C_18  and  N_19
REMARK    7  A    between atoms: C_22  and  C_26
REMARK    8  A    between atoms: C_22  and  C_27
REMARK    9  A    between atoms: C_30  and  C_33
REMARK                            x       y       z     vdW  Elec       q    Type
REMARK                         _______ _______ _______ _____ _____    ______ ____
ROOT
ATOM      1  C   UNL     1       0.034  -3.267  -2.953  0.00  0.00    +0.197 C 
ENDROOT
BRANCH   1   2
ATOM      2  N   UNL     1       0.049  -4.608  -3.542  0.00  0.00    -0.216 N 
ATOM      3  C   UNL     1       1.172  -5.288  -3.847  0.00  0.00    +0.251 C 
ATOM      4  O   UNL     1       2.316  -4.920  -3.691  0.00  0.00    -0.272 OA
ATOM      5  C   UNL     1       0.706  -6.610  -4.425  0.00  0.00    +0.135 C 
ATOM      6  N   UNL     1      -0.763  -6.511  -4.374  0.00  0.00    -0.281 N 
ATOM      7  C   UNL     1      -1.050  -5.310  -3.840  0.00  0.00    +0.310 C 
ATOM      8  O   UNL     1      -2.181  -4.908  -3.652  0.00  0.00    -0.252 OA
ATOM      9  C   UNL     1       1.197  -7.776  -3.565  0.00  0.00    +0.047 C 
ATOM     10  H   UNL     1      -1.399  -7.183  -4.666  0.00  0.00    +0.152 HD
BRANCH   5  11
ATOM     11  C   UNL     1       1.179  -6.762  -5.848  0.00  0.00    -0.015 A 
ATOM     12  C   UNL     1       2.364  -6.171  -6.247  0.00  0.00    +0.007 A 
ATOM     13  C   UNL     1       2.802  -6.306  -7.548  0.00  0.00    +0.019 A 
ATOM     14  C   UNL     1       2.047  -7.043  -8.462  0.00  0.00    +0.052 A 
ATOM     15  C   UNL     1       0.852  -7.638  -8.053  0.00  0.00    +0.019 A 
ATOM     16  C   UNL     1       0.428  -7.498  -6.747  0.00  0.00    +0.007 A 
BRANCH  14  17
ATOM     17  C   UNL     1       2.495  -7.188  -9.815  0.00  0.00    +0.099 C 
ATOM     18  N   UNL     1       2.851  -7.302 -10.887  0.00  0.00    -0.191 NA
ENDBRANCH  14  17
ENDBRANCH   5  11
ENDBRANCH   1   2
BRANCH   1  19
ATOM     19  C   UNL     1       0.041  -3.378  -1.450  0.00  0.00    +0.183 C 
ATOM     20  O   UNL     1       0.058  -4.471  -0.923  0.00  0.00    -0.290 OA
BRANCH  19  24
ATOM     21  C   UNL     1      -0.018   1.503   0.010  0.00  0.00    +0.064 C 
ATOM     22  C   UNL     1       0.002  -0.004   0.002  0.00  0.00    +0.022 A 
ATOM     23  C   UNL     1       0.008  -0.777  -1.097  0.00  0.00    +0.034 A 
ATOM     24  C   UNL     1       0.029  -2.168  -0.626  0.00  0.00    +0.040 A 
ATOM     25  C   UNL     1       0.034  -2.101   0.755  0.00  0.00    +0.031 A 
ATOM     26  N   UNL     1       0.024  -0.802   1.112  0.00  0.00    -0.317 N 
ATOM     27  C   UNL     1       0.053  -3.277   1.697  0.00  0.00    +0.064 C 
BRANCH  26  28
ATOM     28  C   UNL     1       0.030  -0.335   2.434  0.00  0.00    +0.048 A 
ATOM     29  C   UNL     1       1.133  -0.562   3.246  0.00  0.00    +0.029 A 
ATOM     30  C   UNL     1       1.138  -0.101   4.548  0.00  0.00    +0.042 A 
ATOM     31  C   UNL     1       0.044   0.587   5.044  0.00  0.00    +0.142 A 
ATOM     32  C   UNL     1      -1.058   0.815   4.235  0.00  0.00    +0.078 A 
ATOM     33  C   UNL     1      -1.065   0.360   2.930  0.00  0.00    +0.049 A 
ATOM     34 CL   UNL     1      -2.429   1.679   4.859  0.00  0.00    -0.081 Cl
ATOM     35  F   UNL     1       0.050   1.037   6.318  0.00  0.00    -0.204 F 
ENDBRANCH  26  28
ENDBRANCH  19  24
ENDBRANCH   1  19
TORSDOF 6
