REMARK  Name = ZINC22394395
REMARK  10 active torsions:
REMARK  status: ('A' for Active; 'I' for Inactive)
REMARK    1  A    between atoms: C_1  and  C_2
REMARK    2  A    between atoms: C_5  and  C_8
REMARK    3  A    between atoms: C_8  and  C_9
REMARK    4  A    between atoms: C_9  and  C_10
REMARK    5  A    between atoms: C_10  and  N_11
REMARK    6  A    between atoms: C_12  and  C_14
REMARK    7  A    between atoms: C_14  and  N_15
REMARK    8  A    between atoms: N_15  and  C_16
REMARK    9  A    between atoms: N_15  and  S_23
REMARK   10  A    between atoms: S_23  and  C_26
REMARK                            x       y       z     vdW  Elec       q    Type
REMARK                         _______ _______ _______ _____ _____    ______ ____
ROOT
ATOM      1  N   UNL     1       4.271  -1.194  -1.632  0.00  0.00    -0.194 N 
ENDROOT
BRANCH   1   2
ATOM      2  C   UNL     1       5.092  -0.343  -2.376  0.00  0.00    +0.055 A 
ATOM      3  C   UNL     1       5.715  -0.809  -3.527  0.00  0.00    +0.025 A 
ATOM      4  C   UNL     1       6.527   0.034  -4.261  0.00  0.00    +0.005 A 
ATOM      5  C   UNL     1       6.721   1.340  -3.851  0.00  0.00    +0.038 A 
ATOM      6  C   UNL     1       6.102   1.808  -2.704  0.00  0.00    +0.125 A 
ATOM      7  C   UNL     1       5.284   0.970  -1.968  0.00  0.00    +0.063 A 
ATOM      8  F   UNL     1       6.293   3.085  -2.307  0.00  0.00    -0.205 F 
ENDBRANCH   1   2
BRANCH   1   9
ATOM      9  S   UNL     1       4.647  -1.541  -0.058  0.00  0.00    +0.075 S 
ATOM     10  O   UNL     1       6.053  -1.377   0.070  0.00  0.00    -0.150 OA
ATOM     11  O   UNL     1       3.991  -2.761   0.258  0.00  0.00    -0.150 OA
BRANCH   9  12
ATOM     12  C   UNL     1       3.902  -0.295   0.942  0.00  0.00    +0.112 A 
ATOM     13  C   UNL     1       2.583  -0.423   1.335  0.00  0.00    +0.032 A 
ATOM     14  C   UNL     1       1.996   0.551   2.119  0.00  0.00    +0.051 A 
ATOM     15  C   UNL     1       2.728   1.661   2.513  0.00  0.00    +0.162 A 
ATOM     16  C   UNL     1       4.055   1.789   2.120  0.00  0.00    +0.164 A 
ATOM     17  C   UNL     1       4.638   0.807   1.333  0.00  0.00    +0.078 A 
ATOM     18  O   UNL     1       4.794   2.866   2.502  0.00  0.00    -0.485 OA
ATOM     19  C   UNL     1       4.071   4.007   2.976  0.00  0.00    +0.270 C 
ATOM     20  C   UNL     1       3.003   3.523   3.966  0.00  0.00    +0.270 C 
ATOM     21  O   UNL     1       2.133   2.617   3.278  0.00  0.00    -0.485 OA
ENDBRANCH   9  12
ENDBRANCH   1   9
BRANCH   1  22
ATOM     22  C   UNL     1       3.076  -1.779  -2.246  0.00  0.00    +0.227 C 
BRANCH  22  24
ATOM     23  N   UNL     1       0.720  -1.136  -2.634  0.00  0.00    -0.314 N 
ATOM     24  C   UNL     1       1.928  -0.809  -2.135  0.00  0.00    +0.232 C 
ATOM     25  O   UNL     1       2.092   0.265  -1.596  0.00  0.00    -0.274 OA
ATOM     26  H   UNL     1       0.571  -2.110  -3.123  0.00  0.00    +0.149 HD
BRANCH  23  27
ATOM     27  C   UNL     1      -0.397  -0.193  -2.526  0.00  0.00    +0.104 C 
BRANCH  27  28
ATOM     28  C   UNL     1      -1.644  -0.804  -3.167  0.00  0.00    +0.023 C 
BRANCH  28  29
ATOM     29  C   UNL     1      -2.810   0.181  -3.055  0.00  0.00    +0.036 C 
BRANCH  29  34
ATOM     30  C   UNL     1      -7.523  -2.127  -5.475  0.00  0.00    +0.044 C 
ATOM     31  C   UNL     1      -6.294  -1.525  -4.844  0.00  0.00    -0.050 A 
ATOM     32  C   UNL     1      -6.035  -1.731  -3.502  0.00  0.00    +0.003 A 
ATOM     33  C   UNL     1      -4.907  -1.179  -2.923  0.00  0.00    +0.004 A 
ATOM     34  C   UNL     1      -4.039  -0.421  -3.686  0.00  0.00    -0.047 A 
ATOM     35  C   UNL     1      -4.301  -0.211  -5.027  0.00  0.00    +0.004 A 
ATOM     36  C   UNL     1      -5.425  -0.767  -5.607  0.00  0.00    +0.003 A 
ENDBRANCH  29  34
ENDBRANCH  28  29
ENDBRANCH  27  28
ENDBRANCH  23  27
ENDBRANCH  22  24
ENDBRANCH   1  22
TORSDOF 9
