REMARK  Name = ZINC21526375
REMARK  11 active torsions:
REMARK  status: ('A' for Active; 'I' for Inactive)
REMARK    1  A    between atoms: C_1  and  C_2
REMARK    2  A    between atoms: C_2  and  C_3
REMARK    3  A    between atoms: C_3  and  S_4
REMARK    4  A    between atoms: S_4  and  C_5
REMARK    5  A    between atoms: C_5  and  C_6
REMARK    6  A    between atoms: C_6  and  C_7
REMARK    7  A    between atoms: C_7  and  N_8
REMARK    8  A    between atoms: C_17  and  C_18
REMARK    9  A    between atoms: C_17  and  C_19
REMARK   10  A    between atoms: N_21  and  C_22
REMARK   11  A    between atoms: C_28  and  C_30
REMARK                            x       y       z     vdW  Elec       q    Type
REMARK                         _______ _______ _______ _____ _____    ______ ____
ROOT
ATOM      1  N   UNL     1      -0.931   3.037   1.425  0.00  0.00    -0.281 N 
ATOM      2  C   UNL     1      -1.856   3.772   0.764  0.00  0.00    +0.264 C 
ATOM      3  O   UNL     1      -1.827   4.989   0.764  0.00  0.00    -0.268 OA
ATOM      4  C   UNL     1      -2.895   3.022   0.047  0.00  0.00    +0.109 A 
ATOM      5  C   UNL     1      -3.843   3.444  -0.838  0.00  0.00    +0.079 A 
ATOM      6  C   UNL     1      -4.574   2.317  -1.241  0.00  0.00    +0.153 A 
ATOM      7  C   UNL     1      -4.045   1.211  -0.576  0.00  0.00    +0.088 A 
ATOM      8  N   UNL     1      -3.028   1.646   0.218  0.00  0.00    -0.331 N 
ATOM      9  C   UNL     1      -2.169   0.902   1.140  0.00  0.00    +0.157 C 
ATOM     10  C   UNL     1      -0.810   1.596   1.236  0.00  0.00    +0.128 C 
ATOM     11  C   UNL     1      -0.027   1.330  -0.051  0.00  0.00    +0.043 C 
ATOM     12  C   UNL     1      -4.797   0.094  -1.013  0.00  0.00    +0.067 A 
ATOM     13  C   UNL     1      -5.715   0.547  -1.884  0.00  0.00    +0.198 A 
ATOM     14  O   UNL     1      -5.585   1.877  -2.021  0.00  0.00    -0.461 OA
ENDROOT
BRANCH  10  15
ATOM     15  C   UNL     1      -0.048   1.015   2.399  0.00  0.00    +0.238 C 
ATOM     16  O   UNL     1       0.864   0.240   2.199  0.00  0.00    -0.273 OA
ATOM     17  N   UNL     1      -0.378   1.355   3.660  0.00  0.00    -0.310 N 
ATOM     18  H   UNL     1      -1.254   1.995   3.845  0.00  0.00    +0.149 HD
BRANCH  17  19
ATOM     19  C   UNL     1       0.428   0.874   4.784  0.00  0.00    +0.076 C 
ATOM     20  C   UNL     1       1.569   1.857   5.052  0.00  0.00    +0.022 C 
ATOM     21  C   UNL     1       2.411   1.354   6.226  0.00  0.00    +0.002 C 
ATOM     22  C   UNL     1       1.532   1.242   7.473  0.00  0.00    +0.000 C 
ATOM     23  C   UNL     1       0.391   0.259   7.205  0.00  0.00    +0.005 C 
ATOM     24  C   UNL     1      -0.451   0.761   6.031  0.00  0.00    +0.006 C 
ATOM     25  C   UNL     1      -1.592  -0.222   5.764  0.00  0.00    +0.009 C 
ENDBRANCH  17  19
ENDBRANCH  10  15
BRANCH   1  26
ATOM     26  C   UNL     1      -0.025   3.710   2.360  0.00  0.00    +0.110 C 
BRANCH  26  27
ATOM     27  C   UNL     1       1.170   4.278   1.591  0.00  0.00    +0.030 C 
BRANCH  27  28
ATOM     28  C   UNL     1       2.174   4.876   2.579  0.00  0.00    +0.070 C 
BRANCH  28  29
ATOM     29  S   UNL     1       3.518   5.679   1.663  0.00  0.00    -0.161 S 
BRANCH  29  30
ATOM     30  C   UNL     1       4.607   6.327   2.960  0.00  0.00    +0.069 C 
BRANCH  30  32
ATOM     31  C   UNL     1       6.718   7.585   3.412  0.00  0.00    +0.004 C 
ATOM     32  C   UNL     1       5.799   7.039   2.317  0.00  0.00    +0.007 C 
ENDBRANCH  30  32
ENDBRANCH  29  30
ENDBRANCH  28  29
ENDBRANCH  27  28
ENDBRANCH  26  27
ENDBRANCH   1  26
TORSDOF 8
