REMARK  Name = ZINC38985623
REMARK  8 active torsions:
REMARK  status: ('A' for Active; 'I' for Inactive)
REMARK    1  A    between atoms: C_1  and  C_2
REMARK    2  A    between atoms: C_6  and  N_9
REMARK    3  A    between atoms: C_7  and  C_8
REMARK    4  A    between atoms: C_10  and  C_12
REMARK    5  A    between atoms: C_12  and  S_13
REMARK    6  A    between atoms: S_13  and  C_14
REMARK    7  A    between atoms: C_17  and  C_21
REMARK    8  A    between atoms: N_19  and  N_20
REMARK                            x       y       z     vdW  Elec       q    Type
REMARK                         _______ _______ _______ _____ _____    ______ ____
ROOT
ATOM      1  C   UNL     1      -0.334  -7.412   4.943  0.00  0.00    +0.189 C 
ATOM      2  N   UNL     1      -0.340  -6.744   6.046  0.00  0.00    -0.161 NA
ATOM      3  N   UNL     1      -0.435  -7.590   7.158  0.00  0.00    -0.243 N 
ATOM      4  C   UNL     1      -0.492  -8.963   6.625  0.00  0.00    +0.222 C 
ATOM      5  N   UNL     1      -0.427  -8.778   5.165  0.00  0.00    -0.223 N 
ATOM      6  H   UNL     1      -0.457  -7.327   8.091  0.00  0.00    +0.170 HD
ENDROOT
BRANCH   4   7
ATOM      7  C   UNL     1       0.699  -9.783   7.123  0.00  0.00    +0.197 C 
ATOM      8  C   UNL     1       0.648  -9.942   8.629  0.00  0.00    -0.017 C 
ATOM      9  C   UNL     1       1.758  -9.353   9.070  0.00  0.00    +0.065 C 
ATOM     10  C   UNL     1       1.825  -9.448  10.584  0.00  0.00    +0.057 C 
ATOM     11  C   UNL     1       0.388  -9.801  11.028  0.00  0.00    +0.011 C 
ATOM     12  C   UNL     1      -0.167 -10.500   9.767  0.00  0.00    +0.035 C 
ATOM     13  N   UNL     1       2.469  -8.859   8.020  0.00  0.00    -0.158 NA
ATOM     14  N   UNL     1       1.961  -9.053   6.911  0.00  0.00    -0.176 NA
ENDBRANCH   4   7
BRANCH   5  15
ATOM     15  N   UNL     1      -0.452  -9.760   4.216  0.00  0.00    -0.250 NA
ATOM     16  H   UNL     1      -0.391  -9.368   3.288  0.00  0.00    +0.141 HD
ATOM     17  H   UNL     1       0.283 -10.433   4.373  0.00  0.00    +0.141 HD
ENDBRANCH   5  15
BRANCH   1  18
ATOM     18  S   UNL     1      -0.226  -6.677   3.345  0.00  0.00    -0.078 S 
BRANCH  18  19
ATOM     19  C   UNL     1      -0.129  -4.898   3.686  0.00  0.00    +0.173 C 
BRANCH  19  21
ATOM     20  N   UNL     1       0.052  -2.797   2.393  0.00  0.00    -0.285 N 
ATOM     21  C   UNL     1      -0.031  -4.143   2.385  0.00  0.00    +0.227 C 
ATOM     22  O   UNL     1      -0.028  -4.745   1.333  0.00  0.00    -0.275 OA
ATOM     23  H   UNL     1       0.130  -2.321   3.234  0.00  0.00    +0.155 HD
BRANCH  20  29
ATOM     24  C   UNL     1       1.206   1.236  -0.172  0.00  0.00    +0.044 C 
ATOM     25  C   UNL     1       0.577  -0.131  -0.084  0.00  0.00    -0.046 A 
ATOM     26  C   UNL     1      -0.027  -0.686  -1.198  0.00  0.00    +0.004 A 
ATOM     27  C   UNL     1      -0.605  -1.940  -1.122  0.00  0.00    +0.002 A 
ATOM     28  C   UNL     1      -0.580  -2.642   0.067  0.00  0.00    +0.023 A 
ATOM     29  C   UNL     1       0.026  -2.088   1.187  0.00  0.00    +0.037 A 
ATOM     30  C   UNL     1       0.610  -0.831   1.106  0.00  0.00    -0.026 A 
ATOM     31  C   UNL     1       1.274  -0.228   2.317  0.00  0.00    +0.046 C 
ENDBRANCH  20  29
ENDBRANCH  19  21
ENDBRANCH  18  19
ENDBRANCH   1  18
TORSDOF 6
