REMARK  Name = ZINC36026982
REMARK  10 active torsions:
REMARK  status: ('A' for Active; 'I' for Inactive)
REMARK    1  A    between atoms: C_1  and  C_2
REMARK    2  A    between atoms: C_2  and  C_3
REMARK    3  A    between atoms: C_3  and  C_5
REMARK    4  A    between atoms: C_3  and  N_6
REMARK    5  A    between atoms: C_9  and  C_28
REMARK    6  A    between atoms: N_15  and  C_18
REMARK    7  A    between atoms: C_18  and  N_20
REMARK    8  A    between atoms: N_20  and  C_21
REMARK    9  A    between atoms: C_25  and  C_27
REMARK   10  A    between atoms: C_28  and  C_29
REMARK                            x       y       z     vdW  Elec       q    Type
REMARK                         _______ _______ _______ _____ _____    ______ ____
ROOT
ATOM      1  N   UNL     1      -1.951  -0.071   1.362  0.00  0.00    -0.311 N 
ATOM      2  C   UNL     1      -1.386  -0.248   2.574  0.00  0.00    +0.201 C 
ATOM      3  O   UNL     1      -0.337  -0.816   2.791  0.00  0.00    -0.277 OA
ATOM      4  C   UNL     1      -2.282   0.383   3.618  0.00  0.00    +0.023 C 
ATOM      5  N   UNL     1      -3.587   0.565   2.937  0.00  0.00    +0.401 N 
ATOM      6  C   UNL     1      -3.206   0.672   1.510  0.00  0.00    +0.006 C 
ATOM      7  C   UNL     1      -4.295   0.050   0.639  0.00  0.00    +0.025 C 
ATOM      8  C   UNL     1      -3.874   0.126  -0.833  0.00  0.00    +0.107 C 
ATOM      9  N   UNL     1      -3.551   1.522  -1.159  0.00  0.00    -0.312 N 
ATOM     10  C   UNL     1      -2.567   2.232  -0.331  0.00  0.00    +0.107 C 
ATOM     11  C   UNL     1      -2.999   2.138   1.136  0.00  0.00    +0.025 C 
ATOM     12  H   UNL     1      -4.184  -0.234   3.091  0.00  0.00    -0.082 HD
ATOM     13  H   UNL     1      -4.036   1.413   3.247  0.00  0.00    -0.082 HD
ENDROOT
BRANCH   1  14
ATOM     14  C   UNL     1      -1.393  -0.543   0.092  0.00  0.00    +0.071 C 
ATOM     15  C   UNL     1      -1.837  -1.986  -0.155  0.00  0.00    +0.028 C 
BRANCH  14  17
ATOM     16  C   UNL     1       0.580   0.971   0.329  0.00  0.00    +0.005 C 
ATOM     17  C   UNL     1       0.134  -0.482   0.152  0.00  0.00    +0.019 C 
ENDBRANCH  14  17
ENDBRANCH   1  14
BRANCH   9  18
ATOM     18  C   UNL     1      -4.145   2.138  -2.200  0.00  0.00    +0.137 C 
ATOM     19  S   UNL     1      -5.193   1.260  -3.231  0.00  0.00    -0.018 S 
BRANCH  18  20
ATOM     20  N   UNL     1      -3.915   3.446  -2.429  0.00  0.00    -0.297 N 
ATOM     21  H   UNL     1      -4.569   4.109  -2.156  0.00  0.00    +0.154 HD
BRANCH  20  22
ATOM     22  C   UNL     1      -2.734   3.849  -3.060  0.00  0.00    +0.033 A 
ATOM     23  C   UNL     1      -1.848   2.898  -3.551  0.00  0.00    +0.023 A 
ATOM     24  C   UNL     1      -0.683   3.299  -4.174  0.00  0.00    +0.002 A 
ATOM     25  C   UNL     1      -0.396   4.645  -4.309  0.00  0.00    +0.003 A 
ATOM     26  C   UNL     1      -1.276   5.594  -3.821  0.00  0.00    -0.049 A 
ATOM     27  C   UNL     1      -2.446   5.200  -3.202  0.00  0.00    +0.026 A 
ATOM     28  C   UNL     1      -0.960   7.060  -3.970  0.00  0.00    +0.044 C 
ENDBRANCH  20  22
ENDBRANCH  18  20
ENDBRANCH   9  18
BRANCH   4  29
ATOM     29  C   UNL     1      -2.433  -0.548   4.823  0.00  0.00    +0.028 C 
BRANCH  29  30
ATOM     30  C   UNL     1      -3.257   0.134   5.885  0.00  0.00    -0.048 A 
ATOM     31  C   UNL     1      -2.638   0.909   6.847  0.00  0.00    +0.003 A 
ATOM     32  C   UNL     1      -3.393   1.535   7.821  0.00  0.00    +0.000 A 
ATOM     33  C   UNL     1      -4.767   1.386   7.832  0.00  0.00    +0.000 A 
ATOM     34  C   UNL     1      -5.386   0.612   6.869  0.00  0.00    +0.000 A 
ATOM     35  C   UNL     1      -4.631  -0.011   5.893  0.00  0.00    +0.003 A 
ENDBRANCH  29  30
ENDBRANCH   4  29
TORSDOF 7
