REMARK  Name = ZINC09334612
REMARK  8 active torsions:
REMARK  status: ('A' for Active; 'I' for Inactive)
REMARK    1  A    between atoms: C_1  and  C_2
REMARK    2  A    between atoms: C_2  and  C_3
REMARK    3  A    between atoms: C_8  and  N_9
REMARK    4  A    between atoms: C_12  and  C_17
REMARK    5  A    between atoms: C_17  and  S_18
REMARK    6  A    between atoms: S_18  and  C_19
REMARK    7  A    between atoms: C_22  and  C_25
REMARK    8  A    between atoms: N_23  and  C_24
REMARK                            x       y       z     vdW  Elec       q    Type
REMARK                         _______ _______ _______ _____ _____    ______ ____
ROOT
ATOM      1  N   UNL     1      -2.497  -8.520   1.907  0.00  0.00    -0.283 N 
ATOM      2  C   UNL     1      -1.958  -7.919   0.787  0.00  0.00    +0.224 A 
ATOM      3  N   UNL     1      -1.575  -6.645   0.833  0.00  0.00    -0.198 NA
ATOM      4  C   UNL     1      -1.064  -6.067  -0.240  0.00  0.00    +0.146 A 
ATOM      5  N   UNL     1      -0.922  -6.754  -1.361  0.00  0.00    -0.199 NA
ATOM      6  C   UNL     1      -1.298  -8.030  -1.413  0.00  0.00    +0.217 A 
ATOM      7  N   UNL     1      -1.816  -8.613  -0.338  0.00  0.00    -0.181 NA
ATOM      8  N   UNL     1      -1.149  -8.746  -2.583  0.00  0.00    -0.327 N 
ATOM      9  H   UNL     1      -2.520  -8.042   2.751  0.00  0.00    +0.155 HD
ATOM     10  H   UNL     1      -0.771  -8.320  -3.368  0.00  0.00    +0.145 HD
ATOM     11  H   UNL     1      -1.423  -9.676  -2.621  0.00  0.00    +0.145 HD
ENDROOT
BRANCH   1  17
ATOM     12  C   UNL     1      -2.988 -10.646   2.942  0.00  0.00    -0.026 A 
ATOM     13  C   UNL     1      -3.494 -11.929   2.858  0.00  0.00    +0.005 A 
ATOM     14  C   UNL     1      -4.022 -12.389   1.666  0.00  0.00    +0.000 A 
ATOM     15  C   UNL     1      -4.045 -11.567   0.553  0.00  0.00    +0.002 A 
ATOM     16  C   UNL     1      -3.544 -10.283   0.631  0.00  0.00    +0.023 A 
ATOM     17  C   UNL     1      -3.008  -9.819   1.826  0.00  0.00    +0.037 A 
BRANCH  12  19
ATOM     18  C   UNL     1      -3.488  -9.378   5.013  0.00  0.00    +0.009 C 
ATOM     19  C   UNL     1      -2.413 -10.146   4.241  0.00  0.00    +0.033 C 
ENDBRANCH  12  19
ENDBRANCH   1  17
BRANCH   4  20
ATOM     20  C   UNL     1      -0.637  -4.623  -0.185  0.00  0.00    +0.153 C 
BRANCH  20  21
ATOM     21  S   UNL     1      -2.028  -3.565  -0.656  0.00  0.00    -0.078 S 
BRANCH  21  22
ATOM     22  C   UNL     1      -1.271  -1.981  -0.509  0.00  0.00    +0.192 A 
ATOM     23  N   UNL     1      -0.030  -1.740  -0.148  0.00  0.00    -0.122 NA
ATOM     24  N   UNL     1       0.192  -0.474  -0.146  0.00  0.00    -0.128 NA
ATOM     25  C   UNL     1      -0.894   0.171  -0.504  0.00  0.00    +0.165 A 
ATOM     26  N   UNL     1      -1.865  -0.773  -0.743  0.00  0.00    -0.305 N 
ATOM     27  C   UNL     1      -3.248  -0.534  -1.164  0.00  0.00    +0.153 C 
BRANCH  25  28
ATOM     28  C   UNL     1      -1.045   1.637  -0.624  0.00  0.00    +0.019 A 
ATOM     29  C   UNL     1      -2.107   2.175  -1.353  0.00  0.00    +0.013 A 
ATOM     30  C   UNL     1      -2.245   3.543  -1.457  0.00  0.00    +0.021 A 
ATOM     31  C   UNL     1      -1.329   4.383  -0.847  0.00  0.00    +0.041 A 
ATOM     32  C   UNL     1      -0.271   3.855  -0.126  0.00  0.00    +0.021 A 
ATOM     33  C   UNL     1      -0.124   2.489  -0.011  0.00  0.00    +0.013 A 
ATOM     34 CL   UNL     1      -1.506   6.104  -0.988  0.00  0.00    -0.084 Cl
ENDBRANCH  25  28
ENDBRANCH  21  22
ENDBRANCH  20  21
ENDBRANCH   4  20
TORSDOF 6
