REMARK  Name = ZINC63375321
REMARK  10 active torsions:
REMARK  status: ('A' for Active; 'I' for Inactive)
REMARK    1  A    between atoms: C_1  and  C_2
REMARK    2  A    between atoms: C_2  and  O_3
REMARK    3  A    between atoms: O_3  and  C_4
REMARK    4  A    between atoms: C_7  and  C_12
REMARK    5  A    between atoms: C_9  and  O_10
REMARK    6  A    between atoms: O_10  and  C_11
REMARK    7  A    between atoms: C_21  and  O_28
REMARK    8  A    between atoms: C_22  and  O_26
REMARK    9  A    between atoms: O_26  and  C_27
REMARK   10  A    between atoms: O_28  and  C_29
REMARK                            x       y       z     vdW  Elec       q    Type
REMARK                         _______ _______ _______ _____ _____    ______ ____
ROOT
ATOM      1  C   UNL     1       1.107  -6.044  -1.844  0.00  0.00    +0.065 C 
ATOM      2  C   UNL     1      -0.296  -6.680  -1.875  0.00  0.00    +0.121 C 
ATOM      3  N   UNL     1      -0.370  -7.673  -0.795  0.00  0.00    -0.287 N 
ATOM      4  C   UNL     1      -0.106  -7.396   0.631  0.00  0.00    +0.134 C 
ATOM      5  C   UNL     1      -0.110  -8.722   1.317  0.00  0.00    -0.009 A 
ATOM      6  C   UNL     1       0.161  -9.085   2.616  0.00  0.00    +0.010 A 
ATOM      7  C   UNL     1       0.056 -10.437   2.935  0.00  0.00    +0.050 A 
ATOM      8  C   UNL     1      -0.305 -11.382   1.994  0.00  0.00    +0.162 A 
ATOM      9  C   UNL     1      -0.582 -11.032   0.669  0.00  0.00    +0.174 A 
ATOM     10  C   UNL     1      -0.474  -9.673   0.342  0.00  0.00    +0.087 A 
ATOM     11  C   UNL     1      -0.667  -8.980  -0.930  0.00  0.00    +0.251 C 
ATOM     12  O   UNL     1      -1.043  -9.506  -1.960  0.00  0.00    -0.270 OA
ATOM     13  C   UNL     1       1.250  -6.701   0.734  0.00  0.00    +0.132 C 
ATOM     14  C   UNL     1       1.840  -6.646  -0.671  0.00  0.00    -0.028 C 
ATOM     15  C   UNL     1       3.039  -7.219  -0.604  0.00  0.00    -0.000 A 
ATOM     16  C   UNL     1       4.102  -7.380  -1.609  0.00  0.00    +0.010 A 
ATOM     17  C   UNL     1       5.216  -8.044  -1.200  0.00  0.00    +0.001 A 
ATOM     18  C   UNL     1       5.376  -8.557   0.091  0.00  0.00    +0.002 A 
ATOM     19  C   UNL     1       4.453  -8.448   1.079  0.00  0.00    +0.026 A 
ATOM     20  C   UNL     1       3.242  -7.763   0.773  0.00  0.00    +0.043 A 
ATOM     21  N   UNL     1       2.204  -7.472   1.533  0.00  0.00    -0.375 N 
ATOM     22  H   UNL     1       2.084  -7.741   2.457  0.00  0.00    +0.160 HD
ENDROOT
BRANCH   1  26
ATOM     23  C   UNL     1       0.777  -1.811  -1.336  0.00  0.00    +0.162 A 
ATOM     24  C   UNL     1       0.243  -2.669  -0.388  0.00  0.00    +0.050 A 
ATOM     25  C   UNL     1       0.352  -4.037  -0.555  0.00  0.00    +0.008 A 
ATOM     26  C   UNL     1       0.992  -4.552  -1.667  0.00  0.00    -0.035 A 
ATOM     27  C   UNL     1       1.526  -3.702  -2.616  0.00  0.00    +0.053 A 
ATOM     28  C   UNL     1       1.416  -2.330  -2.458  0.00  0.00    +0.162 A 
BRANCH  28  29
ATOM     29  O   UNL     1       1.936  -1.492  -3.394  0.00  0.00    -0.491 OA
ATOM     30  C   UNL     1       2.578  -2.095  -4.520  0.00  0.00    +0.277 C 
ENDBRANCH  28  29
BRANCH  23  31
ATOM     31  O   UNL     1       0.671  -0.465  -1.174  0.00  0.00    -0.489 OA
BRANCH  31  33
ATOM     32  C   UNL     1      -0.019   1.526   0.010  0.00  0.00    +0.048 C 
ATOM     33  C   UNL     1       0.002  -0.004   0.002  0.00  0.00    +0.226 C 
ENDBRANCH  31  33
ENDBRANCH  23  31
ENDBRANCH   1  26
BRANCH   9  34
ATOM     34  O   UNL     1      -0.938 -11.961  -0.254  0.00  0.00    -0.491 OA
ATOM     35  C   UNL     1      -2.333 -12.234  -0.395  0.00  0.00    +0.277 C 
ENDBRANCH   9  34
BRANCH   8  36
ATOM     36  O   UNL     1      -0.394 -12.687   2.366  0.00  0.00    -0.491 OA
ATOM     37  C   UNL     1      -0.102 -12.994   3.731  0.00  0.00    +0.277 C 
ENDBRANCH   8  36
TORSDOF 6
