REMARK  Name = ZINC64061400
REMARK  10 active torsions:
REMARK  status: ('A' for Active; 'I' for Inactive)
REMARK    1  A    between atoms: C_1  and  C_2
REMARK    2  A    between atoms: C_6  and  C_21
REMARK    3  A    between atoms: C_8  and  C_18
REMARK    4  A    between atoms: N_10  and  C_11
REMARK    5  A    between atoms: C_11  and  C_12
REMARK    6  A    between atoms: C_18  and  O_19
REMARK    7  A    between atoms: O_19  and  C_20
REMARK    8  A    between atoms: N_23  and  C_24
REMARK    9  A    between atoms: C_24  and  C_25
REMARK   10  A    between atoms: C_25  and  C_26
REMARK                            x       y       z     vdW  Elec       q    Type
REMARK                         _______ _______ _______ _____ _____    ______ ____
ROOT
ATOM      1  C   UNL     1      -0.806   1.776   1.470  0.00  0.00    +0.060 C 
ATOM      2  C   UNL     1      -0.396   0.415   0.971  0.00  0.00    +0.007 C 
ATOM      3  C   UNL     1      -0.133   0.224  -0.344  0.00  0.00    +0.065 C 
ATOM      4  C   UNL     1       0.232  -1.038  -0.829  0.00  0.00    +0.171 C 
ATOM      5  O   UNL     1       0.482  -1.181  -2.010  0.00  0.00    -0.292 OA
ATOM      6  C   UNL     1       0.317  -2.221   0.102  0.00  0.00    +0.168 C 
ATOM      7  C   UNL     1       0.645  -1.721   1.514  0.00  0.00    +0.118 C 
ATOM      8  N   UNL     1      -0.283  -0.630   1.843  0.00  0.00    -0.327 N 
ENDROOT
BRANCH   6   9
ATOM      9  C   UNL     1      -1.003  -2.947   0.116  0.00  0.00    +0.226 C 
ATOM     10  O   UNL     1      -1.661  -2.991   1.134  0.00  0.00    -0.275 OA
ATOM     11  N   UNL     1      -1.454  -3.548  -1.004  0.00  0.00    -0.315 N 
ATOM     12  H   UNL     1      -0.928  -3.513  -1.818  0.00  0.00    +0.149 HD
BRANCH  11  13
ATOM     13  C   UNL     1      -2.737  -4.254  -0.990  0.00  0.00    +0.108 C 
BRANCH  13  14
ATOM     14  C   UNL     1      -3.011  -4.841  -2.377  0.00  0.00    +0.065 C 
BRANCH  14  15
ATOM     15  C   UNL     1      -4.351  -5.579  -2.363  0.00  0.00    +0.175 C 
ATOM     16  N   UNL     1      -4.293  -6.711  -1.430  0.00  0.00    -0.363 N 
ATOM     17  C   UNL     1      -4.507  -7.795  -2.118  0.00  0.00    +0.060 A 
ATOM     18  C   UNL     1      -4.571  -9.216  -1.749  0.00  0.00    +0.027 A 
ATOM     19  C   UNL     1      -4.815 -10.140  -2.700  0.00  0.00    +0.002 A 
ATOM     20  C   UNL     1      -5.014  -9.803  -4.051  0.00  0.00    +0.002 A 
ATOM     21  C   UNL     1      -4.976  -8.531  -4.496  0.00  0.00    +0.027 A 
ATOM     22  C   UNL     1      -4.718  -7.439  -3.547  0.00  0.00    +0.060 A 
ATOM     23  N   UNL     1      -4.627  -6.148  -3.688  0.00  0.00    -0.363 N 
ATOM     24  H   UNL     1      -4.127  -6.661  -0.475  0.00  0.00    +0.162 HD
ATOM     25  H   UNL     1      -4.724  -5.652  -4.516  0.00  0.00    +0.162 HD
ENDBRANCH  14  15
ENDBRANCH  13  14
ENDBRANCH  11  13
ENDBRANCH   6   9
BRANCH   8  26
ATOM     26  C   UNL     1      -1.071  -0.666   3.077  0.00  0.00    +0.108 C 
BRANCH  26  27
ATOM     27  C   UNL     1      -0.319   0.073   4.185  0.00  0.00    +0.006 C 
ATOM     28  C   UNL     1       0.819  -0.807   4.705  0.00  0.00    +0.005 C 
ATOM     29  C   UNL     1       1.571  -0.067   5.812  0.00  0.00    +0.000 C 
ATOM     30  C   UNL     1       0.609   0.251   6.958  0.00  0.00    +0.000 C 
ATOM     31  C   UNL     1      -0.529   1.131   6.439  0.00  0.00    +0.000 C 
ATOM     32  C   UNL     1      -1.282   0.392   5.331  0.00  0.00    +0.005 C 
ENDBRANCH  26  27
ENDBRANCH   8  26
BRANCH   7  33
ATOM     33  C   UNL     1       2.083  -1.201   1.557  0.00  0.00    +0.183 C 
BRANCH  33  34
ATOM     34  O   UNL     1       2.260  -0.203   0.550  0.00  0.00    -0.381 OA
ATOM     35  C   UNL     1       3.576   0.350   0.505  0.00  0.00    +0.194 C 
ENDBRANCH  33  34
ENDBRANCH   7  33
TORSDOF 8
