REMARK  Name = ZINC39928490
REMARK  16 active torsions:
REMARK  status: ('A' for Active; 'I' for Inactive)
REMARK    1  A    between atoms: C_1  and  C_2
REMARK    2  A    between atoms: C_2  and  O_3
REMARK    3  A    between atoms: O_3  and  C_4
REMARK    4  A    between atoms: C_6  and  C_16
REMARK    5  A    between atoms: C_8  and  O_13
REMARK    6  A    between atoms: C_9  and  O_10
REMARK    7  A    between atoms: O_10  and  C_11
REMARK    8  A    between atoms: C_11  and  C_12
REMARK    9  A    between atoms: O_13  and  C_14
REMARK   10  A    between atoms: C_14  and  C_15
REMARK   11  A    between atoms: N_18  and  C_19
REMARK   12  A    between atoms: N_18  and  C_34
REMARK   13  A    between atoms: C_19  and  C_20
REMARK   14  A    between atoms: C_26  and  O_32
REMARK   15  A    between atoms: O_32  and  C_33
REMARK   16  A    between atoms: C_37  and  C_40
REMARK                            x       y       z     vdW  Elec       q    Type
REMARK                         _______ _______ _______ _____ _____    ______ ____
ROOT
ATOM      1  C   UNL     1      -0.899  -5.470   0.139  0.00  0.00    +0.251 C 
ATOM      2  O   UNL     1      -0.460  -4.835  -0.800  0.00  0.00    -0.270 OA
ATOM      3  N   UNL     1      -0.572  -6.770   0.284  0.00  0.00    -0.266 N 
ENDROOT
BRANCH   3   4
ATOM      4  C   UNL     1       0.374  -7.352  -0.565  0.00  0.00    +0.037 A 
ATOM      5  C   UNL     1       0.598  -8.722  -0.522  0.00  0.00    +0.024 A 
ATOM      6  C   UNL     1       1.532  -9.295  -1.362  0.00  0.00    +0.005 A 
ATOM      7  C   UNL     1       2.245  -8.505  -2.246  0.00  0.00    -0.050 A 
ATOM      8  C   UNL     1       2.024  -7.141  -2.292  0.00  0.00    +0.005 A 
ATOM      9  C   UNL     1       1.087  -6.563  -1.458  0.00  0.00    +0.024 A 
ATOM     10  C   UNL     1       3.264  -9.133  -3.161  0.00  0.00    +0.044 C 
ENDBRANCH   3   4
BRANCH   1  13
ATOM     11  C   UNL     1      -2.457  -4.450   3.401  0.00  0.00    +0.166 A 
ATOM     12  C   UNL     1      -1.622  -5.061   2.485  0.00  0.00    +0.062 A 
ATOM     13  C   UNL     1      -1.789  -4.819   1.119  0.00  0.00    +0.044 A 
ATOM     14  C   UNL     1      -2.799  -3.958   0.683  0.00  0.00    +0.062 A 
ATOM     15  C   UNL     1      -3.631  -3.349   1.604  0.00  0.00    +0.166 A 
ATOM     16  C   UNL     1      -3.467  -3.596   2.964  0.00  0.00    +0.204 A 
BRANCH  11  17
ATOM     17  O   UNL     1      -2.296  -4.686   4.731  0.00  0.00    -0.488 OA
BRANCH  17  19
ATOM     18  C   UNL     1      -1.214  -5.713   6.632  0.00  0.00    +0.048 C 
ATOM     19  C   UNL     1      -1.240  -5.571   5.109  0.00  0.00    +0.226 C 
ENDBRANCH  17  19
ENDBRANCH  11  17
BRANCH  16  20
ATOM     20  O   UNL     1      -4.289  -3.000   3.866  0.00  0.00    -0.485 OA
BRANCH  20  21
ATOM     21  C   UNL     1      -3.882  -1.729   4.375  0.00  0.00    +0.226 C 
ATOM     22  C   UNL     1      -4.926  -1.219   5.370  0.00  0.00    +0.048 C 
ENDBRANCH  20  21
ENDBRANCH  16  20
BRANCH  15  23
ATOM     23  O   UNL     1      -4.615  -2.511   1.180  0.00  0.00    -0.488 OA
BRANCH  23  24
ATOM     24  C   UNL     1      -4.813  -2.403  -0.231  0.00  0.00    +0.226 C 
ATOM     25  C   UNL     1      -5.987  -1.464  -0.512  0.00  0.00    +0.048 C 
ENDBRANCH  23  24
ENDBRANCH  15  23
ENDBRANCH   1  13
BRANCH   3  26
ATOM     26  C   UNL     1      -1.207  -7.572   1.333  0.00  0.00    +0.131 C 
BRANCH  26  27
ATOM     27  C   UNL     1      -2.614  -7.974   0.885  0.00  0.00    +0.116 C 
ATOM     28  C   UNL     1      -3.316  -8.607   2.070  0.00  0.00    -0.003 C 
ATOM     29  C   UNL     1      -3.775  -9.879   1.919  0.00  0.00    -0.007 A 
ATOM     30  C   UNL     1      -4.465 -10.560   3.017  0.00  0.00    +0.013 A 
ATOM     31  C   UNL     1      -4.909 -11.826   2.830  0.00  0.00    +0.046 A 
ATOM     32  C   UNL     1      -4.721 -12.492   1.609  0.00  0.00    +0.122 A 
ATOM     33  C   UNL     1      -4.081 -11.902   0.541  0.00  0.00    +0.069 A 
ATOM     34  C   UNL     1      -3.587 -10.595   0.644  0.00  0.00    +0.044 A 
ATOM     35  N   UNL     1      -2.968 -10.034  -0.398  0.00  0.00    -0.284 N 
ATOM     36  C   UNL     1      -2.480  -8.807  -0.370  0.00  0.00    +0.226 C 
ATOM     37  O   UNL     1      -1.926  -8.348  -1.351  0.00  0.00    -0.275 OA
ATOM     38  H   UNL     1      -2.872 -10.552  -1.212  0.00  0.00    +0.155 HD
BRANCH  32  39
ATOM     39  O   UNL     1      -5.185 -13.757   1.476  0.00  0.00    -0.495 OA
ATOM     40  C   UNL     1      -5.843 -14.329   2.608  0.00  0.00    +0.277 C 
ENDBRANCH  32  39
ENDBRANCH  26  27
ENDBRANCH   3  26
TORSDOF 11
