REMARK  Name = ZINC35026728
REMARK  7 active torsions:
REMARK  status: ('A' for Active; 'I' for Inactive)
REMARK    1  A    between atoms: C_1  and  C_2
REMARK    2  A    between atoms: C_2  and  C_4
REMARK    3  A    between atoms: C_2  and  N_16
REMARK    4  A    between atoms: N_16  and  C_17
REMARK    5  A    between atoms: C_17  and  C_18
REMARK    6  A    between atoms: N_25  and  C_26
REMARK    7  A    between atoms: C_31  and  C_32
REMARK                            x       y       z     vdW  Elec       q    Type
REMARK                         _______ _______ _______ _____ _____    ______ ____
ROOT
ATOM      1  N   UNL     1      -1.251  -0.183   0.149  0.00  0.00    -0.268 N 
ATOM      2  C   UNL     1      -1.505  -0.626   1.397  0.00  0.00    +0.307 C 
ATOM      3  O   UNL     1      -0.595  -0.754   2.193  0.00  0.00    -0.252 OA
ATOM      4  N   UNL     1      -2.767  -0.927   1.762  0.00  0.00    -0.269 N 
ATOM      5  H   UNL     1      -3.483  -0.887   1.109  0.00  0.00    +0.156 HD
ENDROOT
BRANCH   4   6
ATOM      6  C   UNL     1      -3.044  -1.298   3.083  0.00  0.00    +0.046 A 
ATOM      7  C   UNL     1      -2.067  -1.918   3.851  0.00  0.00    +0.024 A 
ATOM      8  C   UNL     1      -2.343  -2.282   5.154  0.00  0.00    +0.002 A 
ATOM      9  C   UNL     1      -3.591  -2.029   5.694  0.00  0.00    +0.001 A 
ATOM     10  C   UNL     1      -4.566  -1.411   4.932  0.00  0.00    +0.014 A 
ATOM     11  C   UNL     1      -4.293  -1.040   3.630  0.00  0.00    +0.076 A 
BRANCH  11  12
ATOM     12  C   UNL     1      -5.354  -0.361   2.802  0.00  0.00    +0.419 C 
ATOM     13  F   UNL     1      -6.517  -0.212   3.565  0.00  0.00    -0.166 F 
ATOM     14  F   UNL     1      -4.896   0.898   2.398  0.00  0.00    -0.166 F 
ATOM     15  F   UNL     1      -5.634  -1.139   1.673  0.00  0.00    -0.166 F 
ENDBRANCH  11  12
ENDBRANCH   4   6
BRANCH   1  17
ATOM     16  C   UNL     1       1.012  -1.086  -0.064  0.00  0.00    +0.036 C 
ATOM     17  C   UNL     1       0.120   0.144  -0.247  0.00  0.00    +0.141 C 
BRANCH  17  18
ATOM     18  C   UNL     1       0.636   1.270   0.610  0.00  0.00    +0.131 A 
ATOM     19  N   UNL     1       1.937   1.640   0.475  0.00  0.00    -0.309 N 
ATOM     20  H   UNL     1       2.504   1.178  -0.162  0.00  0.00    +0.170 HD
ATOM     21  C   UNL     1       2.448   2.646   1.222  0.00  0.00    +0.259 A 
ATOM     22  O   UNL     1       3.611   2.988   1.111  0.00  0.00    -0.267 OA
ATOM     23  C   UNL     1       1.544   3.311   2.172  0.00  0.00    +0.065 A 
ATOM     24  C   UNL     1       1.971   4.357   2.988  0.00  0.00    +0.015 A 
ATOM     25  C   UNL     1       1.081   4.944   3.861  0.00  0.00    +0.001 A 
ATOM     26  C   UNL     1      -0.233   4.502   3.933  0.00  0.00    +0.002 A 
ATOM     27  C   UNL     1      -0.675   3.469   3.137  0.00  0.00    +0.028 A 
ATOM     28  C   UNL     1       0.208   2.858   2.244  0.00  0.00    +0.078 A 
ATOM     29  N   UNL     1      -0.187   1.842   1.436  0.00  0.00    -0.232 NA
ENDBRANCH  17  18
ENDBRANCH   1  17
BRANCH   1  30
ATOM     30  C   UNL     1      -2.348  -0.029  -0.810  0.00  0.00    +0.184 C 
BRANCH  30  31
ATOM     31  C   UNL     1      -2.560  -1.329  -1.543  0.00  0.00    +0.122 A 
ATOM     32  C   UNL     1      -3.328  -2.352  -1.125  0.00  0.00    +0.046 A 
ATOM     33  C   UNL     1      -3.240  -3.360  -2.112  0.00  0.00    +0.041 A 
ATOM     34  C   UNL     1      -2.424  -2.893  -3.075  0.00  0.00    +0.195 A 
ATOM     35  O   UNL     1      -2.020  -1.660  -2.727  0.00  0.00    -0.466 OA
ENDBRANCH  30  31
ENDBRANCH   1  30
TORSDOF 6
