REMARK  Name = ZINC38707867
REMARK  10 active torsions:
REMARK  status: ('A' for Active; 'I' for Inactive)
REMARK    1  A    between atoms: C_1  and  C_2
REMARK    2  A    between atoms: C_2  and  C_31
REMARK    3  A    between atoms: C_8  and  N_17
REMARK    4  A    between atoms: N_11  and  C_14
REMARK    5  A    between atoms: C_14  and  C_15
REMARK    6  A    between atoms: C_18  and  C_20
REMARK    7  A    between atoms: C_20  and  C_21
REMARK    8  A    between atoms: C_20  and  C_22
REMARK    9  A    between atoms: C_20  and  O_23
REMARK   10  A    between atoms: O_23  and  C_24
REMARK                            x       y       z     vdW  Elec       q    Type
REMARK                         _______ _______ _______ _____ _____    ______ ____
ROOT
ATOM      1  C   UNL     1       0.401   1.305   0.376  0.00  0.00    +0.024 C 
ATOM      2  C   UNL     1       0.591  -0.209   0.480  0.00  0.00    +0.076 C 
ATOM      3  C   UNL     1      -0.768  -0.878   0.678  0.00  0.00    +0.244 C 
ATOM      4  O   UNL     1      -1.216  -0.707   2.020  0.00  0.00    -0.489 OA
ATOM      5  C   UNL     1      -1.067   0.526   2.573  0.00  0.00    +0.142 A 
ATOM      6  C   UNL     1      -2.161   1.361   2.729  0.00  0.00    +0.049 A 
ATOM      7  C   UNL     1      -1.999   2.615   3.288  0.00  0.00    +0.027 A 
ATOM      8  C   UNL     1      -0.741   3.042   3.694  0.00  0.00    +0.035 A 
ATOM      9  C   UNL     1       0.358   2.208   3.541  0.00  0.00    +0.050 A 
ATOM     10  C   UNL     1       0.196   0.951   2.983  0.00  0.00    +0.080 A 
ATOM     11  N   UNL     1       1.292   0.091   2.832  0.00  0.00    -0.264 N 
ATOM     12  C   UNL     1       1.495  -0.521   1.644  0.00  0.00    +0.229 C 
ATOM     13  O   UNL     1       2.401  -1.317   1.516  0.00  0.00    -0.275 OA
ATOM     14  C   UNL     1       1.227  -0.731  -0.811  0.00  0.00    +0.024 C 
ENDROOT
BRANCH   8  15
ATOM     15  N   UNL     1      -0.582   4.315   4.257  0.00  0.00    -0.282 N 
ATOM     16  C   UNL     1      -1.567   4.849   5.006  0.00  0.00    +0.261 C 
ATOM     17  O   UNL     1      -2.551   4.191   5.271  0.00  0.00    -0.271 OA
ATOM     18  H   UNL     1       0.238   4.812   4.109  0.00  0.00    +0.155 HD
BRANCH  16  19
ATOM     19  C   UNL     1      -1.446   6.262   5.514  0.00  0.00    +0.180 C 
ATOM     20  C   UNL     1      -0.203   6.381   6.399  0.00  0.00    +0.065 C 
ATOM     21  C   UNL     1      -1.321   7.221   4.329  0.00  0.00    +0.065 C 
BRANCH  19  22
ATOM     22  O   UNL     1      -2.607   6.596   6.277  0.00  0.00    -0.477 OA
BRANCH  22  23
ATOM     23  C   UNL     1      -3.802   6.561   5.629  0.00  0.00    +0.122 A 
ATOM     24  C   UNL     1      -3.871   6.094   4.324  0.00  0.00    +0.047 A 
ATOM     25  C   UNL     1      -5.086   6.060   3.668  0.00  0.00    +0.023 A 
ATOM     26  C   UNL     1      -6.233   6.491   4.310  0.00  0.00    +0.041 A 
ATOM     27  C   UNL     1      -6.166   6.958   5.611  0.00  0.00    +0.023 A 
ATOM     28  C   UNL     1      -4.954   6.987   6.273  0.00  0.00    +0.047 A 
ATOM     29 CL   UNL     1      -7.758   6.448   3.482  0.00  0.00    -0.084 Cl
ENDBRANCH  22  23
ENDBRANCH  19  22
ENDBRANCH  16  19
ENDBRANCH   8  15
BRANCH  11  30
ATOM     30  C   UNL     1       2.209  -0.142   3.950  0.00  0.00    +0.140 C 
BRANCH  30  31
ATOM     31  C   UNL     1       1.725  -1.316   4.761  0.00  0.00    -0.015 C 
ATOM     32  C   UNL     1       2.522  -2.330   4.986  0.00  0.00    +0.005 C 
ENDBRANCH  30  31
ENDBRANCH  11  30
TORSDOF 6
