REMARK  Name = ZINC13499289
REMARK  10 active torsions:
REMARK  status: ('A' for Active; 'I' for Inactive)
REMARK    1  A    between atoms: C_1  and  C_2
REMARK    2  A    between atoms: C_2  and  C_3
REMARK    3  A    between atoms: C_3  and  C_4
REMARK    4  A    between atoms: C_4  and  C_6
REMARK    5  A    between atoms: C_4  and  N_69
REMARK    6  A    between atoms: N_10  and  C_11
REMARK    7  A    between atoms: C_16  and  C_17
REMARK    8  A    between atoms: C_16  and  N_69
REMARK    9  A    between atoms: C_22  and  C_29
REMARK   10  A    between atoms: C_30  and  N_69
REMARK                            x       y       z     vdW  Elec       q    Type
REMARK                         _______ _______ _______ _____ _____    ______ ____
ROOT
ATOM      1  N   UNL     1       1.297  -2.260   0.190  0.00  0.00    +0.391 N 
ATOM      2  H   UNL     1       1.131  -3.119  -0.348  0.00  0.00    -0.080 HD
ENDROOT
BRANCH   1   3
ATOM      3  C   UNL     1       2.744  -1.961   0.181  0.00  0.00    -0.067 C 
ATOM      4  C   UNL     1       3.520  -3.156   0.773  0.00  0.00    -0.015 C 
ATOM      5  C   UNL     1       4.686  -2.502   1.556  0.00  0.00    -0.002 C 
ATOM      6  C   UNL     1       4.022  -1.244   2.170  0.00  0.00    -0.002 C 
ATOM      7  C   UNL     1       3.064  -0.746   1.069  0.00  0.00    -0.015 C 
ENDBRANCH   1   3
BRANCH   1   8
ATOM      8  C   UNL     1       0.832  -2.464   1.577  0.00  0.00    +0.003 C 
BRANCH   8   9
ATOM      9  C   UNL     1       0.472  -1.145   2.211  0.00  0.00    +0.138 A 
ATOM     10  N   UNL     1      -0.088  -0.119   1.618  0.00  0.00    -0.115 NA
ATOM     11  N   UNL     1      -0.235   0.815   2.494  0.00  0.00    -0.023 NA
ATOM     12  N   UNL     1       0.224   0.414   3.627  0.00  0.00    -0.044 NA
ATOM     13  N   UNL     1       0.669  -0.790   3.494  0.00  0.00    -0.228 N 
BRANCH  13  14
ATOM     14  C   UNL     1       1.274  -1.615   4.543  0.00  0.00    +0.111 C 
ATOM     15  C   UNL     1       0.290  -1.781   5.719  0.00  0.00    +0.027 C 
ATOM     16  C   UNL     1       1.194  -1.747   6.977  0.00  0.00    +0.002 C 
ATOM     17  C   UNL     1       2.254  -0.680   6.609  0.00  0.00    +0.002 C 
ATOM     18  C   UNL     1       2.523  -0.915   5.108  0.00  0.00    +0.027 C 
ENDBRANCH  13  14
ENDBRANCH   8   9
BRANCH   8  19
ATOM     19  C   UNL     1      -0.401  -3.370   1.550  0.00  0.00    -0.008 C 
BRANCH  19  21
ATOM     20  C   UNL     1      -1.206  -5.700   1.142  0.00  0.00    +0.004 C 
ATOM     21  C   UNL     1      -0.002  -4.761   1.054  0.00  0.00    -0.005 C 
ENDBRANCH  19  21
ENDBRANCH   8  19
ENDBRANCH   1   8
BRANCH   1  22
ATOM     22  C   UNL     1       0.548  -1.150  -0.436  0.00  0.00    -0.036 C 
BRANCH  22  23
ATOM     23  C   UNL     1       0.715  -1.236  -1.931  0.00  0.00    +0.001 A 
ATOM     24  C   UNL     1      -0.216  -1.879  -2.679  0.00  0.00    +0.017 A 
ATOM     25  C   UNL     1      -0.027  -1.940  -4.130  0.00  0.00    -0.001 A 
ATOM     26  C   UNL     1      -0.956  -2.585  -4.954  0.00  0.00    +0.010 A 
ATOM     27  C   UNL     1      -0.747  -2.630  -6.303  0.00  0.00    +0.004 A 
ATOM     28  C   UNL     1       0.379  -2.042  -6.864  0.00  0.00    -0.048 A 
ATOM     29  C   UNL     1       1.306  -1.401  -6.072  0.00  0.00    +0.029 A 
ATOM     30  C   UNL     1       1.115  -1.343  -4.695  0.00  0.00    +0.049 A 
ATOM     31  N   UNL     1       2.028  -0.710  -3.878  0.00  0.00    -0.322 N 
ATOM     32  H   UNL     1       2.815  -0.299  -4.269  0.00  0.00    +0.169 HD
ATOM     33  C   UNL     1       1.843  -0.654  -2.548  0.00  0.00    +0.251 A 
ATOM     34  O   UNL     1       2.671  -0.086  -1.856  0.00  0.00    -0.268 OA
ATOM     35  C   UNL     1       0.587  -2.104  -8.355  0.00  0.00    +0.044 C 
ENDBRANCH  22  23
ENDBRANCH   1  22
TORSDOF 8
