REMARK  Name = ZINC09137482
REMARK  6 active torsions:
REMARK  status: ('A' for Active; 'I' for Inactive)
REMARK    1  A    between atoms: C_1  and  N_2
REMARK    2  A    between atoms: C_10  and  C_12
REMARK    3  A    between atoms: C_12  and  C_14
REMARK    4  A    between atoms: C_12  and  N_73
REMARK    5  A    between atoms: C_14  and  N_15
REMARK    6  A    between atoms: C_16  and  C_18
REMARK                            x       y       z     vdW  Elec       q    Type
REMARK                         _______ _______ _______ _____ _____    ______ ____
ROOT
ATOM      1  C   UNL     1       3.095  -2.171   4.336  0.00  0.00    -0.020 C 
ENDROOT
BRANCH   1  11
ATOM      2  C   UNL     1      -3.211  -1.961   4.029  0.00  0.00    +0.129 C 
ATOM      3  N   UNL     1      -2.368  -1.860   2.830  0.00  0.00    -0.333 N 
ATOM      4  C   UNL     1      -2.729  -0.687   2.032  0.00  0.00    +0.105 C 
ATOM      5  C   UNL     1      -1.801  -0.618   0.813  0.00  0.00    +0.024 C 
ATOM      6  C   UNL     1      -0.391  -0.295   1.312  0.00  0.00    +0.038 C 
ATOM      7  C   UNL     1      -0.048  -1.188   2.477  0.00  0.00    -0.026 A 
ATOM      8  C   UNL     1      -1.015  -1.899   3.166  0.00  0.00    +0.033 A 
ATOM      9  C   UNL     1      -0.639  -2.698   4.247  0.00  0.00    +0.023 A 
ATOM     10  C   UNL     1       0.684  -2.784   4.623  0.00  0.00    +0.004 A 
ATOM     11  C   UNL     1       1.648  -2.076   3.928  0.00  0.00    -0.059 A 
ATOM     12  C   UNL     1       1.281  -1.282   2.860  0.00  0.00    +0.007 A 
ENDBRANCH   1  11
BRANCH   1  18
ATOM     13  C   UNL     1       3.789  -3.612   2.519  0.00  0.00    -0.078 C 
ATOM     14  C   UNL     1       4.471  -4.942   2.190  0.00  0.00    -0.019 C 
ATOM     15  C   UNL     1       3.614  -6.095   2.719  0.00  0.00    -0.004 C 
ATOM     16  C   UNL     1       3.414  -5.921   4.227  0.00  0.00    -0.019 C 
ATOM     17  C   UNL     1       2.762  -4.563   4.498  0.00  0.00    -0.078 C 
ATOM     18  N   UNL     1       3.648  -3.495   3.986  0.00  0.00    +0.385 N 
ATOM     19  H   UNL     1       4.574  -3.595   4.418  0.00  0.00    -0.081 HD
ENDBRANCH   1  18
BRANCH   1  20
ATOM     20  C   UNL     1       3.213  -1.973   5.849  0.00  0.00    +0.093 C 
BRANCH  20  21
ATOM     21  N   UNL     1       4.607  -2.159   6.259  0.00  0.00    -0.316 N 
ATOM     22  C   UNL     1       4.934  -2.130   7.566  0.00  0.00    +0.219 C 
ATOM     23  O   UNL     1       4.075  -1.949   8.403  0.00  0.00    -0.275 OA
ATOM     24  H   UNL     1       5.294  -2.304   5.590  0.00  0.00    +0.149 HD
BRANCH  22  25
ATOM     25  C   UNL     1       6.368  -2.322   7.988  0.00  0.00    +0.048 C 
ATOM     26  C   UNL     1       6.860  -3.691   7.514  0.00  0.00    +0.019 C 
ATOM     27  C   UNL     1       8.316  -3.886   7.943  0.00  0.00    -0.009 C 
ATOM     28  C   UNL     1       8.414  -3.808   9.468  0.00  0.00    +0.007 C 
ATOM     29  C   UNL     1       7.922  -2.439   9.941  0.00  0.00    -0.009 C 
ATOM     30  C   UNL     1       6.466  -2.244   9.513  0.00  0.00    +0.019 C 
ATOM     31  C   UNL     1       8.788  -1.343   9.318  0.00  0.00    +0.007 C 
ATOM     32  C   UNL     1       8.690  -1.420   7.793  0.00  0.00    -0.009 C 
ATOM     33  C   UNL     1       9.182  -2.789   7.320  0.00  0.00    +0.007 C 
ATOM     34  C   UNL     1       7.234  -1.225   7.365  0.00  0.00    +0.019 C 
ENDBRANCH  22  25
ENDBRANCH  20  21
ENDBRANCH   1  20
TORSDOF 5
