REMARK  Name = ZINC00702209
REMARK  9 active torsions:
REMARK  status: ('A' for Active; 'I' for Inactive)
REMARK    1  A    between atoms: C_1  and  C_2
REMARK    2  A    between atoms: C_2  and  C_3
REMARK    3  A    between atoms: C_2  and  C_4
REMARK    4  A    between atoms: C_2  and  C_5
REMARK    5  A    between atoms: C_8  and  O_11
REMARK    6  A    between atoms: O_11  and  C_12
REMARK    7  A    between atoms: C_12  and  C_13
REMARK    8  A    between atoms: C_13  and  O_15
REMARK    9  A    between atoms: O_15  and  C_16
REMARK                            x       y       z     vdW  Elec       q    Type
REMARK                         _______ _______ _______ _____ _____    ______ ____
ROOT
ATOM      1  O   UNL     1       3.599   5.953   0.006  0.00  0.00    -0.423 OA
ENDROOT
BRANCH   1   2
ATOM      2  C   UNL     1       2.414   5.291  -0.006  0.00  0.00    +0.135 A 
ATOM      3  C   UNL     1       1.965   4.655   1.150  0.00  0.00    +0.047 A 
ATOM      4  C   UNL     1       0.776   3.985   1.154  0.00  0.00    +0.015 A 
ATOM      5  C   UNL     1       0.003   3.935  -0.011  0.00  0.00    +0.021 A 
ATOM      6  C   UNL     1       0.450   4.575  -1.181  0.00  0.00    +0.143 A 
ATOM      7  C   UNL     1       1.661   5.252  -1.168  0.00  0.00    +0.093 A 
ATOM      8  O   UNL     1      -0.301   4.523  -2.302  0.00  0.00    -0.422 OA
ATOM      9  C   UNL     1      -1.472   3.871  -2.331  0.00  0.00    +0.341 A 
ATOM     10  O   UNL     1      -2.114   3.852  -3.366  0.00  0.00    -0.245 OA
ATOM     11  C   UNL     1      -1.986   3.208  -1.193  0.00  0.00    +0.041 A 
ATOM     12  C   UNL     1      -1.276   3.220  -0.037  0.00  0.00    -0.027 A 
ATOM     13  C   UNL     1      -2.007   2.449   1.038  0.00  0.00    +0.036 C 
ATOM     14  C   UNL     1      -3.045   1.593   0.279  0.00  0.00    +0.010 C 
ATOM     15  C   UNL     1      -3.263   2.418  -1.008  0.00  0.00    +0.043 C 
ENDBRANCH   1   2
BRANCH   1  16
ATOM     16  C   UNL     1       3.551   7.292  -0.090  0.00  0.00    +0.350 C 
ATOM     17  O   UNL     1       2.485   7.860  -0.076  0.00  0.00    -0.247 OA
BRANCH  16  18
ATOM     18  C   UNL     1       4.826   8.085  -0.214  0.00  0.00    +0.349 C 
BRANCH  18  19
ATOM     19  O   UNL     1       4.515   9.477  -0.301  0.00  0.00    -0.481 OA
BRANCH  19  23
ATOM     20  C   UNL     1       7.689  12.087  -0.658  0.00  0.00    -0.042 A 
ATOM     21  C   UNL     1       6.396  12.574  -0.626  0.00  0.00    +0.008 A 
ATOM     22  C   UNL     1       5.331  11.702  -0.507  0.00  0.00    +0.046 A 
ATOM     23  C   UNL     1       5.561  10.337  -0.418  0.00  0.00    +0.121 A 
ATOM     24  C   UNL     1       6.860   9.851  -0.444  0.00  0.00    +0.046 A 
ATOM     25  C   UNL     1       7.921  10.727  -0.570  0.00  0.00    +0.008 A 
BRANCH  20  27
ATOM     26  C   UNL     1       8.847  14.011   0.395  0.00  0.00    +0.015 C 
ATOM     27  C   UNL     1       8.849  13.041  -0.788  0.00  0.00    -0.013 C 
ATOM     28  C   UNL     1      10.159  12.252  -0.798  0.00  0.00    +0.015 C 
ATOM     29  C   UNL     1       8.718  13.828  -2.093  0.00  0.00    +0.015 C 
ENDBRANCH  20  27
ENDBRANCH  19  23
ENDBRANCH  18  19
ENDBRANCH  16  18
ENDBRANCH   1  16
TORSDOF 6
