REMARK  Name = ZINC00987204
REMARK  5 active torsions:
REMARK  status: ('A' for Active; 'I' for Inactive)
REMARK    1  A    between atoms: C_1  and  C_2
REMARK    2  A    between atoms: C_5  and  C_7
REMARK    3  A    between atoms: C_10  and  C_21
REMARK    4  A    between atoms: C_16  and  N_20
REMARK    5  A    between atoms: C_17  and  C_18
REMARK                            x       y       z     vdW  Elec       q    Type
REMARK                         _______ _______ _______ _____ _____    ______ ____
ROOT
ATOM      1  C   UNL     1       1.715  -3.375  -0.032  0.00  0.00    +0.138 C 
ATOM      2  C   UNL     1       2.666  -3.188   1.123  0.00  0.00    +0.057 A 
ATOM      3  C   UNL     1       2.426  -3.312   2.495  0.00  0.00    +0.100 A 
ATOM      4  N   UNL     1       3.554  -3.055   3.129  0.00  0.00    -0.171 NA
ATOM      5  N   UNL     1       4.541  -2.761   2.174  0.00  0.00    -0.246 N 
ATOM      6  H   UNL     1       5.465  -2.535   2.361  0.00  0.00    +0.192 HD
ATOM      7  C   UNL     1       3.977  -2.849   0.952  0.00  0.00    +0.223 A 
ATOM      8  O   UNL     1       4.529  -2.656  -0.272  0.00  0.00    -0.423 OA
ATOM      9  C   UNL     1       3.829  -3.071  -1.347  0.00  0.00    +0.201 C 
ATOM     10  C   UNL     1       2.523  -3.423  -1.305  0.00  0.00    +0.101 C 
ENDROOT
BRANCH   3  11
ATOM     11  C   UNL     1       1.131  -3.669   3.126  0.00  0.00    +0.003 A 
ATOM     12  C   UNL     1       0.344  -4.681   2.582  0.00  0.00    +0.011 A 
ATOM     13  C   UNL     1      -0.859  -5.010   3.173  0.00  0.00    +0.016 A 
ATOM     14  C   UNL     1      -1.284  -4.335   4.304  0.00  0.00    +0.018 A 
ATOM     15  C   UNL     1      -0.506  -3.329   4.849  0.00  0.00    +0.016 A 
ATOM     16  C   UNL     1       0.702  -2.997   4.269  0.00  0.00    +0.011 A 
ATOM     17 BR   UNL     1      -2.934  -4.790   5.109  0.00  0.00    -0.050 Br
ENDBRANCH   3  11
BRANCH   1  22
ATOM     18  C   UNL     1      -0.090   1.331  -0.211  0.00  0.00    +0.086 C 
ATOM     19  C   UNL     1      -0.037  -0.174  -0.164  0.00  0.00    +0.102 A 
ATOM     20  C   UNL     1      -1.099  -0.999  -0.159  0.00  0.00    +0.044 A 
ATOM     21  C   UNL     1      -0.593  -2.318  -0.109  0.00  0.00    +0.046 A 
ATOM     22  C   UNL     1       0.748  -2.220  -0.086  0.00  0.00    +0.118 A 
ATOM     23  O   UNL     1       1.080  -0.920  -0.126  0.00  0.00    -0.464 OA
ENDBRANCH   1  22
BRANCH   9  24
ATOM     24  N   UNL     1       4.478  -3.143  -2.554  0.00  0.00    -0.328 N 
ATOM     25  H   UNL     1       5.415  -2.898  -2.616  0.00  0.00    +0.145 HD
ATOM     26  H   UNL     1       4.001  -3.438  -3.345  0.00  0.00    +0.145 HD
ENDBRANCH   9  24
BRANCH  10  27
ATOM     27  C   UNL     1       1.885  -3.854  -2.511  0.00  0.00    +0.101 C 
ATOM     28  N   UNL     1       1.378  -4.197  -3.469  0.00  0.00    -0.191 NA
ENDBRANCH  10  27
TORSDOF 4
