REMARK  Name = ZINC14984982
REMARK  1 active torsions:
REMARK  status: ('A' for Active; 'I' for Inactive)
REMARK    1  A    between atoms: C_7  and  C_12
REMARK                            x       y       z     vdW  Elec       q    Type
REMARK                         _______ _______ _______ _____ _____    ______ ____
ROOT
ATOM      1  C   UNL     1       2.157   4.198   0.004  0.00  0.00    +0.028 A 
ATOM      2  C   UNL     1       1.544   5.395   0.016  0.00  0.00    +0.083 A 
ATOM      3  N   UNL     1       0.189   5.217   0.028  0.00  0.00    -0.361 N 
ATOM      4  H   UNL     1      -0.473   5.926   0.037  0.00  0.00    +0.165 HD
ATOM      5  C   UNL     1      -0.083   3.865   0.023  0.00  0.00    +0.048 A 
ATOM      6  C   UNL     1       1.154   3.197   0.008  0.00  0.00    +0.014 A 
ATOM      7  C   UNL     1       1.186   1.786   0.000  0.00  0.00    +0.073 A 
ATOM      8  C   UNL     1      -0.013   1.076   0.008  0.00  0.00    +0.031 A 
ATOM      9  C   UNL     1      -1.221   1.749   0.017  0.00  0.00    +0.021 A 
ATOM     10  C   UNL     1      -1.262   3.130   0.030  0.00  0.00    +0.041 A 
ATOM     11 BR   UNL     1      -2.837   0.766   0.020  0.00  0.00    -0.050 Br
ENDROOT
BRANCH   7  12
ATOM     12  C   UNL     1       2.473   1.072  -0.015  0.00  0.00    +0.387 C 
ATOM     13  O   UNL     1       3.515   1.698  -0.021  0.00  0.00    -0.241 OA
ATOM     14  O   UNL     1       2.496  -0.276  -0.021  0.00  0.00    -0.241 OA
ENDBRANCH   7  12
TORSDOF 1
