REMARK  Name = ZINC12480090
REMARK  13 active torsions:
REMARK  status: ('A' for Active; 'I' for Inactive)
REMARK    1  A    between atoms: C_1  and  C_2
REMARK    2  A    between atoms: C_5  and  C_7
REMARK    3  A    between atoms: N_10  and  C_12
REMARK    4  A    between atoms: C_12  and  C_13
REMARK    5  A    between atoms: N_15  and  C_16
REMARK    6  A    between atoms: N_15  and  C_23
REMARK    7  A    between atoms: C_23  and  C_25
REMARK    8  A    between atoms: C_23  and  C_30
REMARK    9  A    between atoms: N_32  and  C_33
REMARK   10  A    between atoms: C_33  and  C_34
REMARK   11  A    between atoms: C_34  and  C_35
REMARK   12  A    between atoms: C_35  and  C_36
REMARK   13  A    between atoms: C_35  and  C_37
REMARK                            x       y       z     vdW  Elec       q    Type
REMARK                         _______ _______ _______ _____ _____    ______ ____
ROOT
ATOM      1  C   UNL     1      -6.135  -1.804   7.496  0.00  0.00    +0.244 C 
ATOM      2  O   UNL     1      -7.144  -1.225   7.152  0.00  0.00    -0.273 OA
ATOM      3  N   UNL     1      -5.604  -2.759   6.706  0.00  0.00    -0.253 N 
ENDROOT
BRANCH   3   4
ATOM      4  C   UNL     1      -4.497  -3.494   7.145  0.00  0.00    +0.038 A 
ATOM      5  C   UNL     1      -4.651  -4.819   7.532  0.00  0.00    +0.025 A 
ATOM      6  C   UNL     1      -3.556  -5.543   7.960  0.00  0.00    +0.022 A 
ATOM      7  C   UNL     1      -2.308  -4.947   8.014  0.00  0.00    +0.041 A 
ATOM      8  C   UNL     1      -2.153  -3.626   7.633  0.00  0.00    +0.022 A 
ATOM      9  C   UNL     1      -3.244  -2.898   7.199  0.00  0.00    +0.025 A 
ATOM     10 CL   UNL     1      -0.935  -5.859   8.558  0.00  0.00    -0.084 Cl
ENDBRANCH   3   4
BRANCH   1  11
ATOM     11  C   UNL     1      -5.477  -1.458   8.806  0.00  0.00    +0.264 C 
BRANCH  11  15
ATOM     12  C   UNL     1      -7.695  -2.204  11.448  0.00  0.00    +0.239 A 
ATOM     13  N   UNL     1      -6.972  -3.332  11.376  0.00  0.00    -0.105 NA
ATOM     14  N   UNL     1      -6.112  -3.175  10.427  0.00  0.00    -0.045 NA
ATOM     15  N   UNL     1      -6.267  -2.007   9.910  0.00  0.00    -0.154 N 
ATOM     16  N   UNL     1      -7.230  -1.398  10.512  0.00  0.00    -0.127 NA
BRANCH  12  21
ATOM     17  C   UNL     1     -11.431   0.183  13.803  0.00  0.00    +0.086 C 
ATOM     18  C   UNL     1     -10.435  -0.882  13.422  0.00  0.00    +0.103 A 
ATOM     19  C   UNL     1     -10.315  -2.090  14.006  0.00  0.00    +0.045 A 
ATOM     20  C   UNL     1      -9.270  -2.766  13.344  0.00  0.00    +0.053 A 
ATOM     21  C   UNL     1      -8.801  -1.921  12.389  0.00  0.00    +0.175 A 
ATOM     22  O   UNL     1      -9.517  -0.782  12.447  0.00  0.00    -0.457 OA
ENDBRANCH  12  21
ENDBRANCH  11  15
ENDBRANCH   1  11
BRANCH   3  23
ATOM     23  C   UNL     1      -6.185  -3.026   5.388  0.00  0.00    +0.204 C 
BRANCH  23  24
ATOM     24  C   UNL     1      -5.082  -3.307   4.400  0.00  0.00    +0.019 A 
ATOM     25  C   UNL     1      -4.875  -2.764   3.176  0.00  0.00    +0.013 A 
ATOM     26  C   UNL     1      -3.783  -3.178   2.436  0.00  0.00    +0.008 A 
ATOM     27  C   UNL     1      -2.952  -4.114   2.956  0.00  0.00    +0.045 A 
ATOM     28  S   UNL     1      -3.706  -4.435   4.542  0.00  0.00    -0.099 S 
ENDBRANCH  23  24
BRANCH  23  29
ATOM     29  C   UNL     1      -7.098  -4.222   5.475  0.00  0.00    +0.239 C 
ATOM     30  O   UNL     1      -7.249  -4.794   6.534  0.00  0.00    -0.273 OA
ATOM     31  N   UNL     1      -7.748  -4.655   4.377  0.00  0.00    -0.313 N 
ATOM     32  H   UNL     1      -7.628  -4.198   3.530  0.00  0.00    +0.149 HD
BRANCH  31  33
ATOM     33  C   UNL     1      -8.635  -5.818   4.461  0.00  0.00    +0.104 C 
BRANCH  33  34
ATOM     34  C   UNL     1      -9.242  -6.097   3.085  0.00  0.00    +0.022 C 
BRANCH  34  35
ATOM     35  C   UNL     1     -10.169  -7.311   3.173  0.00  0.00    -0.016 C 
ATOM     36  C   UNL     1     -10.872  -7.516   1.829  0.00  0.00    +0.007 C 
ATOM     37  C   UNL     1      -9.348  -8.556   3.514  0.00  0.00    +0.007 C 
ENDBRANCH  34  35
ENDBRANCH  33  34
ENDBRANCH  31  33
ENDBRANCH  23  29
ENDBRANCH   3  23
TORSDOF 10
