REMARK  Name = ZINC19596865
REMARK  10 active torsions:
REMARK  status: ('A' for Active; 'I' for Inactive)
REMARK    1  A    between atoms: C_1  and  C_2
REMARK    2  A    between atoms: C_2  and  N_3
REMARK    3  A    between atoms: N_3  and  C_4
REMARK    4  A    between atoms: N_3  and  C_6
REMARK    5  A    between atoms: C_4  and  C_5
REMARK    6  A    between atoms: C_6  and  C_7
REMARK    7  A    between atoms: C_7  and  C_21
REMARK    8  A    between atoms: C_14  and  C_17
REMARK    9  A    between atoms: C_21  and  C_22
REMARK   10  A    between atoms: C_25  and  C_28
REMARK                            x       y       z     vdW  Elec       q    Type
REMARK                         _______ _______ _______ _____ _____    ______ ____
ROOT
ATOM      1  C   UNL     1      -2.354   4.331   5.460  0.00  0.00    +0.057 C 
ATOM      2  C   UNL     1      -2.081   4.944   4.079  0.00  0.00    +0.242 C 
ATOM      3  O   UNL     1      -1.817   6.339   4.225  0.00  0.00    -0.489 OA
ATOM      4  C   UNL     1      -0.865   6.733   5.103  0.00  0.00    +0.145 A 
ATOM      5  C   UNL     1      -0.485   5.904   6.171  0.00  0.00    +0.062 A 
ATOM      6  C   UNL     1       0.486   6.329   7.079  0.00  0.00    +0.030 A 
ATOM      7  C   UNL     1       1.075   7.566   6.919  0.00  0.00    +0.023 A 
ATOM      8  C   UNL     1       0.705   8.383   5.861  0.00  0.00    -0.019 A 
ATOM      9  C   UNL     1      -0.257   7.973   4.958  0.00  0.00    +0.064 A 
ATOM     10 BR   UNL     1      -0.747   9.103   3.523  0.00  0.00    -0.046 Br
ATOM     11  C   UNL     1       1.358   9.730   5.695  0.00  0.00    +0.046 C 
ATOM     12 BR   UNL     1       2.390   8.151   8.145  0.00  0.00    -0.050 Br
ATOM     13  C   UNL     1      -1.125   4.585   6.315  0.00  0.00    +0.175 C 
ATOM     14  O   UNL     1      -0.692   3.746   7.077  0.00  0.00    -0.291 OA
ENDROOT
BRANCH   1  15
ATOM     15  C   UNL     1      -3.576   4.997   6.095  0.00  0.00    -0.060 C 
BRANCH  15  16
ATOM     16  N   UNL     1      -3.399   6.455   6.088  0.00  0.00    +0.380 N 
ATOM     17  H   UNL     1      -2.351   6.667   5.830  0.00  0.00    -0.082 HD
BRANCH  16  19
ATOM     18  C   UNL     1      -3.835   8.545   4.889  0.00  0.00    -0.017 C 
ATOM     19  C   UNL     1      -4.250   7.083   5.069  0.00  0.00    -0.082 C 
ENDBRANCH  16  19
BRANCH  16  20
ATOM     20  C   UNL     1      -3.661   7.024   7.416  0.00  0.00    -0.082 C 
ATOM     21  C   UNL     1      -2.590   6.543   8.397  0.00  0.00    -0.017 C 
ENDBRANCH  16  20
ENDBRANCH  15  16
ENDBRANCH   1  15
BRANCH   1  22
ATOM     22  C   UNL     1      -2.592   2.826   5.325  0.00  0.00    +0.051 C 
BRANCH  22  23
ATOM     23  C   UNL     1      -1.394   2.184   4.675  0.00  0.00    -0.046 A 
ATOM     24  C   UNL     1      -0.353   1.714   5.454  0.00  0.00    +0.004 A 
ATOM     25  C   UNL     1       0.746   1.126   4.857  0.00  0.00    +0.003 A 
ATOM     26  C   UNL     1       0.804   1.006   3.481  0.00  0.00    -0.050 A 
ATOM     27  C   UNL     1      -0.234   1.480   2.702  0.00  0.00    +0.003 A 
ATOM     28  C   UNL     1      -1.336   2.064   3.299  0.00  0.00    +0.004 A 
ATOM     29  C   UNL     1       2.003   0.365   2.831  0.00  0.00    +0.044 C 
ENDBRANCH  22  23
ENDBRANCH   1  22
TORSDOF 6
