REMARK  Name = ZINC63197079
REMARK  5 active torsions:
REMARK  status: ('A' for Active; 'I' for Inactive)
REMARK    1  A    between atoms: C_6  and  S_10
REMARK    2  A    between atoms: S_10  and  C_11
REMARK    3  A    between atoms: C_11  and  C_12
REMARK    4  A    between atoms: N_14  and  C_15
REMARK    5  A    between atoms: C_17  and  C_28
REMARK                            x       y       z     vdW  Elec       q    Type
REMARK                         _______ _______ _______ _____ _____    ______ ____
ROOT
ATOM      1  C   UNL     1       3.313  -2.560  -4.211  0.00  0.00    +0.224 C 
ATOM      2  O   UNL     1       4.002  -3.557  -4.234  0.00  0.00    -0.275 OA
ATOM      3  N   UNL     1       2.897  -2.000  -5.364  0.00  0.00    -0.302 N 
ATOM      4  H   UNL     1       2.346  -1.202  -5.346  0.00  0.00    +0.150 HD
ENDROOT
BRANCH   3   5
ATOM      5  C   UNL     1       3.278  -2.597  -6.647  0.00  0.00    +0.148 C 
ATOM      6  C   UNL     1       2.084  -2.604  -7.631  0.00  0.00    +0.126 C 
ATOM      7  C   UNL     1       2.599  -2.558  -9.082  0.00  0.00    +0.021 C 
ATOM      8  C   UNL     1       3.003  -3.983  -9.462  0.00  0.00    +0.006 C 
ATOM      9  C   UNL     1       3.701  -3.985 -10.821  0.00  0.00    +0.000 C 
ATOM     10  C   UNL     1       5.026  -3.238 -10.674  0.00  0.00    +0.001 C 
ATOM     11  C   UNL     1       4.774  -1.798 -10.275  0.00  0.00    +0.014 C 
ATOM     12  C   UNL     1       3.768  -1.593  -9.207  0.00  0.00    +0.053 C 
ATOM     13  S   UNL     1       4.492  -1.535  -7.533  0.00  0.00    -0.134 S 
BRANCH   6  14
ATOM     14  C   UNL     1       1.236  -1.428  -7.377  0.00  0.00    +0.069 C 
ATOM     15  N   UNL     1       0.581  -0.521  -7.182  0.00  0.00    -0.196 NA
ENDBRANCH   6  14
ENDBRANCH   3   5
BRANCH   1  16
ATOM     16  C   UNL     1       2.921  -1.946  -2.892  0.00  0.00    +0.168 C 
BRANCH  16  17
ATOM     17  S   UNL     1       3.629  -2.921  -1.536  0.00  0.00    -0.106 S 
BRANCH  17  23
ATOM     18  C   UNL     1      -0.016   1.344   0.009  0.00  0.00    +0.002 A 
ATOM     19  C   UNL     1       1.158   2.118   0.002  0.00  0.00    +0.002 A 
ATOM     20  C   UNL     1       2.389   1.570  -0.013  0.00  0.00    +0.027 A 
ATOM     21  C   UNL     1       2.533   0.108  -0.022  0.00  0.00    +0.061 A 
ATOM     22  N   UNL     1       3.569  -0.680  -0.036  0.00  0.00    -0.355 N 
ATOM     23  C   UNL     1       3.071  -2.062  -0.039  0.00  0.00    +0.236 C 
ATOM     24  N   UNL     1       1.606  -1.974  -0.024  0.00  0.00    -0.355 N 
ATOM     25  C   UNL     1       1.290  -0.712  -0.014  0.00  0.00    +0.061 A 
ATOM     26  C   UNL     1       0.002  -0.004   0.002  0.00  0.00    +0.027 A 
ATOM     27  H   UNL     1       4.499  -0.405  -0.045  0.00  0.00    +0.162 HD
ATOM     28  H   UNL     1       0.987  -2.721  -0.022  0.00  0.00    +0.162 HD
ENDBRANCH  17  23
ENDBRANCH  16  17
ENDBRANCH   1  16
TORSDOF 5
