REMARK  Name = ZINC39469827
REMARK  8 active torsions:
REMARK  status: ('A' for Active; 'I' for Inactive)
REMARK    1  A    between atoms: C_1  and  C_2
REMARK    2  A    between atoms: C_2  and  C_3
REMARK    3  A    between atoms: C_2  and  S_4
REMARK    4  A    between atoms: S_4  and  P_7
REMARK    5  A    between atoms: C_15  and  C_32
REMARK    6  A    between atoms: C_16  and  C_25
REMARK    7  A    between atoms: C_30  and  O_31
REMARK    8  A    between atoms: C_37  and  O_38
REMARK                            x       y       z     vdW  Elec       q    Type
REMARK                         _______ _______ _______ _____ _____    ______ ____
ROOT
ATOM      1  P   UNL     1      -0.225   0.155   3.114  0.00  0.00    +0.392 P 
ATOM      2  O   UNL     1      -0.213   1.635   3.098  0.00  0.00    -0.249 OA
ATOM      3  N   UNL     1       0.399  -0.410   4.534  0.00  0.00    -0.274 NA
ATOM      4  N   UNL     1       0.086  -1.701   4.904  0.00  0.00    +0.398 N 
ATOM      5  C   UNL     1       0.670  -1.894   6.241  0.00  0.00    -0.046 C 
ATOM      6  C   UNL     1       0.405  -3.303   6.753  0.00  0.00    +0.005 C 
ATOM      7  C   UNL     1       1.016  -4.323   5.830  0.00  0.00    -0.016 C 
ATOM      8  C   UNL     1       0.544  -5.579   5.828  0.00  0.00    -0.011 C 
ATOM      9  C   UNL     1      -0.565  -5.938   6.749  0.00  0.00    -0.011 C 
ATOM     10  C   UNL     1      -1.359  -4.972   7.234  0.00  0.00    -0.014 C 
ATOM     11  C   UNL     1      -1.107  -3.540   6.830  0.00  0.00    +0.016 C 
ATOM     12  C   UNL     1      -1.708  -3.295   5.445  0.00  0.00    -0.003 C 
ATOM     13  C   UNL     1      -1.367  -1.884   4.952  0.00  0.00    -0.020 C 
ATOM     14  C   UNL     1      -1.999  -1.727   3.562  0.00  0.00    +0.158 C 
ATOM     15  O   UNL     1      -1.754  -0.397   3.070  0.00  0.00    -0.304 OA
ATOM     16  H   UNL     1       0.966   0.147   5.089  0.00  0.00    +0.112 HD
ATOM     17  H   UNL     1       0.489  -2.351   4.246  0.00  0.00    -0.055 HD
ENDROOT
BRANCH   9  18
ATOM     18  C   UNL     1      -0.792  -7.352   7.129  0.00  0.00    +0.024 A 
ATOM     19  C   UNL     1      -1.367  -8.238   6.219  0.00  0.00    +0.012 A 
ATOM     20  C   UNL     1      -1.576  -9.554   6.577  0.00  0.00    +0.001 A 
ATOM     21  C   UNL     1      -1.218  -9.998   7.838  0.00  0.00    +0.004 A 
ATOM     22  C   UNL     1      -0.647  -9.129   8.748  0.00  0.00    +0.046 A 
ATOM     23  C   UNL     1      -0.426  -7.806   8.400  0.00  0.00    +0.125 A 
BRANCH  23  24
ATOM     24  O   UNL     1       0.140  -6.952   9.292  0.00  0.00    -0.506 OA
ATOM     25  H   UNL     1      -0.498  -6.494   9.856  0.00  0.00    +0.292 HD
ENDBRANCH  23  24
ENDBRANCH   9  18
BRANCH   8  26
ATOM     26  C   UNL     1       1.122  -6.597   4.918  0.00  0.00    +0.024 A 
ATOM     27  C   UNL     1       1.966  -7.585   5.419  0.00  0.00    +0.012 A 
ATOM     28  C   UNL     1       2.501  -8.530   4.568  0.00  0.00    +0.001 A 
ATOM     29  C   UNL     1       2.202  -8.500   3.217  0.00  0.00    +0.004 A 
ATOM     30  C   UNL     1       1.366  -7.524   2.709  0.00  0.00    +0.046 A 
ATOM     31  C   UNL     1       0.817  -6.572   3.553  0.00  0.00    +0.125 A 
BRANCH  31  32
ATOM     32  O   UNL     1      -0.009  -5.615   3.056  0.00  0.00    -0.506 OA
ATOM     33  H   UNL     1       0.447  -4.813   2.767  0.00  0.00    +0.292 HD
ENDBRANCH  31  32
ENDBRANCH   8  26
BRANCH   1  34
ATOM     34  S   UNL     1       0.879  -0.605   1.472  0.00  0.00    +0.056 S 
ATOM     35  O   UNL     1       0.754  -2.017   1.573  0.00  0.00    -0.164 OA
ATOM     36  O   UNL     1       2.152   0.018   1.571  0.00  0.00    -0.164 OA
BRANCH  34  38
ATOM     37  C   UNL     1      -0.019   1.526   0.010  0.00  0.00    +0.032 C 
ATOM     38  C   UNL     1       0.002  -0.004   0.002  0.00  0.00    +0.135 C 
ATOM     39  C   UNL     1       0.718  -0.497  -1.257  0.00  0.00    +0.032 C 
ENDBRANCH  34  38
ENDBRANCH   1  34
TORSDOF 6
