REMARK  Name = ZINC33676239
REMARK  11 active torsions:
REMARK  status: ('A' for Active; 'I' for Inactive)
REMARK    1  A    between atoms: C_1  and  C_2
REMARK    2  A    between atoms: C_2  and  C_3
REMARK    3  A    between atoms: C_7  and  C_38
REMARK    4  A    between atoms: C_8  and  N_9
REMARK    5  A    between atoms: C_14  and  C_27
REMARK    6  A    between atoms: C_17  and  C_22
REMARK    7  A    between atoms: C_17  and  C_24
REMARK    8  A    between atoms: C_22  and  O_23
REMARK    9  A    between atoms: C_31  and  O_33
REMARK   10  A    between atoms: O_33  and  C_34
REMARK   11  A    between atoms: C_38  and  C_39
REMARK                            x       y       z     vdW  Elec       q    Type
REMARK                         _______ _______ _______ _____ _____    ______ ____
ROOT
ATOM      1  N   UNL     1      -3.615   0.352   7.719  0.00  0.00    -0.209 N 
ATOM      2  C   UNL     1      -3.081   0.639   6.494  0.00  0.00    +0.229 C 
ATOM      3  O   UNL     1      -3.677   0.727   5.442  0.00  0.00    -0.275 OA
ATOM      4  C   UNL     1      -1.613   0.825   6.714  0.00  0.00    +0.077 C 
ATOM      5  C   UNL     1      -0.858   1.978   6.062  0.00  0.00    -0.026 C 
ATOM      6  N   UNL     1       0.179   2.328   7.087  0.00  0.00    +0.397 N 
ATOM      7  C   UNL     1      -0.354   1.918   8.427  0.00  0.00    +0.071 C 
ATOM      8  C   UNL     1      -1.719   1.451   8.156  0.00  0.00    +0.088 C 
ATOM      9  C   UNL     1      -2.763   0.652   8.753  0.00  0.00    +0.229 C 
ATOM     10  O   UNL     1      -2.865   0.319   9.914  0.00  0.00    -0.275 OA
ATOM     11  H   UNL     1       1.112   1.788   6.863  0.00  0.00    -0.083 HD
ATOM     12  H   UNL     1       0.368   3.411   7.063  0.00  0.00    -0.083 HD
ENDROOT
BRANCH   1  18
ATOM     13  C   UNL     1      -5.990   0.645   8.055  0.00  0.00    -0.026 A 
ATOM     14  C   UNL     1      -7.250   0.106   8.228  0.00  0.00    +0.005 A 
ATOM     15  C   UNL     1      -7.418  -1.266   8.258  0.00  0.00    +0.001 A 
ATOM     16  C   UNL     1      -6.327  -2.103   8.110  0.00  0.00    +0.005 A 
ATOM     17  C   UNL     1      -5.066  -1.569   7.931  0.00  0.00    -0.026 A 
ATOM     18  C   UNL     1      -4.894  -0.192   7.900  0.00  0.00    +0.050 A 
BRANCH  13  20
ATOM     19  C   UNL     1      -5.823   2.631   6.579  0.00  0.00    +0.009 C 
ATOM     20  C   UNL     1      -5.807   2.141   8.028  0.00  0.00    +0.033 C 
ENDBRANCH  13  20
BRANCH  17  21
ATOM     21  C   UNL     1      -3.877  -2.482   7.768  0.00  0.00    +0.033 C 
ATOM     22  C   UNL     1      -3.200  -2.684   9.125  0.00  0.00    +0.009 C 
ENDBRANCH  17  21
ENDBRANCH   1  18
BRANCH   5  23
ATOM     23  C   UNL     1      -0.208   1.531   4.777  0.00  0.00    -0.057 A 
ATOM     24  C   UNL     1       0.931   0.749   4.816  0.00  0.00    +0.002 A 
ATOM     25  C   UNL     1       1.530   0.337   3.639  0.00  0.00    +0.004 A 
ATOM     26  C   UNL     1       0.990   0.706   2.422  0.00  0.00    +0.046 A 
ATOM     27  C   UNL     1      -0.153   1.491   2.381  0.00  0.00    +0.130 A 
ATOM     28  C   UNL     1      -0.748   1.908   3.563  0.00  0.00    +0.048 A 
BRANCH  27  29
ATOM     29  O   UNL     1      -0.686   1.856   1.185  0.00  0.00    -0.406 OA
BRANCH  29  30
ATOM     30  C   UNL     1      -0.017   1.395   0.010  0.00  0.00    +0.575 C 
ATOM     31  F   UNL     1       0.002  -0.004   0.002  0.00  0.00    -0.133 F 
ATOM     32  F   UNL     1       1.296   1.879  -0.000  0.00  0.00    -0.133 F 
ATOM     33  F   UNL     1      -0.694   1.858  -1.124  0.00  0.00    -0.133 F 
ENDBRANCH  29  30
ENDBRANCH  27  29
ENDBRANCH   5  23
BRANCH   7  34
ATOM     34  C   UNL     1      -0.378   3.097   9.366  0.00  0.00    +0.348 C 
ATOM     35  O   UNL     1      -1.279   3.216  10.162  0.00  0.00    -0.248 OA
ATOM     36  O   UNL     1       0.600   4.014   9.317  0.00  0.00    -0.248 OA
ENDBRANCH   7  34
BRANCH   7  37
ATOM     37  C   UNL     1       0.493   0.787   9.015  0.00  0.00    +0.155 C 
BRANCH  37  38
ATOM     38  O   UNL     1       1.835   1.242   9.199  0.00  0.00    -0.396 OA
ATOM     39  H   UNL     1       2.594   0.563   9.614  0.00  0.00    +0.209 HD
ENDBRANCH  37  38
ENDBRANCH   7  37
TORSDOF 9
