REMARK  Name = ZINC36348540
REMARK  13 active torsions:
REMARK  status: ('A' for Active; 'I' for Inactive)
REMARK    1  A    between atoms: C_1  and  C_2
REMARK    2  A    between atoms: C_2  and  C_3
REMARK    3  A    between atoms: C_2  and  C_4
REMARK    4  A    between atoms: C_2  and  C_5
REMARK    5  A    between atoms: C_8  and  C_11
REMARK    6  A    between atoms: C_11  and  N_12
REMARK    7  A    between atoms: C_21  and  C_23
REMARK    8  A    between atoms: C_26  and  O_33
REMARK    9  A    between atoms: C_27  and  O_31
REMARK   10  A    between atoms: C_28  and  O_29
REMARK   11  A    between atoms: O_29  and  C_30
REMARK   12  A    between atoms: O_31  and  C_32
REMARK   13  A    between atoms: O_33  and  C_34
REMARK                            x       y       z     vdW  Elec       q    Type
REMARK                         _______ _______ _______ _____ _____    ______ ____
ROOT
ATOM      1  N   UNL     1       2.509  -0.916  -5.835  0.00  0.00    +0.391 N 
ATOM      2  C   UNL     1       1.112  -0.935  -6.275  0.00  0.00    -0.075 C 
ATOM      3  C   UNL     1       0.859   0.122  -7.342  0.00  0.00    +0.003 C 
ATOM      4  C   UNL     1       1.734   1.350  -7.074  0.00  0.00    +0.119 C 
ATOM      5  N   UNL     1       3.030   1.164  -7.736  0.00  0.00    -0.352 N 
ATOM      6  C   UNL     1       3.689   2.083  -8.495  0.00  0.00    +0.086 A 
ATOM      7  C   UNL     1       4.851   1.535  -8.907  0.00  0.00    +0.019 A 
ATOM      8  C   UNL     1       4.908   0.227  -8.387  0.00  0.00    +0.021 A 
ATOM      9  C   UNL     1       3.779   0.024  -7.681  0.00  0.00    +0.010 A 
ATOM     10  C   UNL     1       3.395  -1.246  -6.960  0.00  0.00    +0.014 C 
ATOM     11  H   UNL     1       2.737   0.004  -5.489  0.00  0.00    -0.080 HD
ENDROOT
BRANCH  10  12
ATOM     12  C   UNL     1       4.636  -1.925  -6.440  0.00  0.00    -0.010 A 
ATOM     13  C   UNL     1       5.414  -1.302  -5.483  0.00  0.00    +0.010 A 
ATOM     14  C   UNL     1       6.553  -1.920  -5.003  0.00  0.00    +0.050 A 
ATOM     15  C   UNL     1       6.920  -3.170  -5.481  0.00  0.00    +0.165 A 
ATOM     16  C   UNL     1       6.140  -3.799  -6.443  0.00  0.00    +0.204 A 
ATOM     17  C   UNL     1       4.992  -3.176  -6.919  0.00  0.00    +0.167 A 
BRANCH  17  18
ATOM     18  O   UNL     1       4.223  -3.791  -7.857  0.00  0.00    -0.491 OA
ATOM     19  C   UNL     1       4.610  -3.626  -9.223  0.00  0.00    +0.277 C 
ENDBRANCH  17  18
BRANCH  16  20
ATOM     20  O   UNL     1       6.496  -5.025  -6.915  0.00  0.00    -0.488 OA
ATOM     21  C   UNL     1       5.979  -6.163  -6.221  0.00  0.00    +0.277 C 
ENDBRANCH  16  20
BRANCH  15  22
ATOM     22  O   UNL     1       8.041  -3.777  -5.008  0.00  0.00    -0.491 OA
ATOM     23  C   UNL     1       8.795  -3.071  -4.021  0.00  0.00    +0.277 C 
ENDBRANCH  15  22
ENDBRANCH  10  12
BRANCH   1  24
ATOM     24  C   UNL     1       2.696  -1.901  -4.762  0.00  0.00    -0.042 C 
BRANCH  24  28
ATOM     25  C   UNL     1       0.307  -0.811  -1.393  0.00  0.00    -0.042 A 
ATOM     26  C   UNL     1      -0.216  -1.633  -2.374  0.00  0.00    +0.004 A 
ATOM     27  C   UNL     1       0.557  -1.986  -3.464  0.00  0.00    +0.002 A 
ATOM     28  C   UNL     1       1.853  -1.516  -3.574  0.00  0.00    -0.064 A 
ATOM     29  C   UNL     1       2.375  -0.694  -2.594  0.00  0.00    +0.002 A 
ATOM     30  C   UNL     1       1.601  -0.338  -1.505  0.00  0.00    +0.004 A 
BRANCH  25  32
ATOM     31  C   UNL     1      -0.694   1.095  -0.162  0.00  0.00    +0.015 C 
ATOM     32  C   UNL     1      -0.536  -0.427  -0.204  0.00  0.00    -0.013 C 
ATOM     33  C   UNL     1       0.145  -0.904   1.080  0.00  0.00    +0.015 C 
ATOM     34  C   UNL     1      -1.914  -1.080  -0.324  0.00  0.00    +0.015 C 
ENDBRANCH  25  32
ENDBRANCH  24  28
ENDBRANCH   1  24
TORSDOF 7
