REMARK  Name = ZINC39467599
REMARK  8 active torsions:
REMARK  status: ('A' for Active; 'I' for Inactive)
REMARK    1  A    between atoms: C_1  and  C_2
REMARK    2  A    between atoms: C_2  and  C_3
REMARK    3  A    between atoms: C_2  and  S_4
REMARK    4  A    between atoms: S_4  and  C_7
REMARK    5  A    between atoms: P_16  and  C_32
REMARK    6  A    between atoms: C_24  and  C_25
REMARK    7  A    between atoms: C_25  and  C_26
REMARK    8  A    between atoms: C_37  and  O_38
REMARK                            x       y       z     vdW  Elec       q    Type
REMARK                         _______ _______ _______ _____ _____    ______ ____
ROOT
ATOM      1  C   UNL     1      -1.311  -2.402   0.825  0.00  0.00    +0.088 C 
ATOM      2  C   UNL     1      -2.114  -3.137   1.588  0.00  0.00    +0.004 C 
ATOM      3  C   UNL     1      -2.145  -4.637   1.411  0.00  0.00    +0.017 C 
ATOM      4  C   UNL     1      -0.959  -5.245   2.162  0.00  0.00    -0.003 C 
ATOM      5  C   UNL     1      -0.873  -6.753   1.900  0.00  0.00    -0.020 C 
ATOM      6  C   UNL     1       0.336  -7.278   2.685  0.00  0.00    +0.157 C 
ATOM      7  O   UNL     1       0.436  -8.704   2.518  0.00  0.00    -0.316 OA
ATOM      8  P   UNL     1       0.387  -9.291   1.002  0.00  0.00    +0.291 P 
ATOM      9  O   UNL     1      -0.038 -10.709   1.014  0.00  0.00    -0.269 OA
ATOM     10  N   UNL     1      -0.731  -8.366   0.215  0.00  0.00    -0.288 NA
ATOM     11  N   UNL     1      -0.728  -7.010   0.466  0.00  0.00    +0.398 N 
ATOM     12  C   UNL     1      -1.880  -6.464  -0.271  0.00  0.00    -0.046 C 
ATOM     13  C   UNL     1      -2.014  -4.958  -0.081  0.00  0.00    +0.005 C 
ATOM     14  C   UNL     1      -0.798  -4.267  -0.638  0.00  0.00    -0.019 C 
ATOM     15  C   UNL     1      -0.457  -3.055  -0.182  0.00  0.00    -0.022 C 
ATOM     16  H   UNL     1      -1.364  -8.763  -0.403  0.00  0.00    +0.111 HD
ATOM     17  H   UNL     1       0.131  -6.600   0.131  0.00  0.00    -0.055 HD
ENDROOT
BRANCH   8  18
ATOM     18  C   UNL     1       2.012  -9.129   0.211  0.00  0.00    +0.091 A 
ATOM     19  C   UNL     1       2.282  -8.042  -0.597  0.00  0.00    +0.018 A 
ATOM     20  C   UNL     1       3.520  -7.918  -1.200  0.00  0.00    +0.001 A 
ATOM     21  C   UNL     1       4.491  -8.882  -0.995  0.00  0.00    +0.004 A 
ATOM     22  C   UNL     1       4.226  -9.970  -0.188  0.00  0.00    +0.046 A 
ATOM     23  C   UNL     1       2.986 -10.094   0.423  0.00  0.00    +0.131 A 
BRANCH  23  24
ATOM     24  O   UNL     1       2.724 -11.162   1.222  0.00  0.00    -0.506 OA
ATOM     25  H   UNL     1       2.353 -11.922   0.754  0.00  0.00    +0.292 HD
ENDBRANCH  23  24
ENDBRANCH   8  18
BRANCH   1  26
ATOM     26  S   UNL     1      -1.274  -0.650   1.012  0.00  0.00    -0.001 S 
ATOM     27  O   UNL     1      -2.280  -0.367   1.975  0.00  0.00    -0.169 OA
ATOM     28  O   UNL     1      -1.374  -0.142  -0.311  0.00  0.00    -0.169 OA
BRANCH  26  30
ATOM     29  C   UNL     1       0.499   1.217   1.935  0.00  0.00    +0.032 C 
ATOM     30  C   UNL     1       0.366  -0.289   1.698  0.00  0.00    +0.130 C 
ATOM     31  C   UNL     1       0.539  -1.032   3.024  0.00  0.00    +0.032 C 
ENDBRANCH  26  30
ENDBRANCH   1  26
BRANCH  15  32
ATOM     32  C   UNL     1       0.768  -2.354  -0.709  0.00  0.00    +0.071 C 
BRANCH  32  33
ATOM     33  C   UNL     1       1.346  -3.145  -1.854  0.00  0.00    -0.043 A 
ATOM     34  C   UNL     1       2.388  -4.026  -1.629  0.00  0.00    +0.004 A 
ATOM     35  C   UNL     1       2.918  -4.752  -2.679  0.00  0.00    +0.000 A 
ATOM     36  C   UNL     1       2.407  -4.597  -3.954  0.00  0.00    +0.000 A 
ATOM     37  C   UNL     1       1.365  -3.717  -4.179  0.00  0.00    +0.000 A 
ATOM     38  C   UNL     1       0.832  -2.994  -3.128  0.00  0.00    +0.004 A 
ENDBRANCH  32  33
ENDBRANCH  15  32
TORSDOF 6
