REMARK  Name = ZINC04261163
REMARK  10 active torsions:
REMARK  status: ('A' for Active; 'I' for Inactive)
REMARK    1  A    between atoms: C_1  and  C_2
REMARK    2  A    between atoms: C_5  and  C_8
REMARK    3  A    between atoms: C_8  and  O_10
REMARK    4  A    between atoms: O_10  and  C_11
REMARK    5  A    between atoms: C_16  and  C_17
REMARK    6  A    between atoms: N_18  and  N_19
REMARK    7  A    between atoms: C_20  and  C_22
REMARK    8  A    between atoms: C_22  and  O_23
REMARK    9  A    between atoms: O_23  and  C_24
REMARK   10  A    between atoms: C_29  and  C_30
REMARK                            x       y       z     vdW  Elec       q    Type
REMARK                         _______ _______ _______ _____ _____    ______ ____
ROOT
ATOM      1  C   UNL     1       1.282   3.296  -0.102  0.00  0.00    +0.141 A 
ATOM      2  C   UNL     1       2.497   3.960  -0.167  0.00  0.00    +0.048 A 
ATOM      3  C   UNL     1       3.679   3.247  -0.108  0.00  0.00    +0.019 A 
ATOM      4  C   UNL     1       3.661   1.868   0.022  0.00  0.00    +0.019 A 
ATOM      5  C   UNL     1       2.460   1.193   0.094  0.00  0.00    +0.028 A 
ATOM      6  C   UNL     1       1.258   1.902   0.036  0.00  0.00    +0.038 A 
ATOM      7 BR   UNL     1       5.288   0.908   0.102  0.00  0.00    -0.050 Br
ENDROOT
BRANCH   6   8
ATOM      8  C   UNL     1      -0.029   1.187   0.113  0.00  0.00    +0.142 C 
ATOM      9  N   UNL     1      -1.141   1.855   0.147  0.00  0.00    -0.188 NA
BRANCH   9  10
ATOM     10  N   UNL     1      -2.357   1.182   0.322  0.00  0.00    -0.204 N 
ATOM     11  C   UNL     1      -3.519   1.861   0.253  0.00  0.00    +0.270 C 
ATOM     12  O   UNL     1      -3.519   3.035  -0.052  0.00  0.00    -0.270 OA
ATOM     13  H   UNL     1      -2.363   0.227   0.492  0.00  0.00    +0.177 HD
BRANCH  11  14
ATOM     14  C   UNL     1      -4.820   1.161   0.554  0.00  0.00    +0.326 C 
BRANCH  14  15
ATOM     15  O   UNL     1      -5.901   2.085   0.414  0.00  0.00    -0.482 OA
BRANCH  15  16
ATOM     16  C   UNL     1      -7.152   1.611   0.653  0.00  0.00    +0.124 A 
ATOM     17  C   UNL     1      -7.336   0.283   1.008  0.00  0.00    +0.046 A 
ATOM     18  C   UNL     1      -8.608  -0.195   1.255  0.00  0.00    +0.004 A 
ATOM     19  C   UNL     1      -9.699   0.646   1.138  0.00  0.00    +0.000 A 
ATOM     20  C   UNL     1      -9.519   1.969   0.778  0.00  0.00    +0.007 A 
ATOM     21  C   UNL     1      -8.248   2.453   0.536  0.00  0.00    -0.009 A 
ATOM     22  C   UNL     1      -8.053   3.895   0.143  0.00  0.00    +0.047 C 
ENDBRANCH  15  16
ENDBRANCH  14  15
ENDBRANCH  11  14
ENDBRANCH   9  10
ENDBRANCH   6   8
BRANCH   1  23
ATOM     23  O   UNL     1       0.119   3.995  -0.165  0.00  0.00    -0.422 OA
BRANCH  23  24
ATOM     24  C   UNL     1      -0.413   4.406   1.003  0.00  0.00    +0.344 C 
ATOM     25  O   UNL     1       0.087   4.057   2.054  0.00  0.00    -0.245 OA
BRANCH  24  30
ATOM     26  C   UNL     1      -5.051   7.810   1.013  0.00  0.00    +0.044 C 
ATOM     27  C   UNL     1      -3.836   6.919   1.010  0.00  0.00    -0.050 A 
ATOM     28  C   UNL     1      -3.212   6.602   2.204  0.00  0.00    +0.004 A 
ATOM     29  C   UNL     1      -2.099   5.786   2.208  0.00  0.00    +0.015 A 
ATOM     30  C   UNL     1      -1.604   5.279   1.005  0.00  0.00    +0.059 A 
ATOM     31  C   UNL     1      -2.236   5.607  -0.196  0.00  0.00    +0.015 A 
ATOM     32  C   UNL     1      -3.350   6.420  -0.186  0.00  0.00    +0.004 A 
ENDBRANCH  24  30
ENDBRANCH  23  24
ENDBRANCH   1  23
TORSDOF 8
