REMARK  Name = ZINC08924690
REMARK  8 active torsions:
REMARK  status: ('A' for Active; 'I' for Inactive)
REMARK    1  A    between atoms: C_1  and  C_2
REMARK    2  A    between atoms: C_8  and  N_10
REMARK    3  A    between atoms: C_11  and  C_13
REMARK    4  A    between atoms: C_13  and  S_14
REMARK    5  A    between atoms: S_14  and  C_15
REMARK    6  A    between atoms: C_18  and  C_26
REMARK    7  A    between atoms: N_19  and  C_20
REMARK    8  A    between atoms: C_20  and  C_21
REMARK                            x       y       z     vdW  Elec       q    Type
REMARK                         _______ _______ _______ _____ _____    ______ ____
ROOT
ATOM      1  C   UNL     1       1.321  -0.356  -0.013  0.00  0.00    +0.192 A 
ATOM      2  N   UNL     1       2.016   0.758  -0.013  0.00  0.00    -0.122 NA
ATOM      3  N   UNL     1       1.222   1.768  -0.000  0.00  0.00    -0.133 NA
ATOM      4  C   UNL     1      -0.017   1.363   0.009  0.00  0.00    +0.138 A 
ATOM      5  N   UNL     1       0.002  -0.004   0.002  0.00  0.00    -0.298 N 
ENDROOT
BRANCH   4   6
ATOM      6  C   UNL     1      -1.242   2.240   0.020  0.00  0.00    +0.057 C 
ATOM      7  C   UNL     1      -1.038   3.743  -0.176  0.00  0.00    +0.012 C 
ATOM      8  C   UNL     1      -1.417   3.196   1.202  0.00  0.00    +0.012 C 
ENDBRANCH   4   6
BRANCH   1   9
ATOM      9  S   UNL     1       1.968  -1.995  -0.027  0.00  0.00    -0.077 S 
BRANCH   9  10
ATOM     10  C   UNL     1       3.742  -1.632  -0.042  0.00  0.00    +0.173 C 
BRANCH  10  12
ATOM     11  N   UNL     1       5.866  -2.900  -0.069  0.00  0.00    -0.312 N 
ATOM     12  C   UNL     1       4.518  -2.924  -0.056  0.00  0.00    +0.224 C 
ATOM     13  O   UNL     1       3.931  -3.985  -0.056  0.00  0.00    -0.275 OA
ATOM     14  H   UNL     1       6.336  -2.051  -0.069  0.00  0.00    +0.149 HD
BRANCH  11  21
ATOM     15  C   UNL     1       7.868  -3.427   1.956  0.00  0.00    +0.009 C 
ATOM     16  C   UNL     1       8.010  -3.922   0.515  0.00  0.00    +0.006 C 
ATOM     17  C   UNL     1       8.751  -2.872  -0.315  0.00  0.00    +0.005 C 
ATOM     18  C   UNL     1       8.893  -3.366  -1.755  0.00  0.00    +0.000 C 
ATOM     19  C   UNL     1       7.504  -3.600  -2.353  0.00  0.00    +0.002 C 
ATOM     20  C   UNL     1       6.762  -4.650  -1.524  0.00  0.00    +0.022 C 
ATOM     21  C   UNL     1       6.621  -4.155  -0.083  0.00  0.00    +0.076 C 
ENDBRANCH  11  21
ENDBRANCH  10  12
ENDBRANCH   9  10
ENDBRANCH   1   9
BRANCH   5  22
ATOM     22  C   UNL     1      -1.154  -0.904   0.008  0.00  0.00    +0.199 C 
BRANCH  22  23
ATOM     23  C   UNL     1      -1.563  -1.206  -1.410  0.00  0.00    +0.125 A 
ATOM     24  C   UNL     1      -1.107  -2.223  -2.162  0.00  0.00    +0.046 A 
ATOM     25  C   UNL     1      -1.753  -2.128  -3.416  0.00  0.00    +0.041 A 
ATOM     26  C   UNL     1      -2.565  -1.058  -3.356  0.00  0.00    +0.195 A 
ATOM     27  O   UNL     1      -2.451  -0.506  -2.137  0.00  0.00    -0.466 OA
ENDBRANCH  22  23
ENDBRANCH   5  22
TORSDOF 7
