REMARK  Name = ZINC21231417
REMARK  10 active torsions:
REMARK  status: ('A' for Active; 'I' for Inactive)
REMARK    1  A    between atoms: C_6  and  C_7
REMARK    2  A    between atoms: C_7  and  C_9
REMARK    3  A    between atoms: C_7  and  N_30
REMARK    4  A    between atoms: C_9  and  C_10
REMARK    5  A    between atoms: C_10  and  O_12
REMARK    6  A    between atoms: O_12  and  C_13
REMARK    7  A    between atoms: C_13  and  C_14
REMARK    8  A    between atoms: N_16  and  C_17
REMARK    9  A    between atoms: C_17  and  C_18
REMARK   10  A    between atoms: N_20  and  C_21
REMARK                            x       y       z     vdW  Elec       q    Type
REMARK                         _______ _______ _______ _____ _____    ______ ____
ROOT
ATOM      1  O   UNL     1      -0.072  -2.899   2.633  0.00  0.00    -0.455 OA
ENDROOT
BRANCH   1   2
ATOM      2  C   UNL     1       0.037  -2.199   1.493  0.00  0.00    +0.310 C 
ATOM      3  O   UNL     1       0.231  -2.773   0.448  0.00  0.00    -0.251 OA
BRANCH   2   4
ATOM      4  C   UNL     1      -0.082  -0.697   1.517  0.00  0.00    +0.147 C 
BRANCH   4   5
ATOM      5  C   UNL     1       0.080  -0.150   0.097  0.00  0.00    +0.115 C 
BRANCH   5  11
ATOM      6  C   UNL     1      -1.111   2.052   0.125  0.00  0.00    +0.007 A 
ATOM      7  C   UNL     1      -1.108   3.433   0.166  0.00  0.00    +0.020 A 
ATOM      8  C   UNL     1       0.092   4.121   0.208  0.00  0.00    +0.041 A 
ATOM      9  C   UNL     1       1.288   3.425   0.215  0.00  0.00    +0.020 A 
ATOM     10  C   UNL     1       1.283   2.043   0.179  0.00  0.00    +0.007 A 
ATOM     11  C   UNL     1       0.084   1.357   0.137  0.00  0.00    -0.027 A 
ATOM     12 CL   UNL     1       0.097   5.856   0.252  0.00  0.00    -0.084 Cl
ENDBRANCH   5  11
BRANCH   5  13
ATOM     13  N   UNL     1      -1.034  -0.613  -0.734  0.00  0.00    -0.292 N 
ATOM     14  C   UNL     1      -0.855  -0.800  -2.057  0.00  0.00    +0.298 C 
ATOM     15  O   UNL     1       0.252  -0.673  -2.545  0.00  0.00    -0.253 OA
ATOM     16  N   UNL     1      -1.902  -1.129  -2.839  0.00  0.00    -0.313 N 
ATOM     17  H   UNL     1      -2.016  -0.808  -0.279  0.00  0.00    +0.151 HD
ATOM     18  H   UNL     1      -1.756  -1.282  -3.918  0.00  0.00    +0.146 HD
ATOM     19  H   UNL     1      -2.903  -1.244  -2.397  0.00  0.00    +0.146 HD
ENDBRANCH   5  13
ENDBRANCH   4   5
ENDBRANCH   2   4
ENDBRANCH   1   2
BRANCH   1  20
ATOM     20  C   UNL     1       0.052  -4.342   2.535  0.00  0.00    +0.327 C 
BRANCH  20  21
ATOM     21  C   UNL     1      -0.097  -4.954   3.904  0.00  0.00    +0.251 C 
ATOM     22  O   UNL     1      -0.289  -4.243   4.868  0.00  0.00    -0.272 OA
ATOM     23  N   UNL     1      -0.016  -6.290   4.057  0.00  0.00    -0.304 N 
ATOM     24  H   UNL     1       0.158  -6.935   3.183  0.00  0.00    +0.149 HD
BRANCH  23  25
ATOM     25  C   UNL     1      -0.161  -6.885   5.388  0.00  0.00    +0.200 C 
BRANCH  25  26
ATOM     26  C   UNL     1      -0.032  -8.383   5.286  0.00  0.00    +0.234 C 
ATOM     27  O   UNL     1       0.163  -8.903   4.208  0.00  0.00    -0.274 OA
ATOM     28  N   UNL     1      -0.132  -9.145   6.394  0.00  0.00    -0.282 N 
ATOM     29  H   UNL     1      -0.399  -8.684   7.356  0.00  0.00    +0.155 HD
BRANCH  28  30
ATOM     30  C   UNL     1       0.104 -10.524   6.319  0.00  0.00    +0.072 A 
ATOM     31  C   UNL     1       0.909 -11.038   5.311  0.00  0.00    +0.029 A 
ATOM     32  C   UNL     1       1.145 -12.397   5.240  0.00  0.00    +0.043 A 
ATOM     33  C   UNL     1       0.572 -13.251   6.167  0.00  0.00    +0.161 A 
ATOM     34  C   UNL     1      -0.236 -12.743   7.172  0.00  0.00    +0.195 A 
ATOM     35  C   UNL     1      -0.472 -11.380   7.250  0.00  0.00    +0.182 A 
ATOM     36  F   UNL     1      -1.259 -10.884   8.229  0.00  0.00    -0.200 F 
ATOM     37  F   UNL     1      -0.796 -13.578   8.076  0.00  0.00    -0.199 F 
ATOM     38  F   UNL     1       0.801 -14.580   6.092  0.00  0.00    -0.202 F 
ENDBRANCH  28  30
ENDBRANCH  25  26
ENDBRANCH  23  25
ENDBRANCH  20  21
ENDBRANCH   1  20
TORSDOF 10
