REMARK  Name = ZINC02788564
REMARK  14 active torsions:
REMARK  status: ('A' for Active; 'I' for Inactive)
REMARK    1  A    between atoms: C_1  and  C_2
REMARK    2  A    between atoms: C_3  and  C_32
REMARK    3  A    between atoms: C_4  and  C_23
REMARK    4  A    between atoms: C_10  and  C_15
REMARK    5  A    between atoms: C_20  and  O_21
REMARK    6  A    between atoms: O_21  and  C_22
REMARK    7  A    between atoms: C_26  and  N_29
REMARK    8  A    between atoms: C_32  and  O_34
REMARK    9  A    between atoms: O_34  and  C_35
REMARK   10  A    between atoms: C_35  and  C_36
REMARK   11  A    between atoms: C_36  and  O_37
REMARK   12  A    between atoms: O_37  and  C_38
REMARK   13  A    between atoms: C_38  and  C_39
REMARK   14  A    between atoms: C_38  and  C_40
REMARK                            x       y       z     vdW  Elec       q    Type
REMARK                         _______ _______ _______ _____ _____    ______ ____
ROOT
ATOM      1  C   UNL     1      -7.579   0.852   5.655  0.00  0.00    +0.061 C 
ATOM      2  C   UNL     1      -6.074   0.931   5.678  0.00  0.00    +0.016 C 
ATOM      3  C   UNL     1      -5.414   0.767   6.837  0.00  0.00    +0.065 C 
ATOM      4  C   UNL     1      -3.916   0.831   6.896  0.00  0.00    +0.092 C 
ATOM      5  C   UNL     1      -3.354   1.501   5.667  0.00  0.00    +0.024 C 
ATOM      6  C   UNL     1      -4.103   1.637   4.553  0.00  0.00    +0.016 C 
ATOM      7  N   UNL     1      -5.389   1.168   4.519  0.00  0.00    -0.321 N 
ATOM      8  C   UNL     1      -3.549   2.310   3.321  0.00  0.00    +0.060 C 
ATOM      9  C   UNL     1      -2.038   2.082   3.246  0.00  0.00    +0.035 C 
ATOM     10  C   UNL     1      -1.399   2.639   4.523  0.00  0.00    +0.088 C 
ATOM     11  C   UNL     1      -2.032   1.977   5.716  0.00  0.00    +0.162 C 
ATOM     12  O   UNL     1      -1.390   1.852   6.740  0.00  0.00    -0.292 OA
ATOM     13  H   UNL     1      -5.871   0.983   3.547  0.00  0.00    +0.152 HD
ENDROOT
BRANCH   9  14
ATOM     14  C   UNL     1      -1.476   2.797   2.045  0.00  0.00    -0.002 A 
ATOM     15  C   UNL     1      -1.623   4.166   1.924  0.00  0.00    +0.007 A 
ATOM     16  C   UNL     1      -1.113   4.822   0.819  0.00  0.00    +0.001 A 
ATOM     17  C   UNL     1      -0.451   4.111  -0.165  0.00  0.00    +0.004 A 
ATOM     18  C   UNL     1      -0.296   2.744  -0.046  0.00  0.00    +0.046 A 
ATOM     19  C   UNL     1      -0.807   2.083   1.062  0.00  0.00    +0.124 A 
BRANCH  19  20
ATOM     20  O   UNL     1      -0.656   0.738   1.182  0.00  0.00    -0.495 OA
ATOM     21  C   UNL     1       0.039   0.067   0.129  0.00  0.00    +0.277 C 
ENDBRANCH  19  20
ENDBRANCH   9  14
BRANCH   4  22
ATOM     22  C   UNL     1      -3.365  -0.569   6.992  0.00  0.00    -0.035 A 
ATOM     23  C   UNL     1      -3.604  -1.477   5.977  0.00  0.00    +0.007 A 
ATOM     24  C   UNL     1      -3.094  -2.759   6.062  0.00  0.00    +0.033 A 
ATOM     25  C   UNL     1      -2.354  -3.136   7.168  0.00  0.00    +0.126 A 
ATOM     26  C   UNL     1      -2.119  -2.229   8.185  0.00  0.00    +0.033 A 
ATOM     27  C   UNL     1      -2.625  -0.946   8.097  0.00  0.00    +0.007 A 
BRANCH  25  28
ATOM     28  N   UNL     1      -1.813  -4.510   7.262  0.00  0.00    +0.056 N 
ATOM     29  O   UNL     1      -1.161  -4.843   8.236  0.00  0.00    -0.126 OA
ATOM     30  O   UNL     1      -2.020  -5.309   6.366  0.00  0.00    -0.126 OA
ENDBRANCH  25  28
ENDBRANCH   4  22
BRANCH   3  31
ATOM     31  C   UNL     1      -6.145   0.531   8.025  0.00  0.00    +0.338 C 
ATOM     32  O   UNL     1      -7.360   0.598   8.014  0.00  0.00    -0.245 OA
BRANCH  31  33
ATOM     33  O   UNL     1      -5.496   0.230   9.169  0.00  0.00    -0.459 OA
BRANCH  33  34
ATOM     34  C   UNL     1      -6.298   0.004  10.330  0.00  0.00    +0.260 C 
BRANCH  34  35
ATOM     35  C   UNL     1      -5.392  -0.321  11.519  0.00  0.00    +0.201 C 
BRANCH  35  36
ATOM     36  O   UNL     1      -4.588   0.819  11.831  0.00  0.00    -0.374 OA
BRANCH  36  37
ATOM     37  C   UNL     1      -3.701   0.620  12.934  0.00  0.00    +0.112 C 
ATOM     38  C   UNL     1      -2.451   1.482  12.745  0.00  0.00    +0.037 C 
ATOM     39  C   UNL     1      -4.405   1.021  14.233  0.00  0.00    +0.037 C 
ENDBRANCH  36  37
ENDBRANCH  35  36
ENDBRANCH  34  35
ENDBRANCH  33  34
ENDBRANCH  31  33
ENDBRANCH   3  31
TORSDOF 10
