REMARK  Name = ZINC19499601
REMARK  12 active torsions:
REMARK  status: ('A' for Active; 'I' for Inactive)
REMARK    1  A    between atoms: C_1  and  C_2
REMARK    2  A    between atoms: C_2  and  C_3
REMARK    3  A    between atoms: C_3  and  C_4
REMARK    4  A    between atoms: C_3  and  C_5
REMARK    5  A    between atoms: C_3  and  N_6
REMARK    6  A    between atoms: C_7  and  C_11
REMARK    7  A    between atoms: C_11  and  C_13
REMARK    8  A    between atoms: C_11  and  N_27
REMARK    9  A    between atoms: C_18  and  C_26
REMARK   10  A    between atoms: C_19  and  C_25
REMARK   11  A    between atoms: N_30  and  C_33
REMARK   12  A    between atoms: C_33  and  C_34
REMARK                            x       y       z     vdW  Elec       q    Type
REMARK                         _______ _______ _______ _____ _____    ______ ____
ROOT
ATOM      1  C   UNL     1       3.530   0.645  -0.580  0.00  0.00    +0.162 C 
ENDROOT
BRANCH   1   2
ATOM      2  C   UNL     1       3.755   0.279  -2.024  0.00  0.00    +0.042 A 
ATOM      3  C   UNL     1       4.234   1.207  -2.889  0.00  0.00    +0.021 A 
ATOM      4  C   UNL     1       4.446   0.817  -4.285  0.00  0.00    -0.001 A 
ATOM      5  C   UNL     1       4.941   1.729  -5.223  0.00  0.00    +0.010 A 
ATOM      6  C   UNL     1       5.122   1.336  -6.519  0.00  0.00    +0.004 A 
ATOM      7  C   UNL     1       4.819   0.040  -6.913  0.00  0.00    -0.046 A 
ATOM      8  C   UNL     1       4.332  -0.875  -6.005  0.00  0.00    -0.024 A 
ATOM      9  C   UNL     1       4.138  -0.498  -4.680  0.00  0.00    +0.052 A 
ATOM     10  N   UNL     1       3.650  -1.392  -3.752  0.00  0.00    -0.322 N 
ATOM     11  H   UNL     1       3.407  -2.422  -4.055  0.00  0.00    +0.169 HD
ATOM     12  C   UNL     1       3.463  -1.027  -2.472  0.00  0.00    +0.254 A 
ATOM     13  O   UNL     1       3.030  -1.844  -1.678  0.00  0.00    -0.268 OA
ATOM     14  C   UNL     1       4.008  -2.279  -6.447  0.00  0.00    +0.046 C 
ATOM     15  C   UNL     1       5.027  -0.371  -8.348  0.00  0.00    +0.044 C 
ENDBRANCH   1   2
BRANCH   1  16
ATOM     16  N   UNL     1       4.258  -0.294   0.284  0.00  0.00    -0.292 NA
ATOM     17  C   UNL     1       3.988  -0.023   1.703  0.00  0.00    +0.067 C 
ATOM     18  C   UNL     1       4.699  -1.070   2.563  0.00  0.00    -0.063 C 
ATOM     19  N   UNL     1       6.142  -1.030   2.287  0.00  0.00    +0.381 N 
ATOM     20  C   UNL     1       6.411  -1.301   0.868  0.00  0.00    -0.063 C 
ATOM     21  C   UNL     1       5.700  -0.255   0.007  0.00  0.00    +0.067 C 
ATOM     22  H   UNL     1       6.503  -0.016   2.513  0.00  0.00    -0.082 HD
BRANCH  19  23
ATOM     23  C   UNL     1       6.870  -1.970   3.150  0.00  0.00    -0.082 C 
ATOM     24  C   UNL     1       6.379  -1.823   4.592  0.00  0.00    -0.017 C 
ENDBRANCH  19  23
ENDBRANCH   1  16
BRANCH   1  26
ATOM     25  N   UNL     1       1.241   1.615  -0.008  0.00  0.00    -0.222 N 
ATOM     26  C   UNL     1       2.057   0.577  -0.268  0.00  0.00    +0.174 A 
ATOM     27  N   UNL     1       1.322  -0.506  -0.198  0.00  0.00    -0.111 NA
ATOM     28  N   UNL     1       0.117  -0.151   0.090  0.00  0.00    -0.023 NA
ATOM     29  N   UNL     1       0.065   1.130   0.206  0.00  0.00    -0.043 NA
BRANCH  25  30
ATOM     30  C   UNL     1       1.618   3.030   0.025  0.00  0.00    +0.062 C 
ATOM     31  C   UNL     1       2.638   3.260   1.143  0.00  0.00    +0.036 C 
ATOM     32  C   UNL     1       2.235   3.426  -1.317  0.00  0.00    +0.036 C 
BRANCH  30  34
ATOM     33  C   UNL     1       0.768   5.361   0.321  0.00  0.00    +0.006 C 
ATOM     34  C   UNL     1       0.374   3.883   0.286  0.00  0.00    +0.026 C 
ENDBRANCH  30  34
ENDBRANCH  25  30
ENDBRANCH   1  26
TORSDOF 6
