REMARK  Name = ZINC32624437
REMARK  16 active torsions:
REMARK  status: ('A' for Active; 'I' for Inactive)
REMARK    1  A    between atoms: C_1  and  C_2
REMARK    2  A    between atoms: C_2  and  C_3
REMARK    3  A    between atoms: C_3  and  C_4
REMARK    4  A    between atoms: C_4  and  C_5
REMARK    5  A    between atoms: C_5  and  N_6
REMARK    6  A    between atoms: C_7  and  C_21
REMARK    7  A    between atoms: N_11  and  C_12
REMARK    8  A    between atoms: C_15  and  O_18
REMARK    9  A    between atoms: O_18  and  C_19
REMARK   10  A    between atoms: C_19  and  C_20
REMARK   11  A    between atoms: C_24  and  S_27
REMARK   12  A    between atoms: S_27  and  N_30
REMARK   13  A    between atoms: N_30  and  C_31
REMARK   14  A    between atoms: N_30  and  C_33
REMARK   15  A    between atoms: C_31  and  C_32
REMARK   16  A    between atoms: C_33  and  C_34
REMARK                            x       y       z     vdW  Elec       q    Type
REMARK                         _______ _______ _______ _____ _____    ______ ____
ROOT
ATOM      1  N   UNL     1      -1.645   5.524   2.746  0.00  0.00    -0.321 N 
ATOM      2  C   UNL     1      -2.467   6.192   1.880  0.00  0.00    +0.058 A 
ATOM      3  C   UNL     1      -2.308   7.520   1.700  0.00  0.00    +0.075 A 
ATOM      4  S   UNL     1      -0.941   7.885   2.788  0.00  0.00    -0.059 S 
ATOM      5  C   UNL     1      -0.676   6.235   3.417  0.00  0.00    +0.152 A 
ATOM      6  N   UNL     1       0.213   5.809   4.293  0.00  0.00    -0.336 N 
ATOM      7  H   UNL     1       0.299   4.735   4.512  0.00  0.00    +0.168 HD
ENDROOT
BRANCH   6   8
ATOM      8  C   UNL     1       1.030   6.705   4.929  0.00  0.00    +0.041 A 
ATOM      9  C   UNL     1       2.307   6.968   4.428  0.00  0.00    +0.029 A 
ATOM     10  C   UNL     1       3.124   7.874   5.071  0.00  0.00    +0.047 A 
ATOM     11  C   UNL     1       2.684   8.517   6.219  0.00  0.00    +0.121 A 
ATOM     12  C   UNL     1       1.417   8.256   6.723  0.00  0.00    +0.047 A 
ATOM     13  C   UNL     1       0.591   7.355   6.085  0.00  0.00    +0.029 A 
BRANCH  11  14
ATOM     14  O   UNL     1       3.495   9.407   6.852  0.00  0.00    -0.492 OA
BRANCH  14  15
ATOM     15  C   UNL     1       4.785   9.629   6.279  0.00  0.00    +0.225 C 
ATOM     16  C   UNL     1       5.548  10.652   7.123  0.00  0.00    +0.048 C 
ENDBRANCH  14  15
ENDBRANCH  11  14
ENDBRANCH   6   8
BRANCH   2  17
ATOM     17  C   UNL     1      -3.522   5.463   1.145  0.00  0.00    -0.001 A 
ATOM     18  C   UNL     1      -3.616   5.576  -0.243  0.00  0.00    +0.012 A 
ATOM     19  C   UNL     1      -4.600   4.889  -0.923  0.00  0.00    +0.029 A 
ATOM     20  C   UNL     1      -5.500   4.098  -0.232  0.00  0.00    +0.106 A 
ATOM     21  C   UNL     1      -5.417   3.986   1.145  0.00  0.00    +0.029 A 
ATOM     22  C   UNL     1      -4.434   4.664   1.837  0.00  0.00    +0.012 A 
BRANCH  20  23
ATOM     23  S   UNL     1      -6.758   3.229  -1.107  0.00  0.00    +0.061 S 
ATOM     24  O   UNL     1      -6.287   3.065  -2.438  0.00  0.00    -0.153 OA
ATOM     25  O   UNL     1      -7.134   2.128  -0.291  0.00  0.00    -0.153 OA
BRANCH  23  26
ATOM     26  N   UNL     1      -8.075   4.228  -1.192  0.00  0.00    -0.177 NA
BRANCH  26  27
ATOM     27  C   UNL     1      -8.227   5.147  -2.322  0.00  0.00    +0.106 C 
ATOM     28  C   UNL     1      -9.107   4.499  -3.392  0.00  0.00    +0.022 C 
ENDBRANCH  26  27
BRANCH  26  29
ATOM     29  C   UNL     1      -9.090   4.193  -0.135  0.00  0.00    +0.106 C 
ATOM     30  C   UNL     1      -8.789   5.281   0.898  0.00  0.00    +0.022 C 
ENDBRANCH  26  29
ENDBRANCH  23  26
ENDBRANCH  20  23
ENDBRANCH   2  17
BRANCH   1  31
ATOM     31  C   UNL     1      -1.796   4.083   2.959  0.00  0.00    +0.124 C 
BRANCH  31  32
ATOM     32  C   UNL     1      -1.039   3.323   1.868  0.00  0.00    +0.022 C 
BRANCH  32  33
ATOM     33  C   UNL     1      -1.198   1.818   2.091  0.00  0.00    +0.001 C 
BRANCH  33  35
ATOM     34  C   UNL     1      -0.599  -0.447   1.223  0.00  0.00    +0.004 C 
ATOM     35  C   UNL     1      -0.440   1.058   1.000  0.00  0.00    -0.003 C 
ENDBRANCH  33  35
ENDBRANCH  32  33
ENDBRANCH  31  32
ENDBRANCH   1  31
TORSDOF 12
