REMARK  Name = ZINC19727361
REMARK  12 active torsions:
REMARK  status: ('A' for Active; 'I' for Inactive)
REMARK    1  A    between atoms: C_1  and  C_2
REMARK    2  A    between atoms: C_2  and  C_3
REMARK    3  A    between atoms: C_3  and  C_5
REMARK    4  A    between atoms: C_3  and  O_6
REMARK    5  A    between atoms: O_6  and  C_7
REMARK    6  A    between atoms: C_7  and  C_9
REMARK    7  A    between atoms: C_10  and  C_35
REMARK    8  A    between atoms: C_14  and  C_16
REMARK    9  A    between atoms: C_25  and  C_31
REMARK   10  A    between atoms: C_27  and  C_30
REMARK   11  A    between atoms: C_31  and  O_33
REMARK   12  A    between atoms: O_33  and  C_34
REMARK                            x       y       z     vdW  Elec       q    Type
REMARK                         _______ _______ _______ _____ _____    ______ ____
ROOT
ATOM      1  C   UNL     1       3.902   4.556  -3.385  0.00  0.00    +0.065 C 
ATOM      2  C   UNL     1       5.007   4.023  -2.835  0.00  0.00    +0.016 C 
ATOM      3  N   UNL     1       4.912   2.959  -1.982  0.00  0.00    -0.321 N 
ATOM      4  C   UNL     1       3.727   2.665  -1.363  0.00  0.00    +0.016 C 
ATOM      5  C   UNL     1       2.562   3.141  -1.851  0.00  0.00    +0.025 C 
ATOM      6  C   UNL     1       2.540   4.000  -3.091  0.00  0.00    +0.092 C 
ATOM      7  C   UNL     1       1.339   2.849  -1.223  0.00  0.00    +0.176 C 
ATOM      8  O   UNL     1       0.310   3.309  -1.677  0.00  0.00    -0.291 OA
ATOM      9  C   UNL     1       1.280   1.975   0.000  0.00  0.00    +0.171 C 
ATOM     10  C   UNL     1       2.460   0.997  -0.029  0.00  0.00    +0.013 C 
ATOM     11  C   UNL     1       3.757   1.804  -0.124  0.00  0.00    +0.055 C 
ATOM     12  C   UNL     1       2.335   0.078  -1.246  0.00  0.00    +0.009 C 
ATOM     13  C   UNL     1       6.359   4.603  -3.160  0.00  0.00    +0.061 C 
ATOM     14  H   UNL     1       5.793   2.329  -1.789  0.00  0.00    +0.152 HD
ENDROOT
BRANCH   6  15
ATOM     15  C   UNL     1       2.082   3.168  -4.261  0.00  0.00    -0.034 A 
ATOM     16  C   UNL     1       2.805   2.052  -4.640  0.00  0.00    +0.004 A 
ATOM     17  C   UNL     1       2.382   1.285  -5.710  0.00  0.00    +0.001 A 
ATOM     18  C   UNL     1       1.243   1.640  -6.408  0.00  0.00    +0.015 A 
ATOM     19  C   UNL     1       0.523   2.760  -6.032  0.00  0.00    +0.018 A 
ATOM     20  C   UNL     1       0.943   3.523  -4.958  0.00  0.00    +0.019 A 
ATOM     21 BR   UNL     1      -1.035   3.246  -6.986  0.00  0.00    -0.050 Br
ENDBRANCH   6  15
BRANCH   1  22
ATOM     22  C   UNL     1       4.026   5.662  -4.258  0.00  0.00    +0.338 C 
ATOM     23  O   UNL     1       5.125   6.122  -4.504  0.00  0.00    -0.245 OA
BRANCH  22  24
ATOM     24  O   UNL     1       2.926   6.207  -4.817  0.00  0.00    -0.458 OA
BRANCH  24  25
ATOM     25  C   UNL     1       3.125   7.322  -5.689  0.00  0.00    +0.173 C 
ATOM     26  C   UNL     1       3.321   6.821  -7.121  0.00  0.00    +0.052 C 
BRANCH  25  28
ATOM     27  C   UNL     1       1.778   8.838  -4.230  0.00  0.00    +0.007 C 
ATOM     28  C   UNL     1       1.901   8.238  -5.632  0.00  0.00    +0.041 C 
ENDBRANCH  25  28
ENDBRANCH  24  25
ENDBRANCH  22  24
ENDBRANCH   1  22
BRANCH   9  29
ATOM     29  C   UNL     1      -0.014   1.204   0.009  0.00  0.00    +0.318 C 
ATOM     30  O   UNL     1       0.002  -0.004   0.002  0.00  0.00    -0.250 OA
BRANCH  29  31
ATOM     31  O   UNL     1      -1.186   1.859   0.018  0.00  0.00    -0.467 OA
ATOM     32  C   UNL     1      -2.393   1.052   0.019  0.00  0.00    +0.280 C 
ENDBRANCH  29  31
ENDBRANCH   9  29
TORSDOF 7
