REMARK  Name = ZINC00909546
REMARK  6 active torsions:
REMARK  status: ('A' for Active; 'I' for Inactive)
REMARK    1  A    between atoms: C_1  and  C_2
REMARK    2  A    between atoms: C_12  and  C_14
REMARK    3  A    between atoms: C_14  and  C_16
REMARK    4  A    between atoms: C_14  and  N_29
REMARK    5  A    between atoms: N_20  and  C_21
REMARK    6  A    between atoms: C_21  and  C_22
REMARK                            x       y       z     vdW  Elec       q    Type
REMARK                         _______ _______ _______ _____ _____    ______ ____
ROOT
ATOM      1  C   UNL     1       0.087  -2.864   4.922  0.00  0.00    +0.179 C 
ENDROOT
BRANCH   1  13
ATOM      2  C   UNL     1       0.394   1.192  -0.242  0.00  0.00    +0.046 C 
ATOM      3  C   UNL     1       0.214  -0.302  -0.159  0.00  0.00    -0.026 A 
ATOM      4  C   UNL     1       0.076  -1.048  -1.310  0.00  0.00    +0.005 A 
ATOM      5  C   UNL     1      -0.084  -2.425  -1.248  0.00  0.00    +0.001 A 
ATOM      6  C   UNL     1      -0.118  -3.067  -0.042  0.00  0.00    +0.010 A 
ATOM      7  C   UNL     1       0.014  -2.331   1.139  0.00  0.00    -0.001 A 
ATOM      8  C   UNL     1       0.183  -0.934   1.080  0.00  0.00    +0.052 A 
ATOM      9  N   UNL     1       0.314  -0.213   2.248  0.00  0.00    -0.322 N 
ATOM     10  H   UNL     1       0.430   0.749   2.205  0.00  0.00    +0.169 HD
ATOM     11  C   UNL     1       0.283  -0.824   3.445  0.00  0.00    +0.255 A 
ATOM     12  O   UNL     1       0.402  -0.155   4.457  0.00  0.00    -0.268 OA
ATOM     13  C   UNL     1       0.116  -2.221   3.559  0.00  0.00    +0.045 A 
ATOM     14  C   UNL     1      -0.018  -2.986   2.448  0.00  0.00    +0.021 A 
ENDBRANCH   1  13
BRANCH   1  15
ATOM     15  N   UNL     1       1.289  -2.476   5.672  0.00  0.00    -0.315 N 
ATOM     16  C   UNL     1       2.516  -2.821   4.923  0.00  0.00    +0.111 C 
ATOM     17  C   UNL     1       3.530  -3.116   6.052  0.00  0.00    +0.056 C 
ATOM     18  C   UNL     1       2.639  -3.533   7.204  0.00  0.00    -0.025 A 
ATOM     19  C   UNL     1       1.341  -3.131   6.909  0.00  0.00    +0.034 A 
ATOM     20  C   UNL     1       0.322  -3.409   7.818  0.00  0.00    +0.023 A 
ATOM     21  C   UNL     1       0.604  -4.071   8.995  0.00  0.00    +0.002 A 
ATOM     22  C   UNL     1       1.899  -4.462   9.282  0.00  0.00    +0.000 A 
ATOM     23  C   UNL     1       2.916  -4.192   8.383  0.00  0.00    +0.005 A 
ENDBRANCH   1  15
BRANCH   1  24
ATOM     24  C   UNL     1      -1.140  -2.407   5.667  0.00  0.00    +0.177 A 
ATOM     25  N   UNL     1      -1.325  -1.236   6.226  0.00  0.00    -0.111 NA
ATOM     26  N   UNL     1      -2.497  -1.231   6.761  0.00  0.00    -0.023 NA
ATOM     27  N   UNL     1      -3.062  -2.371   6.563  0.00  0.00    -0.044 NA
ATOM     28  N   UNL     1      -2.257  -3.123   5.893  0.00  0.00    -0.223 N 
BRANCH  28  29
ATOM     29  C   UNL     1      -2.511  -4.499   5.458  0.00  0.00    +0.182 C 
BRANCH  29  30
ATOM     30  C   UNL     1      -2.041  -5.457   6.523  0.00  0.00    -0.026 A 
ATOM     31  C   UNL     1      -0.745  -5.938   6.497  0.00  0.00    +0.008 A 
ATOM     32  C   UNL     1      -0.312  -6.812   7.476  0.00  0.00    +0.038 A 
ATOM     33  C   UNL     1      -1.179  -7.214   8.477  0.00  0.00    +0.123 A 
ATOM     34  C   UNL     1      -2.479  -6.736   8.500  0.00  0.00    +0.038 A 
ATOM     35  C   UNL     1      -2.908  -5.857   7.523  0.00  0.00    +0.008 A 
ATOM     36  F   UNL     1      -0.758  -8.072   9.432  0.00  0.00    -0.205 F 
ENDBRANCH  29  30
ENDBRANCH  28  29
ENDBRANCH   1  24
TORSDOF 5
