REMARK  Name = ZINC03238129
REMARK  8 active torsions:
REMARK  status: ('A' for Active; 'I' for Inactive)
REMARK    1  A    between atoms: C_1  and  O_2
REMARK    2  A    between atoms: O_2  and  C_3
REMARK    3  A    between atoms: C_6  and  N_7
REMARK    4  A    between atoms: N_7  and  N_8
REMARK    5  A    between atoms: C_9  and  C_11
REMARK    6  A    between atoms: C_14  and  N_17
REMARK    7  A    between atoms: N_17  and  S_18
REMARK    8  A    between atoms: S_18  and  C_21
REMARK                            x       y       z     vdW  Elec       q    Type
REMARK                         _______ _______ _______ _____ _____    ______ ____
ROOT
ATOM      1  N   UNL     1       3.531   0.464  -6.219  0.00  0.00    -0.233 N 
ATOM      2  C   UNL     1       4.129  -0.138  -7.267  0.00  0.00    +0.260 C 
ATOM      3  O   UNL     1       4.171  -1.351  -7.329  0.00  0.00    -0.269 OA
ATOM      4  H   UNL     1       3.498   1.432  -6.169  0.00  0.00    +0.173 HD
ENDROOT
BRANCH   2   5
ATOM      5  C   UNL     1       4.734   0.677  -8.338  0.00  0.00    +0.038 A 
ATOM      6  C   UNL     1       4.692   2.072  -8.265  0.00  0.00    +0.015 A 
ATOM      7  C   UNL     1       5.257   2.829  -9.266  0.00  0.00    +0.027 A 
ATOM      8  C   UNL     1       5.869   2.207 -10.350  0.00  0.00    +0.074 A 
ATOM      9  C   UNL     1       5.912   0.817 -10.426  0.00  0.00    +0.027 A 
ATOM     10  C   UNL     1       5.354   0.055  -9.425  0.00  0.00    +0.015 A 
BRANCH   8  11
ATOM     11  N   UNL     1       6.438   2.974 -11.360  0.00  0.00    -0.097 NA
BRANCH  11  12
ATOM     12  S   UNL     1       7.167   2.236 -12.651  0.00  0.00    +0.098 S 
ATOM     13  O   UNL     1       8.310   1.563 -12.142  0.00  0.00    -0.148 OA
ATOM     14  O   UNL     1       6.140   1.561 -13.365  0.00  0.00    -0.148 OA
BRANCH  12  15
ATOM     15  C   UNL     1       7.764   3.510 -13.712  0.00  0.00    +0.148 A 
ATOM     16  C   UNL     1       8.972   4.124 -13.711  0.00  0.00    +0.037 A 
ATOM     17  C   UNL     1       9.224   5.109 -14.649  0.00  0.00    +0.010 A 
ATOM     18  C   UNL     1       8.255   5.431 -15.540  0.00  0.00    +0.047 A 
ATOM     19  S   UNL     1       6.937   4.322 -15.070  0.00  0.00    -0.077 S 
ENDBRANCH  12  15
ENDBRANCH  11  12
ENDBRANCH   8  11
ENDBRANCH   2   5
BRANCH   1  20
ATOM     20  N   UNL     1       2.958  -0.310  -5.201  0.00  0.00    -0.271 N 
ATOM     21  H   UNL     1       2.991  -1.278  -5.251  0.00  0.00    +0.169 HD
BRANCH  20  25
ATOM     22  C   UNL     1       0.606  -0.608  -1.057  0.00  0.00    +0.168 C 
ATOM     23  C   UNL     1       1.162   0.146  -2.043  0.00  0.00    +0.058 C 
ATOM     24  C   UNL     1       1.789  -0.484  -3.142  0.00  0.00    -0.005 C 
ATOM     25  C   UNL     1       2.362   0.289  -4.158  0.00  0.00    +0.095 C 
ATOM     26  C   UNL     1       1.837  -1.893  -3.213  0.00  0.00    +0.028 C 
ATOM     27  C   UNL     1       1.281  -2.643  -2.226  0.00  0.00    +0.069 C 
ATOM     28  C   UNL     1       0.662  -2.017  -1.129  0.00  0.00    +0.234 C 
ATOM     29  O   UNL     1       0.166  -2.695  -0.238  0.00  0.00    -0.283 OA
ATOM     30 BR   UNL     1       1.347  -4.530  -2.323  0.00  0.00    -0.046 Br
BRANCH  22  32
ATOM     31  C   UNL     1      -0.017   1.425   0.010  0.00  0.00    +0.277 C 
ATOM     32  O   UNL     1       0.002  -0.004   0.002  0.00  0.00    -0.491 OA
ENDBRANCH  22  32
ENDBRANCH  20  25
ENDBRANCH   1  20
TORSDOF 7
