REMARK  Name = ZINC16460531
REMARK  9 active torsions:
REMARK  status: ('A' for Active; 'I' for Inactive)
REMARK    1  A    between atoms: C_1  and  C_2
REMARK    2  A    between atoms: C_2  and  N_60
REMARK    3  A    between atoms: C_8  and  C_10
REMARK    4  A    between atoms: C_13  and  C_15
REMARK    5  A    between atoms: C_15  and  S_16
REMARK    6  A    between atoms: S_16  and  C_17
REMARK    7  A    between atoms: C_20  and  C_29
REMARK    8  A    between atoms: N_21  and  C_22
REMARK    9  A    between atoms: C_25  and  C_28
REMARK                            x       y       z     vdW  Elec       q    Type
REMARK                         _______ _______ _______ _____ _____    ______ ____
ROOT
ATOM      1  S   UNL     1      -0.677   8.547   1.269  0.00  0.00    -0.079 S 
ENDROOT
BRANCH   1   2
ATOM      2  C   UNL     1      -1.584   9.458   2.474  0.00  0.00    +0.197 A 
ATOM      3  N   UNL     1      -2.888   9.620   2.509  0.00  0.00    -0.122 NA
ATOM      4  N   UNL     1      -3.219  10.340   3.520  0.00  0.00    -0.125 NA
ATOM      5  C   UNL     1      -2.145  10.684   4.198  0.00  0.00    +0.205 A 
ATOM      6  N   UNL     1      -1.063  10.124   3.550  0.00  0.00    -0.268 N 
BRANCH   6   7
ATOM      7  C   UNL     1       0.286  10.220   3.917  0.00  0.00    +0.051 A 
ATOM      8  C   UNL     1       0.725   9.656   5.107  0.00  0.00    +0.026 A 
ATOM      9  C   UNL     1       2.057   9.746   5.462  0.00  0.00    +0.005 A 
ATOM     10  C   UNL     1       2.950  10.408   4.639  0.00  0.00    -0.050 A 
ATOM     11  C   UNL     1       2.515  10.975   3.456  0.00  0.00    +0.005 A 
ATOM     12  C   UNL     1       1.185  10.883   3.093  0.00  0.00    +0.026 A 
ATOM     13  C   UNL     1       4.401  10.511   5.033  0.00  0.00    +0.044 C 
ENDBRANCH   6   7
BRANCH   5  14
ATOM     14  C   UNL     1      -2.106  11.505   5.418  0.00  0.00    +0.172 A 
ATOM     15  C   UNL     1      -3.172  11.815   6.209  0.00  0.00    +0.053 A 
ATOM     16  C   UNL     1      -2.679  12.612   7.260  0.00  0.00    +0.042 A 
ATOM     17  C   UNL     1      -1.354  12.757   7.058  0.00  0.00    +0.196 A 
ATOM     18  O   UNL     1      -1.012  12.088   5.945  0.00  0.00    -0.460 OA
ENDBRANCH   5  14
ENDBRANCH   1   2
BRANCH   1  19
ATOM     19  C   UNL     1      -2.034   7.979   0.216  0.00  0.00    +0.140 C 
BRANCH  19  23
ATOM     20  C   UNL     1      -0.767   5.308  -2.064  0.00  0.00    +0.133 A 
ATOM     21  C   UNL     1      -0.485   6.137  -3.120  0.00  0.00    +0.080 A 
ATOM     22  S   UNL     1      -0.964   7.680  -2.487  0.00  0.00    -0.079 S 
ATOM     23  C   UNL     1      -1.480   7.154  -0.917  0.00  0.00    +0.089 A 
ATOM     24  N   UNL     1      -1.269   5.864  -0.961  0.00  0.00    -0.239 NA
BRANCH  20  30
ATOM     25  C   UNL     1       0.456   1.139  -0.088  0.00  0.00    -0.060 C 
ATOM     26  C   UNL     1      -0.558   1.627  -1.129  0.00  0.00    +0.089 C 
ATOM     27  N   UNL     1      -0.647   3.092  -1.042  0.00  0.00    -0.300 N 
ATOM     28  C   UNL     1      -0.879   3.699   0.277  0.00  0.00    +0.089 C 
ATOM     29  C   UNL     1       0.148   3.129   1.262  0.00  0.00    -0.060 C 
ATOM     30  C   UNL     1      -0.519   3.859  -2.143  0.00  0.00    +0.265 C 
ATOM     31  O   UNL     1      -0.199   3.354  -3.202  0.00  0.00    -0.268 OA
ATOM     32  N   UNL     1       0.059   1.653   1.240  0.00  0.00    +0.382 N 
ATOM     33  H   UNL     1      -0.911   1.375   1.428  0.00  0.00    -0.082 HD
BRANCH  32  35
ATOM     34  C   UNL     1       0.695   1.822   3.601  0.00  0.00    -0.017 C 
ATOM     35  C   UNL     1       0.933   1.079   2.285  0.00  0.00    -0.082 C 
ENDBRANCH  32  35
ENDBRANCH  20  30
ENDBRANCH  19  23
ENDBRANCH   1  19
TORSDOF 7
