REMARK  Name = ZINC36821758
REMARK  8 active torsions:
REMARK  status: ('A' for Active; 'I' for Inactive)
REMARK    1  A    between atoms: C_1  and  C_2
REMARK    2  A    between atoms: C_3  and  C_32
REMARK    3  A    between atoms: C_11  and  C_13
REMARK    4  A    between atoms: C_13  and  S_14
REMARK    5  A    between atoms: S_14  and  C_15
REMARK    6  A    between atoms: C_18  and  C_26
REMARK    7  A    between atoms: N_19  and  C_20
REMARK    8  A    between atoms: C_26  and  N_27
REMARK                            x       y       z     vdW  Elec       q    Type
REMARK                         _______ _______ _______ _____ _____    ______ ____
ROOT
ATOM      1  C   UNL     1       0.236  -5.980   5.636  0.00  0.00    +0.196 A 
ATOM      2  N   UNL     1       0.157  -5.632   6.899  0.00  0.00    -0.122 NA
ATOM      3  N   UNL     1       0.087  -6.681   7.638  0.00  0.00    -0.135 NA
ATOM      4  C   UNL     1       0.118  -7.754   6.900  0.00  0.00    +0.122 A 
ATOM      5  N   UNL     1       0.208  -7.347   5.595  0.00  0.00    -0.276 N 
ENDROOT
BRANCH   5   6
ATOM      6  C   UNL     1       0.264  -8.162   4.455  0.00  0.00    +0.050 A 
ATOM      7  C   UNL     1      -0.839  -8.922   4.089  0.00  0.00    +0.026 A 
ATOM      8  C   UNL     1      -0.782  -9.723   2.965  0.00  0.00    +0.002 A 
ATOM      9  C   UNL     1       0.372  -9.770   2.206  0.00  0.00    +0.000 A 
ATOM     10  C   UNL     1       1.472  -9.014   2.568  0.00  0.00    +0.002 A 
ATOM     11  C   UNL     1       1.419  -8.207   3.687  0.00  0.00    +0.026 A 
ENDBRANCH   5   6
BRANCH   1  12
ATOM     12  S   UNL     1       0.350  -4.892   4.254  0.00  0.00    -0.078 S 
BRANCH  12  13
ATOM     13  C   UNL     1       0.339  -3.237   4.997  0.00  0.00    +0.151 C 
BRANCH  13  24
ATOM     14  C   UNL     1       0.722   2.031   0.868  0.00  0.00    +0.045 C 
ATOM     15  C   UNL     1       0.697   0.529   0.742  0.00  0.00    -0.026 A 
ATOM     16  C   UNL     1       0.767  -0.052  -0.466  0.00  0.00    -0.008 A 
ATOM     17  S   UNL     1       0.702  -1.794  -0.090  0.00  0.00    -0.073 S 
ATOM     18  C   UNL     1       0.583  -1.689   1.677  0.00  0.00    +0.116 A 
ATOM     19  C   UNL     1       0.603  -0.305   1.925  0.00  0.00    +0.075 A 
ATOM     20  C   UNL     1       0.522   0.078   3.304  0.00  0.00    +0.260 A 
ATOM     21  O   UNL     1       0.527   1.255   3.621  0.00  0.00    -0.267 OA
ATOM     22  N   UNL     1       0.440  -0.882   4.244  0.00  0.00    -0.310 N 
ATOM     23  H   UNL     1       0.385  -0.629   5.178  0.00  0.00    +0.170 HD
ATOM     24  C   UNL     1       0.432  -2.198   3.909  0.00  0.00    +0.121 A 
ATOM     25  N   UNL     1       0.495  -2.579   2.662  0.00  0.00    -0.226 NA
ATOM     26  C   UNL     1       0.874   0.608  -1.816  0.00  0.00    +0.052 C 
ENDBRANCH  13  24
ENDBRANCH  12  13
ENDBRANCH   1  12
BRANCH   4  27
ATOM     27  C   UNL     1       0.060  -9.178   7.389  0.00  0.00    -0.001 C 
BRANCH  27  28
ATOM     28  N   UNL     1       1.424  -9.707   7.522  0.00  0.00    +0.384 N 
ATOM     29  C   UNL     1       2.127  -9.034   8.644  0.00  0.00    -0.078 C 
ATOM     30  C   UNL     1       3.251 -10.036   9.009  0.00  0.00    -0.020 C 
ATOM     31  C   UNL     1       2.565 -11.409   8.824  0.00  0.00    -0.020 C 
ATOM     32  C   UNL     1       1.382 -11.143   7.874  0.00  0.00    -0.078 C 
ATOM     33  H   UNL     1       1.934  -9.574   6.661  0.00  0.00    -0.081 HD
ENDBRANCH  27  28
ENDBRANCH   4  27
TORSDOF 6
