REMARK  Name = ZINC21123135
REMARK  11 active torsions:
REMARK  status: ('A' for Active; 'I' for Inactive)
REMARK    1  A    between atoms: C_1  and  O_2
REMARK    2  A    between atoms: O_2  and  C_3
REMARK    3  A    between atoms: C_3  and  C_5
REMARK    4  A    between atoms: C_7  and  C_33
REMARK    5  A    between atoms: C_9  and  N_11
REMARK    6  A    between atoms: C_15  and  N_19
REMARK    7  A    between atoms: N_19  and  C_20
REMARK    8  A    between atoms: C_20  and  C_21
REMARK    9  A    between atoms: C_21  and  C_22
REMARK   10  A    between atoms: C_33  and  O_35
REMARK   11  A    between atoms: O_35  and  C_36
REMARK                            x       y       z     vdW  Elec       q    Type
REMARK                         _______ _______ _______ _____ _____    ______ ____
ROOT
ATOM      1  N   UNL     1      -3.779  -4.796  -0.000  0.00  0.00    -0.212 N 
ATOM      2  C   UNL     1      -3.901  -6.126  -0.099  0.00  0.00    +0.225 C 
ATOM      3  O   UNL     1      -2.981  -6.910  -0.199  0.00  0.00    -0.275 OA
ATOM      4  C   UNL     1      -5.368  -6.496  -0.066  0.00  0.00    +0.090 C 
ATOM      5  C   UNL     1      -6.080  -5.135   0.071  0.00  0.00    +0.026 C 
ATOM      6  C   UNL     1      -4.941  -4.140   0.106  0.00  0.00    +0.213 C 
ATOM      7  O   UNL     1      -5.061  -2.938   0.212  0.00  0.00    -0.277 OA
ENDROOT
BRANCH   1  12
ATOM      8  C   UNL     1      -0.522  -3.496  -1.157  0.00  0.00    +0.062 A 
ATOM      9  C   UNL     1      -0.068  -2.853  -0.006  0.00  0.00    +0.030 A 
ATOM     10  C   UNL     1      -0.853  -2.858   1.146  0.00  0.00    +0.062 A 
ATOM     11  C   UNL     1      -2.089  -3.506   1.144  0.00  0.00    +0.039 A 
ATOM     12  C   UNL     1      -2.537  -4.146  -0.002  0.00  0.00    +0.045 A 
ATOM     13  C   UNL     1      -1.762  -4.138  -1.152  0.00  0.00    +0.039 A 
BRANCH   8  14
ATOM     14  C   UNL     1       0.306  -3.494  -2.381  0.00  0.00    +0.339 C 
ATOM     15  O   UNL     1      -0.093  -4.050  -3.384  0.00  0.00    -0.245 OA
BRANCH  14  17
ATOM     16  C   UNL     1       2.249  -2.912  -3.601  0.00  0.00    +0.280 C 
ATOM     17  O   UNL     1       1.502  -2.874  -2.384  0.00  0.00    -0.464 OA
ENDBRANCH  14  17
ENDBRANCH   8  14
BRANCH  10  18
ATOM     18  C   UNL     1      -0.376  -2.178   2.368  0.00  0.00    +0.339 C 
ATOM     19  O   UNL     1      -1.060  -2.183   3.372  0.00  0.00    -0.245 OA
BRANCH  18  20
ATOM     20  O   UNL     1       0.817  -1.552   2.369  0.00  0.00    -0.464 OA
ATOM     21  C   UNL     1       1.215  -0.916   3.585  0.00  0.00    +0.280 C 
ENDBRANCH  18  20
ENDBRANCH  10  18
ENDBRANCH   1  12
BRANCH   5  22
ATOM     22  N   UNL     1      -6.955  -4.891  -1.083  0.00  0.00    +0.387 N 
ATOM     23  H   UNL     1      -6.394  -4.806  -1.918  0.00  0.00    -0.085 HD
ATOM     24  H   UNL     1      -7.598  -5.662  -1.188  0.00  0.00    -0.085 HD
BRANCH  22  25
ATOM     25  C   UNL     1      -7.710  -3.649  -0.872  0.00  0.00    -0.077 C 
BRANCH  25  26
ATOM     26  C   UNL     1      -8.621  -3.395  -2.075  0.00  0.00    +0.018 C 
BRANCH  26  27
ATOM     27  C   UNL     1      -9.396  -2.120  -1.858  0.00  0.00    -0.024 A 
ATOM     28  C   UNL     1     -10.631  -2.015  -1.344  0.00  0.00    +0.087 A 
ATOM     29  N   UNL     1     -11.008  -0.700  -1.299  0.00  0.00    -0.360 N 
ATOM     30  H   UNL     1     -11.859  -0.375  -0.967  0.00  0.00    +0.165 HD
ATOM     31  C   UNL     1      -9.997   0.093  -1.796  0.00  0.00    +0.047 A 
ATOM     32  C   UNL     1      -8.941  -0.762  -2.162  0.00  0.00    +0.004 A 
ATOM     33  C   UNL     1      -7.766  -0.229  -2.697  0.00  0.00    +0.030 A 
ATOM     34  C   UNL     1      -7.649   1.133  -2.860  0.00  0.00    +0.042 A 
ATOM     35  C   UNL     1      -8.691   1.977  -2.495  0.00  0.00    +0.022 A 
ATOM     36  C   UNL     1      -9.859   1.465  -1.974  0.00  0.00    +0.027 A 
ATOM     37 CL   UNL     1      -6.190   1.800  -3.525  0.00  0.00    -0.084 Cl
ENDBRANCH  26  27
ENDBRANCH  25  26
ENDBRANCH  22  25
ENDBRANCH   5  22
TORSDOF 9
