REMARK  Name = ZINC12363640
REMARK  11 active torsions:
REMARK  status: ('A' for Active; 'I' for Inactive)
REMARK    1  A    between atoms: C_1  and  C_2
REMARK    2  A    between atoms: C_2  and  C_3
REMARK    3  A    between atoms: C_8  and  N_9
REMARK    4  A    between atoms: C_13  and  C_14
REMARK    5  A    between atoms: C_17  and  O_23
REMARK    6  A    between atoms: C_18  and  O_20
REMARK    7  A    between atoms: O_20  and  C_21
REMARK    8  A    between atoms: C_21  and  C_22
REMARK    9  A    between atoms: O_23  and  C_24
REMARK   10  A    between atoms: C_24  and  C_26
REMARK   11  A    between atoms: C_24  and  C_27
REMARK                            x       y       z     vdW  Elec       q    Type
REMARK                         _______ _______ _______ _____ _____    ______ ____
ROOT
ATOM      1  N   UNL     1       0.107   0.568   7.263  0.00  0.00    -0.216 N 
ATOM      2  C   UNL     1       0.215  -0.124   6.110  0.00  0.00    +0.262 C 
ATOM      3  O   UNL     1       0.200   0.445   5.035  0.00  0.00    -0.269 OA
ATOM      4  C   UNL     1       0.351  -1.592   6.189  0.00  0.00    +0.102 C 
ATOM      5  C   UNL     1       0.465  -2.368   5.052  0.00  0.00    +0.026 C 
ATOM      6  C   UNL     1       0.353  -2.194   7.537  0.00  0.00    +0.274 C 
ATOM      7  O   UNL     1       0.456  -3.397   7.684  0.00  0.00    -0.268 OA
ATOM      8  N   UNL     1       0.243  -1.373   8.602  0.00  0.00    -0.153 NA
ATOM      9  C   UNL     1       0.122  -0.046   8.454  0.00  0.00    +0.171 C 
ATOM     10  S   UNL     1      -0.019   0.916   9.863  0.00  0.00    -0.016 S 
ENDROOT
BRANCH   1  16
ATOM     11  C   UNL     1       1.109   2.767   7.239  0.00  0.00    -0.026 A 
ATOM     12  C   UNL     1       0.978   4.141   7.185  0.00  0.00    +0.005 A 
ATOM     13  C   UNL     1      -0.279   4.715   7.118  0.00  0.00    +0.000 A 
ATOM     14  C   UNL     1      -1.407   3.916   7.098  0.00  0.00    +0.002 A 
ATOM     15  C   UNL     1      -1.282   2.542   7.146  0.00  0.00    +0.024 A 
ATOM     16  C   UNL     1      -0.022   1.962   7.214  0.00  0.00    +0.046 A 
BRANCH  11  18
ATOM     17  C   UNL     1       2.952   1.773   5.911  0.00  0.00    +0.009 C 
ATOM     18  C   UNL     1       2.478   2.143   7.318  0.00  0.00    +0.033 C 
ENDBRANCH  11  18
ENDBRANCH   1  16
BRANCH   5  19
ATOM     19  C   UNL     1       0.248  -1.772   3.734  0.00  0.00    -0.020 A 
ATOM     20  C   UNL     1      -0.852  -0.929   3.515  0.00  0.00    +0.012 A 
ATOM     21  C   UNL     1      -1.050  -0.365   2.276  0.00  0.00    +0.050 A 
ATOM     22  C   UNL     1      -0.168  -0.636   1.236  0.00  0.00    +0.163 A 
ATOM     23  C   UNL     1       0.929  -1.474   1.444  0.00  0.00    +0.162 A 
ATOM     24  C   UNL     1       1.140  -2.040   2.684  0.00  0.00    +0.057 A 
BRANCH  23  25
ATOM     25  O   UNL     1       1.790  -1.731   0.424  0.00  0.00    -0.489 OA
BRANCH  25  26
ATOM     26  C   UNL     1       2.892  -2.596   0.708  0.00  0.00    +0.226 C 
ATOM     27  C   UNL     1       3.744  -2.767  -0.551  0.00  0.00    +0.048 C 
ENDBRANCH  25  26
ENDBRANCH  23  25
BRANCH  22  28
ATOM     28  O   UNL     1      -0.372  -0.080   0.015  0.00  0.00    -0.474 OA
BRANCH  28  29
ATOM     29  C   UNL     1      -1.481   0.812  -0.115  0.00  0.00    +0.283 C 
ATOM     30  C   UNL     1      -1.073   2.205   0.369  0.00  0.00    +0.064 C 
BRANCH  29  31
ATOM     31  C   UNL     1      -1.901   0.885  -1.560  0.00  0.00    +0.395 C 
ATOM     32  O   UNL     1      -1.311   0.239  -2.394  0.00  0.00    -0.242 OA
ATOM     33  O   UNL     1      -2.929   1.668  -1.922  0.00  0.00    -0.242 OA
ENDBRANCH  29  31
ENDBRANCH  28  29
ENDBRANCH  22  28
ENDBRANCH   5  19
TORSDOF 8
