REMARK  Name = ZINC39604951
REMARK  5 active torsions:
REMARK  status: ('A' for Active; 'I' for Inactive)
REMARK    1  A    between atoms: C_5  and  C_7
REMARK    2  A    between atoms: C_10  and  C_12
REMARK    3  A    between atoms: C_16  and  C_25
REMARK    4  A    between atoms: N_27  and  C_28
REMARK    5  A    between atoms: C_28  and  C_29
REMARK                            x       y       z     vdW  Elec       q    Type
REMARK                         _______ _______ _______ _____ _____    ______ ____
ROOT
ATOM      1  C   UNL     1       2.151  -5.112  -1.357  0.00  0.00    +0.282 C 
ATOM      2  O   UNL     1       1.799  -6.256  -1.137  0.00  0.00    -0.267 OA
ATOM      3  N   UNL     1       2.970  -4.847  -2.394  0.00  0.00    -0.294 N 
ATOM      4  C   UNL     1       3.591  -3.550  -2.752  0.00  0.00    +0.121 C 
ATOM      5  C   UNL     1       5.018  -3.917  -3.218  0.00  0.00    +0.100 C 
ATOM      6  C   UNL     1       4.920  -5.385  -3.666  0.00  0.00    -0.004 C 
ATOM      7  C   UNL     1       3.457  -5.788  -3.431  0.00  0.00    +0.115 C 
ATOM      8  C   UNL     1       5.844  -6.258  -2.823  0.00  0.00    -0.010 C 
ATOM      9  C   UNL     1       5.771  -7.703  -3.325  0.00  0.00    -0.082 C 
ATOM     10  N   UNL     1       6.171  -7.753  -4.736  0.00  0.00    +0.379 N 
ATOM     11  C   UNL     1       5.223  -6.986  -5.553  0.00  0.00    -0.082 C 
ATOM     12  C   UNL     1       5.272  -5.510  -5.145  0.00  0.00    -0.010 C 
ATOM     13  H   UNL     1       7.095  -7.360  -4.837  0.00  0.00    -0.086 HD
ATOM     14  H   UNL     1       6.181  -8.713  -5.048  0.00  0.00    -0.086 HD
ENDROOT
BRANCH   1  18
ATOM     15  C   UNL     1       1.335  -2.006   0.302  0.00  0.00    +0.139 A 
ATOM     16  C   UNL     1       0.717  -2.877   1.153  0.00  0.00    +0.051 A 
ATOM     17  C   UNL     1       0.935  -4.165   0.653  0.00  0.00    +0.055 A 
ATOM     18  C   UNL     1       1.685  -4.024  -0.495  0.00  0.00    +0.190 A 
ATOM     19  O   UNL     1       1.910  -2.707  -0.689  0.00  0.00    -0.450 OA
BRANCH  15  24
ATOM     20  C   UNL     1       0.198   1.551   0.693  0.00  0.00    +0.001 A 
ATOM     21  C   UNL     1       1.409   2.221   0.712  0.00  0.00    +0.003 A 
ATOM     22  C   UNL     1       2.597   1.522   0.599  0.00  0.00    +0.039 A 
ATOM     23  C   UNL     1       2.582   0.146   0.465  0.00  0.00    +0.134 A 
ATOM     24  C   UNL     1       1.361  -0.536   0.445  0.00  0.00    +0.052 A 
ATOM     25  C   UNL     1       0.167   0.179   0.560  0.00  0.00    +0.014 A 
ATOM     26  F   UNL     1       3.742  -0.537   0.354  0.00  0.00    -0.205 F 
ENDBRANCH  15  24
ENDBRANCH   1  18
BRANCH   5  27
ATOM     27  C   UNL     1       5.994  -3.778  -2.078  0.00  0.00    +0.218 C 
ATOM     28  O   UNL     1       5.607  -3.877  -0.933  0.00  0.00    -0.275 OA
ATOM     29  N   UNL     1       7.298  -3.545  -2.331  0.00  0.00    -0.313 N 
ATOM     30  H   UNL     1       7.595  -3.394  -3.242  0.00  0.00    +0.149 HD
BRANCH  29  31
ATOM     31  C   UNL     1       8.264  -3.520  -1.230  0.00  0.00    +0.135 C 
BRANCH  31  32
ATOM     32  C   UNL     1       9.638  -3.115  -1.768  0.00  0.00    +0.135 C 
ATOM     33  C   UNL     1      10.683  -3.172  -0.632  0.00  0.00    +0.035 C 
ATOM     34  C   UNL     1      11.558  -1.923  -0.926  0.00  0.00    +0.031 C 
ATOM     35  C   UNL     1      10.495  -0.946  -1.488  0.00  0.00    +0.160 C 
ATOM     36  O   UNL     1       9.594  -1.767  -2.250  0.00  0.00    -0.375 OA
ENDBRANCH  31  32
ENDBRANCH  29  31
ENDBRANCH   5  27
TORSDOF 5
