REMARK  Name = ZINC45662570
REMARK  9 active torsions:
REMARK  status: ('A' for Active; 'I' for Inactive)
REMARK    1  A    between atoms: C_1  and  C_2
REMARK    2  A    between atoms: C_2  and  C_3
REMARK    3  A    between atoms: C_3  and  C_5
REMARK    4  A    between atoms: C_3  and  N_23
REMARK    5  A    between atoms: C_5  and  C_7
REMARK    6  A    between atoms: C_5  and  N_13
REMARK    7  A    between atoms: C_15  and  C_22
REMARK    8  A    between atoms: C_18  and  C_20
REMARK    9  A    between atoms: C_18  and  C_21
REMARK                            x       y       z     vdW  Elec       q    Type
REMARK                         _______ _______ _______ _____ _____    ______ ____
ROOT
ATOM      1  C   UNL     1      -1.416  -2.058  -0.121  0.00  0.00    +0.079 C 
ENDROOT
BRANCH   1   2
ATOM      2  N   UNL     1      -0.691  -2.524  -1.311  0.00  0.00    -0.291 NA
ATOM      3  C   UNL     1      -1.283  -1.973  -2.538  0.00  0.00    +0.116 C 
ATOM      4  C   UNL     1      -0.464  -2.435  -3.746  0.00  0.00    +0.130 C 
ATOM      5  O   UNL     1      -0.414  -3.865  -3.763  0.00  0.00    -0.368 OA
ATOM      6  C   UNL     1       0.158  -4.435  -2.583  0.00  0.00    +0.077 C 
ATOM      7  C   UNL     1      -0.656  -3.993  -1.364  0.00  0.00    +0.119 C 
ATOM      8  C   UNL     1       1.603  -3.957  -2.433  0.00  0.00    +0.042 C 
ATOM      9  C   UNL     1       0.131  -5.961  -2.689  0.00  0.00    +0.042 C 
ATOM     10  C   UNL     1      -1.120  -1.930  -5.032  0.00  0.00    +0.039 C 
ENDBRANCH   1   2
BRANCH   1  11
ATOM     11  C   UNL     1      -2.796  -2.662  -0.105  0.00  0.00    +0.006 A 
ATOM     12  C   UNL     1      -3.436  -3.300   0.905  0.00  0.00    +0.014 A 
ATOM     13  C   UNL     1      -4.715  -3.779   0.692  0.00  0.00    +0.023 A 
ATOM     14  C   UNL     1      -5.292  -3.595  -0.522  0.00  0.00    +0.055 A 
ATOM     15  S   UNL     1      -4.015  -2.716  -1.408  0.00  0.00    -0.085 S 
ATOM     16 BR   UNL     1      -7.006  -4.126  -1.119  0.00  0.00    -0.043 Br
ENDBRANCH   1  11
BRANCH   1  17
ATOM     17  C   UNL     1      -1.527  -0.532  -0.158  0.00  0.00    -0.053 C 
BRANCH  17  18
ATOM     18  N   UNL     1      -2.252  -0.066   1.032  0.00  0.00    +0.381 N 
ATOM     19  H   UNL     1      -2.326   0.941   1.008  0.00  0.00    -0.090 HD
ATOM     20  H   UNL     1      -3.176  -0.470   1.043  0.00  0.00    -0.090 HD
ATOM     21  H   UNL     1      -1.752  -0.346   1.862  0.00  0.00    -0.090 HD
ENDBRANCH  17  18
BRANCH  17  23
ATOM     22  C   UNL     1      -0.236   1.599  -0.337  0.00  0.00    +0.002 C 
ATOM     23  C   UNL     1      -0.126   0.082  -0.175  0.00  0.00    -0.018 C 
ENDBRANCH  17  23
ENDBRANCH   1  17
TORSDOF 5
