REMARK  Name = ZINC35848570
REMARK  13 active torsions:
REMARK  status: ('A' for Active; 'I' for Inactive)
REMARK    1  A    between atoms: C_1  and  C_2
REMARK    2  A    between atoms: C_2  and  O_3
REMARK    3  A    between atoms: O_3  and  N_4
REMARK    4  A    between atoms: C_5  and  C_7
REMARK    5  A    between atoms: C_7  and  N_8
REMARK    6  A    between atoms: C_11  and  C_22
REMARK    7  A    between atoms: N_13  and  C_14
REMARK    8  A    between atoms: C_17  and  C_21
REMARK    9  A    between atoms: C_19  and  C_20
REMARK   10  A    between atoms: C_22  and  C_23
REMARK   11  A    between atoms: C_22  and  C_24
REMARK   12  A    between atoms: C_22  and  C_25
REMARK   13  A    between atoms: C_26  and  C_32
REMARK                            x       y       z     vdW  Elec       q    Type
REMARK                         _______ _______ _______ _____ _____    ______ ____
ROOT
ATOM      1  N   UNL     1      -1.095  -2.487  -4.221  0.00  0.00    -0.246 N 
ATOM      2  C   UNL     1      -0.841  -3.382  -5.271  0.00  0.00    +0.136 A 
ATOM      3  C   UNL     1       0.030  -3.135  -6.277  0.00  0.00    +0.034 A 
ATOM      4  C   UNL     1       0.028  -4.242  -7.126  0.00  0.00    +0.075 A 
ATOM      5  N   UNL     1      -0.817  -5.125  -6.649  0.00  0.00    -0.169 NA
ATOM      6  N   UNL     1      -1.384  -4.605  -5.474  0.00  0.00    -0.217 N 
ATOM      7  C   UNL     1       0.838  -1.872  -6.425  0.00  0.00    +0.112 C 
ATOM      8  S   UNL     1       2.173  -1.883  -5.176  0.00  0.00    -0.138 S 
ATOM      9  C   UNL     1       1.311  -2.546  -3.711  0.00  0.00    +0.166 C 
ATOM     10  C   UNL     1      -0.055  -1.938  -3.585  0.00  0.00    +0.231 C 
ATOM     11  O   UNL     1      -0.218  -0.950  -2.901  0.00  0.00    -0.274 OA
ENDROOT
BRANCH   6  12
ATOM     12  C   UNL     1      -2.337  -5.236  -4.663  0.00  0.00    +0.070 A 
ATOM     13  C   UNL     1      -2.151  -5.294  -3.288  0.00  0.00    +0.028 A 
ATOM     14  C   UNL     1      -3.092  -5.916  -2.491  0.00  0.00    +0.005 A 
ATOM     15  C   UNL     1      -4.218  -6.482  -3.061  0.00  0.00    -0.050 A 
ATOM     16  C   UNL     1      -4.405  -6.427  -4.430  0.00  0.00    +0.008 A 
ATOM     17  C   UNL     1      -3.471  -5.800  -5.232  0.00  0.00    -0.025 A 
ATOM     18  C   UNL     1      -3.679  -5.734  -6.723  0.00  0.00    +0.046 C 
ATOM     19  C   UNL     1      -5.242  -7.162  -2.189  0.00  0.00    +0.044 C 
ENDBRANCH   6  12
BRANCH   7  20
ATOM     20  C   UNL     1       1.434  -1.812  -7.808  0.00  0.00    -0.023 A 
ATOM     21  C   UNL     1       0.809  -1.096  -8.812  0.00  0.00    +0.012 A 
ATOM     22  C   UNL     1       1.372  -1.063 -10.044  0.00  0.00    +0.045 A 
ATOM     23  S   UNL     1       2.831  -2.065  -9.811  0.00  0.00    -0.105 S 
ATOM     24  C   UNL     1       2.595  -2.455  -8.085  0.00  0.00    +0.050 A 
ENDBRANCH   7  20
BRANCH   4  25
ATOM     25  C   UNL     1       0.855  -4.398  -8.377  0.00  0.00    +0.007 C 
ATOM     26  C   UNL     1       2.340  -4.408  -8.008  0.00  0.00    +0.017 C 
ATOM     27  C   UNL     1       0.491  -5.713  -9.068  0.00  0.00    +0.017 C 
ATOM     28  C   UNL     1       0.572  -3.229  -9.323  0.00  0.00    +0.017 C 
ENDBRANCH   4  25
BRANCH   1  29
ATOM     29  C   UNL     1      -2.469  -2.156  -3.834  0.00  0.00    +0.212 C 
BRANCH  29  31
ATOM     30  N   UNL     1      -4.134  -0.395  -4.331  0.00  0.00    -0.193 N 
ATOM     31  C   UNL     1      -2.898  -0.894  -4.536  0.00  0.00    +0.253 C 
ATOM     32  O   UNL     1      -2.132  -0.326  -5.285  0.00  0.00    -0.272 OA
ATOM     33  H   UNL     1      -4.746  -0.849  -3.731  0.00  0.00    +0.182 HD
BRANCH  30  34
ATOM     34  O   UNL     1      -4.537   0.791  -4.990  0.00  0.00    -0.280 OA
BRANCH  34  36
ATOM     35  C   UNL     1      -6.196   2.489  -5.445  0.00  0.00    +0.036 C 
ATOM     36  C   UNL     1      -5.870   1.204  -4.681  0.00  0.00    +0.187 C 
ENDBRANCH  34  36
ENDBRANCH  30  34
ENDBRANCH  29  31
ENDBRANCH   1  29
TORSDOF 7
