REMARK  Name = ZINC06030081
REMARK  9 active torsions:
REMARK  status: ('A' for Active; 'I' for Inactive)
REMARK    1  A    between atoms: C_1  and  C_2
REMARK    2  A    between atoms: C_5  and  N_8
REMARK    3  A    between atoms: C_9  and  C_11
REMARK    4  A    between atoms: C_15  and  N_16
REMARK    5  A    between atoms: C_17  and  C_19
REMARK    6  A    between atoms: C_21  and  C_25
REMARK    7  A    between atoms: C_25  and  C_26
REMARK    8  A    between atoms: C_25  and  C_27
REMARK    9  A    between atoms: C_25  and  C_28
REMARK                            x       y       z     vdW  Elec       q    Type
REMARK                         _______ _______ _______ _____ _____    ______ ____
ROOT
ATOM      1  C   UNL     1      -3.840   1.633   0.023  0.00  0.00    +0.069 A 
ATOM      2  C   UNL     1      -4.909   0.662   0.188  0.00  0.00    -0.023 A 
ATOM      3  C   UNL     1      -4.522  -0.631   0.144  0.00  0.00    -0.004 A 
ATOM      4  S   UNL     1      -2.772  -0.572  -0.120  0.00  0.00    -0.077 S 
ATOM      5  C   UNL     1      -2.555   1.147  -0.171  0.00  0.00    +0.084 A 
ATOM      6  C   UNL     1      -5.394  -1.840   0.289  0.00  0.00    +0.046 C 
ATOM      7  C   UNL     1      -6.744  -1.396   0.871  0.00  0.00    -0.000 C 
ATOM      8  C   UNL     1      -7.242  -0.178   0.086  0.00  0.00    +0.009 C 
ATOM      9  C   UNL     1      -6.370   1.037   0.404  0.00  0.00    +0.037 C 
ENDROOT
BRANCH   5  10
ATOM     10  N   UNL     1      -1.382   1.862  -0.355  0.00  0.00    -0.280 N 
ATOM     11  C   UNL     1      -0.214   1.209  -0.524  0.00  0.00    +0.214 C 
ATOM     12  O   UNL     1      -0.191  -0.003  -0.515  0.00  0.00    -0.276 OA
ATOM     13  C   UNL     1       1.060   1.986  -0.731  0.00  0.00    +0.109 C 
ATOM     14  H   UNL     1      -1.401   2.831  -0.363  0.00  0.00    +0.155 HD
ENDBRANCH   5  10
BRANCH   1  16
ATOM     15  N   UNL     1      -4.058   3.742   1.226  0.00  0.00    -0.281 N 
ATOM     16  C   UNL     1      -4.111   3.074   0.057  0.00  0.00    +0.251 C 
ATOM     17  O   UNL     1      -4.383   3.666  -0.971  0.00  0.00    -0.270 OA
ATOM     18  H   UNL     1      -3.916   3.259   2.055  0.00  0.00    +0.155 HD
BRANCH  15  23
ATOM     19  C   UNL     1      -4.659   9.383   1.298  0.00  0.00    +0.044 C 
ATOM     20  C   UNL     1      -4.499   7.884   1.279  0.00  0.00    -0.050 A 
ATOM     21  C   UNL     1      -4.968   7.127   2.337  0.00  0.00    +0.005 A 
ATOM     22  C   UNL     1      -4.824   5.753   2.322  0.00  0.00    +0.023 A 
ATOM     23  C   UNL     1      -4.206   5.133   1.243  0.00  0.00    +0.034 A 
ATOM     24  C   UNL     1      -3.732   5.897   0.185  0.00  0.00    +0.023 A 
ATOM     25  C   UNL     1      -3.884   7.270   0.204  0.00  0.00    +0.005 A 
ENDBRANCH  15  23
ENDBRANCH   1  16
BRANCH   7  26
ATOM     26  C   UNL     1      -7.756  -2.536   0.746  0.00  0.00    -0.035 C 
ATOM     27  C   UNL     1      -7.248  -3.756   1.516  0.00  0.00    +0.011 C 
ATOM     28  C   UNL     1      -9.100  -2.090   1.326  0.00  0.00    +0.011 C 
ATOM     29  C   UNL     1      -7.933  -2.901  -0.729  0.00  0.00    +0.011 C 
ENDBRANCH   7  26
TORSDOF 4
