REMARK  Name = ZINC63329971
REMARK  6 active torsions:
REMARK  status: ('A' for Active; 'I' for Inactive)
REMARK    1  A    between atoms: C_1  and  C_2
REMARK    2  A    between atoms: C_11  and  C_14
REMARK    3  A    between atoms: C_14  and  N_15
REMARK    4  A    between atoms: N_18  and  C_19
REMARK    5  A    between atoms: C_22  and  C_25
REMARK    6  A    between atoms: N_27  and  C_28
REMARK                            x       y       z     vdW  Elec       q    Type
REMARK                         _______ _______ _______ _____ _____    ______ ____
ROOT
ATOM      1  N   UNL     1      -2.304  -7.683   4.228  0.00  0.00    -0.295 N 
ATOM      2  C   UNL     1      -2.664  -8.757   4.959  0.00  0.00    +0.300 C 
ATOM      3  O   UNL     1      -3.161  -8.605   6.058  0.00  0.00    -0.253 OA
ATOM      4  N   UNL     1      -2.474  -9.998   4.471  0.00  0.00    -0.297 N 
ATOM      5  H   UNL     1      -1.907  -7.804   3.351  0.00  0.00    +0.151 HD
ATOM      6  H   UNL     1      -2.078 -10.119   3.594  0.00  0.00    +0.151 HD
ENDROOT
BRANCH   4   7
ATOM      7  C   UNL     1      -2.866 -11.165   5.264  0.00  0.00    +0.074 C 
ATOM      8  C   UNL     1      -1.736 -11.530   6.229  0.00  0.00    +0.023 C 
ATOM      9  C   UNL     1      -0.471 -11.857   5.431  0.00  0.00    +0.014 C 
ATOM     10  C   UNL     1      -0.748 -13.038   4.499  0.00  0.00    +0.075 C 
ATOM     11  C   UNL     1      -1.879 -12.674   3.535  0.00  0.00    +0.014 C 
ATOM     12  C   UNL     1      -3.143 -12.347   4.332  0.00  0.00    +0.023 C 
BRANCH  10  13
ATOM     13  C   UNL     1       0.498 -13.360   3.714  0.00  0.00    +0.216 C 
ATOM     14  O   UNL     1       1.507 -12.709   3.883  0.00  0.00    -0.276 OA
ATOM     15  N   UNL     1       0.490 -14.372   2.823  0.00  0.00    -0.318 N 
ATOM     16  C   UNL     1       1.700 -14.685   2.060  0.00  0.00    +0.128 C 
ATOM     17  H   UNL     1      -0.317 -14.893   2.688  0.00  0.00    +0.148 HD
ENDBRANCH  10  13
ENDBRANCH   4   7
BRANCH   1  18
ATOM     18  C   UNL     1      -2.510  -6.333   4.759  0.00  0.00    +0.142 C 
BRANCH  18  29
ATOM     19  C   UNL     1       1.516  -1.759  -2.543  0.00  0.00    +0.007 C 
ATOM     20  C   UNL     1       0.744  -1.592  -1.232  0.00  0.00    -0.011 C 
ATOM     21  C   UNL     1       1.541  -2.221  -0.087  0.00  0.00    +0.022 C 
ATOM     22  C   UNL     1       0.782  -2.021   1.228  0.00  0.00    +0.107 C 
ATOM     23  N   UNL     1      -0.578  -2.556   1.075  0.00  0.00    -0.317 N 
ATOM     24  C   UNL     1      -1.400  -2.086  -0.049  0.00  0.00    +0.107 C 
ATOM     25  C   UNL     1      -0.616  -2.284  -1.350  0.00  0.00    +0.022 C 
ATOM     26  C   UNL     1      -1.078  -3.489   1.976  0.00  0.00    +0.099 A 
ATOM     27  C   UNL     1      -2.408  -3.889   1.888  0.00  0.00    +0.042 A 
ATOM     28  C   UNL     1      -2.892  -4.819   2.790  0.00  0.00    +0.010 A 
ATOM     29  C   UNL     1      -2.026  -5.319   3.755  0.00  0.00    -0.014 A 
ATOM     30  C   UNL     1      -0.719  -4.878   3.784  0.00  0.00    +0.089 A 
ATOM     31  N   UNL     1      -0.283  -3.994   2.906  0.00  0.00    -0.349 N 
ATOM     32  H   UNL     1       0.642  -3.704   2.947  0.00  0.00    +0.167 HD
ENDBRANCH  18  29
ENDBRANCH   1  18
TORSDOF 4
