REMARK  Name = ZINC09082841
REMARK  5 active torsions:
REMARK  status: ('A' for Active; 'I' for Inactive)
REMARK    1  A    between atoms: C_1  and  C_2
REMARK    2  A    between atoms: C_2  and  C_33
REMARK    3  A    between atoms: C_6  and  C_25
REMARK    4  A    between atoms: C_16  and  C_18
REMARK    5  A    between atoms: C_18  and  C_19
REMARK                            x       y       z     vdW  Elec       q    Type
REMARK                         _______ _______ _______ _____ _____    ______ ____
ROOT
ATOM      1  C   UNL     1       2.241   3.288  -2.167  0.00  0.00    +0.011 C 
ATOM      2  C   UNL     1       3.088   2.200  -1.504  0.00  0.00    -0.023 C 
ATOM      3  C   UNL     1       2.186   1.071  -1.010  0.00  0.00    +0.058 C 
ATOM      4  C   UNL     1       1.185   1.610  -0.001  0.00  0.00    +0.017 C 
ATOM      5  C   UNL     1       1.516   2.632   0.805  0.00  0.00    +0.040 C 
ATOM      6  C   UNL     1       0.623   3.265   1.846  0.00  0.00    +0.182 C 
ATOM      7  N   UNL     1      -0.587   2.523   2.125  0.00  0.00    -0.255 N 
ATOM      8  C   UNL     1      -1.561   2.347   1.144  0.00  0.00    +0.058 A 
ATOM      9  C   UNL     1      -2.817   2.922   1.263  0.00  0.00    +0.025 A 
ATOM     10  C   UNL     1      -3.733   2.776   0.237  0.00  0.00    +0.002 A 
ATOM     11  C   UNL     1      -3.404   2.064  -0.902  0.00  0.00    +0.002 A 
ATOM     12  C   UNL     1      -2.159   1.467  -1.014  0.00  0.00    +0.025 A 
ATOM     13  C   UNL     1      -1.253   1.592   0.017  0.00  0.00    +0.053 A 
ATOM     14  N   UNL     1      -0.011   0.966   0.007  0.00  0.00    -0.316 N 
ATOM     15  C   UNL     1      -0.776   1.994   3.351  0.00  0.00    +0.225 C 
ATOM     16  O   UNL     1       0.067   2.143   4.211  0.00  0.00    -0.275 OA
ATOM     17  C   UNL     1       2.797   3.227   0.714  0.00  0.00    +0.163 C 
ATOM     18  O   UNL     1       3.078   4.133   1.474  0.00  0.00    -0.292 OA
ATOM     19  C   UNL     1       3.819   2.779  -0.287  0.00  0.00    +0.086 C 
ATOM     20  C   UNL     1       4.104   1.652  -2.508  0.00  0.00    +0.011 C 
ATOM     21  H   UNL     1       0.002  -0.004   0.002  0.00  0.00    +0.152 HD
ENDROOT
BRANCH   6  22
ATOM     22  C   UNL     1       0.240   4.644   1.374  0.00  0.00    +0.130 A 
ATOM     23  C   UNL     1       0.802   5.798   1.777  0.00  0.00    +0.047 A 
ATOM     24  C   UNL     1       0.142   6.839   1.085  0.00  0.00    +0.041 A 
ATOM     25  C   UNL     1      -0.783   6.259   0.299  0.00  0.00    +0.195 A 
ATOM     26  O   UNL     1      -0.715   4.929   0.474  0.00  0.00    -0.466 OA
ENDBRANCH   6  22
BRANCH  15  27
ATOM     27  C   UNL     1      -2.033   1.220   3.652  0.00  0.00    +0.131 C 
BRANCH  27  28
ATOM     28  C   UNL     1      -1.996   0.740   5.080  0.00  0.00    -0.039 A 
ATOM     29  C   UNL     1      -1.447  -0.492   5.382  0.00  0.00    +0.004 A 
ATOM     30  C   UNL     1      -1.411  -0.931   6.692  0.00  0.00    +0.000 A 
ATOM     31  C   UNL     1      -1.931  -0.141   7.700  0.00  0.00    +0.000 A 
ATOM     32  C   UNL     1      -2.485   1.089   7.398  0.00  0.00    +0.000 A 
ATOM     33  C   UNL     1      -2.518   1.530   6.088  0.00  0.00    +0.004 A 
ENDBRANCH  27  28
ENDBRANCH  15  27
TORSDOF 3
