REMARK  Name = ZINC05956251
REMARK  11 active torsions:
REMARK  status: ('A' for Active; 'I' for Inactive)
REMARK    1  A    between atoms: C_1  and  C_2
REMARK    2  A    between atoms: C_2  and  C_4
REMARK    3  A    between atoms: C_5  and  C_35
REMARK    4  A    between atoms: C_6  and  C_33
REMARK    5  A    between atoms: N_9  and  C_17
REMARK    6  A    between atoms: C_10  and  C_11
REMARK    7  A    between atoms: C_19  and  O_32
REMARK    8  A    between atoms: C_21  and  O_31
REMARK    9  A    between atoms: C_23  and  O_30
REMARK   10  A    between atoms: C_25  and  C_28
REMARK   11  A    between atoms: C_28  and  O_29
REMARK                            x       y       z     vdW  Elec       q    Type
REMARK                         _______ _______ _______ _____ _____    ______ ____
ROOT
ATOM      1  C   UNL     1      -3.789   1.331   2.351  0.00  0.00    +0.053 A 
ATOM      2  C   UNL     1      -3.407   0.775   3.657  0.00  0.00    +0.050 A 
ATOM      3  C   UNL     1      -2.541  -0.335   3.676  0.00  0.00    +0.094 A 
ATOM      4  C   UNL     1      -2.076  -0.868   2.451  0.00  0.00    +0.108 A 
ATOM      5  S   UNL     1      -1.022  -2.218   2.470  0.00  0.00    -0.031 S 
ATOM      6  N   UNL     1      -2.443  -0.337   1.275  0.00  0.00    -0.304 N 
ATOM      7  C   UNL     1      -3.273   0.739   1.193  0.00  0.00    +0.063 A 
ENDROOT
BRANCH   7   8
ATOM      8  C   UNL     1      -3.637   1.281  -0.128  0.00  0.00    -0.001 A 
ATOM      9  C   UNL     1      -2.639   1.696  -1.016  0.00  0.00    +0.010 A 
ATOM     10  C   UNL     1      -2.987   2.198  -2.252  0.00  0.00    +0.001 A 
ATOM     11  C   UNL     1      -4.320   2.301  -2.611  0.00  0.00    +0.000 A 
ATOM     12  C   UNL     1      -5.313   1.897  -1.736  0.00  0.00    +0.001 A 
ATOM     13  C   UNL     1      -4.981   1.388  -0.498  0.00  0.00    +0.010 A 
ENDBRANCH   7   8
BRANCH   6  14
ATOM     14  C   UNL     1      -1.929  -0.930   0.038  0.00  0.00    +0.252 C 
ATOM     15  C   UNL     1      -1.063  -2.146   0.377  0.00  0.00    +0.195 C 
ATOM     16  C   UNL     1      -1.928  -3.201   1.074  0.00  0.00    +0.178 C 
ATOM     17  C   UNL     1      -3.106  -3.562   0.164  0.00  0.00    +0.177 C 
ATOM     18  C   UNL     1      -3.893  -2.291  -0.167  0.00  0.00    +0.177 C 
ATOM     19  O   UNL     1      -3.023  -1.341  -0.784  0.00  0.00    -0.346 OA
BRANCH  17  20
ATOM     20  O   UNL     1      -2.616  -4.148  -1.044  0.00  0.00    -0.386 OA
ATOM     21  H   UNL     1      -2.107  -4.959  -0.909  0.00  0.00    +0.210 HD
ENDBRANCH  17  20
BRANCH  16  22
ATOM     22  O   UNL     1      -1.145  -4.369   1.328  0.00  0.00    -0.386 OA
ATOM     23  H   UNL     1      -1.631  -5.080   1.769  0.00  0.00    +0.210 HD
ENDBRANCH  16  22
BRANCH  15  24
ATOM     24  O   UNL     1      -0.001  -1.748   1.247  0.00  0.00    -0.385 OA
ATOM     25  H   UNL     1       0.715  -2.395   1.315  0.00  0.00    +0.210 HD
ENDBRANCH  15  24
BRANCH  18  26
ATOM     26  C   UNL     1      -5.037  -2.634  -1.124  0.00  0.00    +0.190 C 
BRANCH  26  27
ATOM     27  O   UNL     1      -5.840  -1.472  -1.342  0.00  0.00    -0.392 OA
ATOM     28  H   UNL     1      -6.586  -1.616  -1.940  0.00  0.00    +0.210 HD
ENDBRANCH  26  27
ENDBRANCH  18  26
ENDBRANCH   6  14
BRANCH   2  29
ATOM     29  C   UNL     1      -3.913   1.360   4.902  0.00  0.00    +0.137 A 
ATOM     30  C   UNL     1      -3.170   2.026   5.837  0.00  0.00    +0.050 A 
ATOM     31  C   UNL     1      -4.055   2.411   6.856  0.00  0.00    +0.042 A 
ATOM     32  C   UNL     1      -5.282   1.963   6.508  0.00  0.00    +0.196 A 
ATOM     33  O   UNL     1      -5.191   1.329   5.330  0.00  0.00    -0.463 OA
ENDBRANCH   2  29
BRANCH   1  35
ATOM     34  C   UNL     1      -4.095   3.844   2.296  0.00  0.00    +0.091 C 
ATOM     35  C   UNL     1      -4.658   2.447   2.266  0.00  0.00    +0.163 C 
ATOM     36  O   UNL     1      -5.857   2.277   2.171  0.00  0.00    -0.292 OA
ENDBRANCH   1  35
BRANCH   3  37
ATOM     37  C   UNL     1      -2.136  -0.917   4.920  0.00  0.00    +0.103 C 
ATOM     38  N   UNL     1      -1.815  -1.379   5.907  0.00  0.00    -0.191 NA
ENDBRANCH   3  37
TORSDOF 10
