REMARK  Name = ZINC12603177
REMARK  10 active torsions:
REMARK  status: ('A' for Active; 'I' for Inactive)
REMARK    1  A    between atoms: C_1  and  C_2
REMARK    2  A    between atoms: C_2  and  C_3
REMARK    3  A    between atoms: C_2  and  N_4
REMARK    4  A    between atoms: N_4  and  C_5
REMARK    5  A    between atoms: C_8  and  C_31
REMARK    6  A    between atoms: C_11  and  C_27
REMARK    7  A    between atoms: C_27  and  O_29
REMARK    8  A    between atoms: O_29  and  C_30
REMARK    9  A    between atoms: C_34  and  O_37
REMARK   10  A    between atoms: O_37  and  C_38
REMARK                            x       y       z     vdW  Elec       q    Type
REMARK                         _______ _______ _______ _____ _____    ______ ____
ROOT
ATOM      1  C   UNL     1       2.228  -0.213  -2.359  0.00  0.00    -0.068 C 
ATOM      2  C   UNL     1       2.591  -0.823  -1.003  0.00  0.00    +0.008 C 
ATOM      3  C   UNL     1       4.012  -0.403  -0.618  0.00  0.00    +0.087 C 
ATOM      4  N   UNL     1       4.948  -0.859  -1.652  0.00  0.00    -0.274 NA
ATOM      5  C   UNL     1       6.344  -0.650  -1.254  0.00  0.00    +0.172 C 
ATOM      6  C   UNL     1       7.265  -1.482  -2.158  0.00  0.00    +0.068 C 
ATOM      7  C   UNL     1       6.859  -1.241  -3.590  0.00  0.00    -0.016 A 
ATOM      8  C   UNL     1       7.582  -1.534  -4.808  0.00  0.00    +0.003 A 
ATOM      9  C   UNL     1       8.832  -2.109  -5.057  0.00  0.00    +0.010 A 
ATOM     10  C   UNL     1       9.207  -2.236  -6.372  0.00  0.00    +0.001 A 
ATOM     11  C   UNL     1       8.394  -1.817  -7.412  0.00  0.00    +0.002 A 
ATOM     12  C   UNL     1       7.152  -1.245  -7.196  0.00  0.00    +0.026 A 
ATOM     13  C   UNL     1       6.745  -1.104  -5.871  0.00  0.00    +0.047 A 
ATOM     14  N   UNL     1       5.608  -0.593  -5.313  0.00  0.00    -0.356 N 
ATOM     15  H   UNL     1       4.859  -0.226  -5.809  0.00  0.00    +0.166 HD
ATOM     16  C   UNL     1       5.683  -0.676  -3.950  0.00  0.00    +0.038 A 
ATOM     17  C   UNL     1       4.651  -0.227  -2.946  0.00  0.00    +0.103 C 
ATOM     18  C   UNL     1       3.256  -0.654  -3.406  0.00  0.00    +0.009 C 
ENDROOT
BRANCH   3  19
ATOM     19  C   UNL     1       4.380  -1.026   0.704  0.00  0.00    -0.030 A 
ATOM     20  C   UNL     1       4.797  -2.344   0.754  0.00  0.00    +0.009 A 
ATOM     21  C   UNL     1       5.134  -2.917   1.965  0.00  0.00    +0.046 A 
ATOM     22  C   UNL     1       5.054  -2.170   3.131  0.00  0.00    +0.130 A 
ATOM     23  C   UNL     1       4.635  -0.848   3.078  0.00  0.00    +0.046 A 
ATOM     24  C   UNL     1       4.304  -0.278   1.864  0.00  0.00    +0.009 A 
BRANCH  22  25
ATOM     25  O   UNL     1       5.384  -2.732   4.324  0.00  0.00    -0.406 OA
BRANCH  25  26
ATOM     26  C   UNL     1       5.278  -1.903   5.483  0.00  0.00    +0.575 C 
ATOM     27  F   UNL     1       3.956  -1.469   5.626  0.00  0.00    -0.133 F 
ATOM     28  F   UNL     1       5.653  -2.635   6.615  0.00  0.00    -0.133 F 
ATOM     29  F   UNL     1       6.120  -0.795   5.343  0.00  0.00    -0.133 F 
ENDBRANCH  25  26
ENDBRANCH  22  25
ENDBRANCH   3  19
BRANCH   1  30
ATOM     30  N   UNL     1       0.891  -0.671  -2.761  0.00  0.00    +0.383 N 
ATOM     31  H   UNL     1       0.865  -1.679  -2.753  0.00  0.00    -0.085 HD
ATOM     32  H   UNL     1       0.687  -0.336  -3.691  0.00  0.00    -0.085 HD
BRANCH  30  34
ATOM     33  C   UNL     1      -0.156   1.378  -1.924  0.00  0.00    -0.014 C 
ATOM     34  C   UNL     1      -0.109  -0.147  -1.821  0.00  0.00    -0.078 C 
ATOM     35  C   UNL     1      -1.483  -0.725  -2.166  0.00  0.00    -0.014 C 
ENDBRANCH  30  34
ENDBRANCH   1  30
BRANCH   5  36
ATOM     36  C   UNL     1       6.692   0.810  -1.389  0.00  0.00    +0.325 C 
ATOM     37  O   UNL     1       5.820   1.624  -1.577  0.00  0.00    -0.249 OA
BRANCH  36  38
ATOM     38  O   UNL     1       7.972   1.206  -1.302  0.00  0.00    -0.467 OA
ATOM     39  C   UNL     1       8.229   2.605  -1.440  0.00  0.00    +0.280 C 
ENDBRANCH  36  38
ENDBRANCH   5  36
TORSDOF 7
