REMARK  Name = ZINC39696114
REMARK  8 active torsions:
REMARK  status: ('A' for Active; 'I' for Inactive)
REMARK    1  A    between atoms: C_1  and  C_2
REMARK    2  A    between atoms: C_2  and  C_3
REMARK    3  A    between atoms: C_6  and  C_9
REMARK    4  A    between atoms: C_9  and  C_11
REMARK    5  A    between atoms: C_9  and  N_12
REMARK    6  A    between atoms: C_13  and  C_15
REMARK    7  A    between atoms: C_26  and  C_28
REMARK    8  A    between atoms: C_34  and  C_36
REMARK                            x       y       z     vdW  Elec       q    Type
REMARK                         _______ _______ _______ _____ _____    ______ ____
ROOT
ATOM      1  C   UNL     1       1.803  -4.934   6.913  0.00  0.00    +0.100 C 
ATOM      2  C   UNL     1       0.912  -4.288   7.998  0.00  0.00    +0.121 C 
ATOM      3  N   UNL     1       0.876  -5.285   9.094  0.00  0.00    -0.300 N 
ATOM      4  C   UNL     1       2.256  -5.823   9.149  0.00  0.00    +0.115 C 
ATOM      5  C   UNL     1       2.684  -5.940   7.672  0.00  0.00    -0.004 C 
ATOM      6  C   UNL     1       4.157  -5.573   7.520  0.00  0.00    -0.010 C 
ATOM      7  C   UNL     1       5.016  -6.620   8.234  0.00  0.00    -0.082 C 
ATOM      8  N   UNL     1       4.759  -7.944   7.655  0.00  0.00    +0.379 N 
ATOM      9  C   UNL     1       3.362  -8.329   7.889  0.00  0.00    -0.082 C 
ATOM     10  C   UNL     1       2.433  -7.355   7.160  0.00  0.00    -0.010 C 
ATOM     11  C   UNL     1      -0.175  -5.625   9.866  0.00  0.00    +0.219 C 
ATOM     12  O   UNL     1      -0.045  -6.466  10.730  0.00  0.00    -0.275 OA
ATOM     13  H   UNL     1       4.938  -7.916   6.663  0.00  0.00    -0.086 HD
ATOM     14  H   UNL     1       5.370  -8.622   8.086  0.00  0.00    -0.086 HD
ENDROOT
BRANCH  11  15
ATOM     15  C   UNL     1      -1.511  -4.961   9.656  0.00  0.00    +0.078 C 
ATOM     16  C   UNL     1      -1.369  -3.452   9.867  0.00  0.00    +0.032 C 
ATOM     17  C   UNL     1      -2.721  -2.776   9.619  0.00  0.00    +0.108 C 
ATOM     18  N   UNL     1      -3.732  -3.412  10.474  0.00  0.00    -0.302 N 
ATOM     19  C   UNL     1      -3.889  -4.872  10.417  0.00  0.00    +0.108 C 
ATOM     20  C   UNL     1      -2.523  -5.524  10.656  0.00  0.00    +0.032 C 
ATOM     21  C   UNL     1      -4.500  -2.671  11.297  0.00  0.00    +0.212 C 
ATOM     22  O   UNL     1      -5.258  -3.214  12.072  0.00  0.00    -0.276 OA
ATOM     23  C   UNL     1      -4.418  -1.167  11.253  0.00  0.00    +0.109 C 
ENDBRANCH  11  15
BRANCH   1  25
ATOM     24  N   UNL     1       3.185  -4.125   5.027  0.00  0.00    -0.308 N 
ATOM     25  C   UNL     1       2.658  -3.888   6.245  0.00  0.00    +0.219 C 
ATOM     26  O   UNL     1       2.871  -2.832   6.802  0.00  0.00    -0.275 OA
ATOM     27  H   UNL     1       3.014  -4.969   4.581  0.00  0.00    +0.149 HD
BRANCH  24  28
ATOM     28  C   UNL     1       4.016  -3.108   4.378  0.00  0.00    +0.100 C 
ATOM     29  C   UNL     1       3.119  -2.116   3.634  0.00  0.00    +0.033 C 
BRANCH  28  33
ATOM     30  C   UNL     1       6.663  -4.992   1.605  0.00  0.00    -0.048 A 
ATOM     31  C   UNL     1       7.113  -3.945   2.388  0.00  0.00    +0.004 A 
ATOM     32  C   UNL     1       6.256  -3.335   3.284  0.00  0.00    +0.006 A 
ATOM     33  C   UNL     1       4.949  -3.772   3.399  0.00  0.00    -0.027 A 
ATOM     34  C   UNL     1       4.500  -4.819   2.616  0.00  0.00    +0.006 A 
ATOM     35  C   UNL     1       5.355  -5.426   1.716  0.00  0.00    +0.004 A 
BRANCH  30  37
ATOM     36  C   UNL     1       7.515  -4.942  -0.723  0.00  0.00    +0.009 C 
ATOM     37  C   UNL     1       7.597  -5.657   0.627  0.00  0.00    +0.032 C 
ENDBRANCH  30  37
ENDBRANCH  28  33
ENDBRANCH  24  28
ENDBRANCH   1  25
TORSDOF 5
