REMARK  Name = ZINC12152876
REMARK  5 active torsions:
REMARK  status: ('A' for Active; 'I' for Inactive)
REMARK    1  A    between atoms: C_8  and  C_11
REMARK    2  A    between atoms: C_11  and  N_66
REMARK    3  A    between atoms: C_12  and  N_66
REMARK    4  A    between atoms: N_15  and  C_18
REMARK    5  A    between atoms: C_21  and  C_24
REMARK                            x       y       z     vdW  Elec       q    Type
REMARK                         _______ _______ _______ _____ _____    ______ ____
ROOT
ATOM      1  C   UNL     1      -3.013   4.316  -0.203  0.00  0.00    -0.068 C 
ATOM      2  C   UNL     1      -2.533   3.864   1.179  0.00  0.00    +0.003 C 
ATOM      3  C   UNL     1      -1.149   3.225   1.049  0.00  0.00    +0.103 C 
ATOM      4  N   UNL     1      -1.222   2.077   0.136  0.00  0.00    -0.330 N 
ATOM      5  C   UNL     1      -1.635   2.494  -1.210  0.00  0.00    +0.103 C 
ATOM      6  C   UNL     1      -3.034   3.111  -1.147  0.00  0.00    +0.003 C 
ENDROOT
BRANCH   4   7
ATOM      7  C   UNL     1      -0.011   1.394   0.097  0.00  0.00    +0.030 A 
ATOM      8  C   UNL     1       1.063   1.839   0.862  0.00  0.00    +0.024 A 
ATOM      9  C   UNL     1       2.264   1.169   0.821  0.00  0.00    +0.015 A 
ATOM     10  C   UNL     1       2.405   0.040   0.009  0.00  0.00    +0.037 A 
ATOM     11  C   UNL     1       1.325  -0.405  -0.759  0.00  0.00    +0.015 A 
ATOM     12  C   UNL     1       0.126   0.270  -0.713  0.00  0.00    +0.024 A 
BRANCH  10  13
ATOM     13  C   UNL     1       3.691  -0.680  -0.038  0.00  0.00    +0.247 C 
ATOM     14  O   UNL     1       3.711  -1.895   0.021  0.00  0.00    -0.270 OA
ATOM     15  N   UNL     1       4.845   0.007  -0.147  0.00  0.00    -0.293 N 
ATOM     16  C   UNL     1       6.140  -0.683  -0.271  0.00  0.00    +0.113 C 
ATOM     17  C   UNL     1       6.720  -0.340  -1.648  0.00  0.00    +0.054 C 
ATOM     18  C   UNL     1       6.642   1.141  -1.907  0.00  0.00    -0.041 A 
ATOM     19  C   UNL     1       7.476   1.668  -2.886  0.00  0.00    +0.004 A 
ATOM     20  C   UNL     1       7.447   3.015  -3.182  0.00  0.00    +0.000 A 
ATOM     21  C   UNL     1       6.580   3.850  -2.501  0.00  0.00    +0.000 A 
ATOM     22  C   UNL     1       5.754   3.330  -1.526  0.00  0.00    +0.005 A 
ATOM     23  C   UNL     1       5.785   1.975  -1.225  0.00  0.00    -0.027 A 
ATOM     24  C   UNL     1       4.863   1.474  -0.142  0.00  0.00    +0.143 C 
ENDBRANCH  10  13
ENDBRANCH   4   7
BRANCH   1  25
ATOM     25  N   UNL     1      -4.373   4.876  -0.086  0.00  0.00    +0.385 N 
ATOM     26  H   UNL     1      -5.058   4.113  -0.129  0.00  0.00    -0.085 HD
ATOM     27  H   UNL     1      -4.461   5.365   0.813  0.00  0.00    -0.085 HD
BRANCH  25  28
ATOM     28  C   UNL     1      -4.632   5.826  -1.184  0.00  0.00    -0.028 C 
BRANCH  28  36
ATOM     29  C   UNL     1     -10.026   8.508  -0.319  0.00  0.00    +0.001 A 
ATOM     30  C   UNL     1     -10.495   7.394  -1.000  0.00  0.00    +0.002 A 
ATOM     31  C   UNL     1      -9.623   6.423  -1.442  0.00  0.00    +0.026 A 
ATOM     32  C   UNL     1      -8.259   6.558  -1.204  0.00  0.00    +0.047 A 
ATOM     33  C   UNL     1      -7.789   7.690  -0.514  0.00  0.00    -0.000 A 
ATOM     34  C   UNL     1      -8.690   8.662  -0.075  0.00  0.00    +0.010 A 
ATOM     35  C   UNL     1      -6.335   7.536  -0.427  0.00  0.00    +0.029 A 
ATOM     36  C   UNL     1      -6.026   6.381  -1.038  0.00  0.00    -0.000 A 
ATOM     37  N   UNL     1      -7.162   5.786  -1.514  0.00  0.00    -0.360 N 
ATOM     38  H   UNL     1      -7.190   4.944  -1.995  0.00  0.00    +0.166 HD
ENDBRANCH  28  36
ENDBRANCH  25  28
ENDBRANCH   1  25
TORSDOF 5
