REMARK  Name = ZINC25148570
REMARK  9 active torsions:
REMARK  status: ('A' for Active; 'I' for Inactive)
REMARK    1  A    between atoms: C_1  and  C_2
REMARK    2  A    between atoms: C_4  and  C_8
REMARK    3  A    between atoms: C_5  and  C_7
REMARK    4  A    between atoms: C_10  and  C_20
REMARK    5  A    between atoms: N_14  and  C_17
REMARK    6  A    between atoms: C_17  and  C_18
REMARK    7  A    between atoms: C_17  and  C_19
REMARK    8  A    between atoms: N_22  and  C_23
REMARK    9  A    between atoms: C_23  and  C_24
REMARK                            x       y       z     vdW  Elec       q    Type
REMARK                         _______ _______ _______ _____ _____    ______ ____
ROOT
ATOM      1  C   UNL     1       2.192  -3.702  -5.431  0.00  0.00    +0.075 A 
ATOM      2  C   UNL     1       2.054  -3.221  -4.124  0.00  0.00    +0.042 A 
ATOM      3  C   UNL     1       2.341  -4.063  -3.057  0.00  0.00    +0.051 A 
ATOM      4  C   UNL     1       2.754  -5.385  -3.347  0.00  0.00    +0.051 A 
ATOM      5  C   UNL     1       3.116  -6.490  -2.549  0.00  0.00    +0.145 A 
ATOM      6  N   UNL     1       3.419  -7.486  -3.332  0.00  0.00    -0.177 NA
ATOM      7  N   UNL     1       3.276  -7.097  -4.669  0.00  0.00    -0.244 N 
ATOM      8  C   UNL     1       2.863  -5.790  -4.692  0.00  0.00    +0.160 A 
ATOM      9  N   UNL     1       2.581  -4.943  -5.671  0.00  0.00    -0.227 NA
ENDROOT
BRANCH   1  13
ATOM     10  C   UNL     1       0.768   0.711  -7.497  0.00  0.00    +0.051 C 
ATOM     11  C   UNL     1       1.221  -0.725  -7.438  0.00  0.00    -0.012 A 
ATOM     12  C   UNL     1       1.479  -1.489  -6.354  0.00  0.00    +0.021 A 
ATOM     13  C   UNL     1       1.891  -2.803  -6.570  0.00  0.00    +0.011 A 
ATOM     14  C   UNL     1       2.015  -3.240  -7.858  0.00  0.00    -0.004 A 
ATOM     15  S   UNL     1       1.556  -1.847  -8.783  0.00  0.00    -0.098 S 
ATOM     16  C   UNL     1       2.444  -4.597  -8.353  0.00  0.00    +0.052 C 
ENDBRANCH   1  13
BRANCH   3  17
ATOM     17  C   UNL     1       2.213  -3.593  -1.660  0.00  0.00    +0.245 C 
ATOM     18  O   UNL     1       2.465  -4.347  -0.741  0.00  0.00    -0.270 OA
ATOM     19  N   UNL     1       1.818  -2.330  -1.408  0.00  0.00    -0.304 N 
ATOM     20  H   UNL     1       1.591  -1.648  -2.240  0.00  0.00    +0.149 HD
BRANCH  19  21
ATOM     21  C   UNL     1       1.692  -1.865  -0.024  0.00  0.00    +0.181 C 
BRANCH  21  22
ATOM     22  C   UNL     1       1.238  -0.428  -0.017  0.00  0.00    +0.151 A 
ATOM     23  N   UNL     1       0.002  -0.004   0.002  0.00  0.00    -0.133 NA
ATOM     24  N   UNL     1      -0.015   1.283   0.009  0.00  0.00    -0.134 NA
ATOM     25  C   UNL     1       1.206   1.736  -0.000  0.00  0.00    +0.133 A 
ATOM     26  N   UNL     1       2.033   0.665  -0.028  0.00  0.00    -0.314 N 
ATOM     27  C   UNL     1       3.496   0.695  -0.071  0.00  0.00    +0.125 C 
ATOM     28  C   UNL     1       3.998   1.976   0.600  0.00  0.00    +0.022 C 
ATOM     29  C   UNL     1       4.097   3.095  -0.435  0.00  0.00    +0.002 C 
ATOM     30  C   UNL     1       2.725   3.393  -1.034  0.00  0.00    +0.008 C 
ATOM     31  C   UNL     1       1.643   3.177   0.028  0.00  0.00    +0.076 C 
ENDBRANCH  21  22
ENDBRANCH  19  21
ENDBRANCH   3  17
BRANCH   7  32
ATOM     32  C   UNL     1       3.526  -7.940  -5.841  0.00  0.00    +0.103 C 
ATOM     33  C   UNL     1       4.983  -8.405  -5.834  0.00  0.00    +0.032 C 
ATOM     34  C   UNL     1       2.601  -9.159  -5.798  0.00  0.00    +0.032 C 
ENDBRANCH   7  32
TORSDOF 5
