REMARK  Name = ZINC39855223
REMARK  9 active torsions:
REMARK  status: ('A' for Active; 'I' for Inactive)
REMARK    1  A    between atoms: C_1  and  C_2
REMARK    2  A    between atoms: C_2  and  C_34
REMARK    3  A    between atoms: C_7  and  C_18
REMARK    4  A    between atoms: C_11  and  C_16
REMARK    5  A    between atoms: C_12  and  C_14
REMARK    6  A    between atoms: N_20  and  C_21
REMARK    7  A    between atoms: C_22  and  C_30
REMARK    8  A    between atoms: C_30  and  O_32
REMARK    9  A    between atoms: O_32  and  C_33
REMARK                            x       y       z     vdW  Elec       q    Type
REMARK                         _______ _______ _______ _____ _____    ______ ____
ROOT
ATOM      1  C   UNL     1      -0.019   1.526   0.010  0.00  0.00    +0.013 C 
ATOM      2  C   UNL     1       0.002  -0.004   0.002  0.00  0.00    -0.007 C 
ATOM      3  C   UNL     1      -1.390  -0.623   0.392  0.00  0.00    +0.047 C 
ATOM      4  C   UNL     1      -1.575  -0.019   1.820  0.00  0.00    +0.012 C 
ATOM      5  C   UNL     1      -0.143   0.010   2.404  0.00  0.00    +0.024 C 
ATOM      6  C   UNL     1       0.749  -0.599   1.252  0.00  0.00    +0.097 C 
ATOM      7  C   UNL     1       0.318  -2.064   1.147  0.00  0.00    +0.080 A 
ATOM      8  C   UNL     1      -0.978  -2.078   0.627  0.00  0.00    +0.069 A 
ATOM      9  N   UNL     1      -1.603  -3.214   0.429  0.00  0.00    -0.236 NA
ATOM     10  C   UNL     1      -0.998  -4.363   0.727  0.00  0.00    +0.176 A 
ATOM     11  C   UNL     1       0.308  -4.348   1.250  0.00  0.00    +0.176 A 
ATOM     12  N   UNL     1       0.929  -3.186   1.445  0.00  0.00    -0.236 NA
ATOM     13  C   UNL     1       0.540  -0.561  -1.317  0.00  0.00    +0.013 C 
ENDROOT
BRANCH   6  14
ATOM     14  C   UNL     1       2.229  -0.330   1.343  0.00  0.00    +0.230 C 
ATOM     15  O   UNL     1       2.783   0.317   0.478  0.00  0.00    -0.274 OA
ATOM     16  N   UNL     1       2.938  -0.807   2.385  0.00  0.00    -0.279 N 
ATOM     17  H   UNL     1       2.496  -1.324   3.076  0.00  0.00    +0.155 HD
BRANCH  16  18
ATOM     18  C   UNL     1       4.299  -0.559   2.469  0.00  0.00    +0.086 A 
ATOM     19  C   UNL     1       5.182  -0.972   3.456  0.00  0.00    +0.091 A 
ATOM     20  C   UNL     1       6.573  -0.577   3.310  0.00  0.00    -0.021 A 
ATOM     21  C   UNL     1       6.825   0.157   2.206  0.00  0.00    -0.004 A 
ATOM     22  S   UNL     1       5.260   0.303   1.395  0.00  0.00    -0.077 S 
ATOM     23  C   UNL     1       8.149   0.713   1.778  0.00  0.00    +0.043 C 
ATOM     24  C   UNL     1       9.110   0.645   2.974  0.00  0.00    +0.005 C 
ATOM     25  C   UNL     1       9.030  -0.753   3.595  0.00  0.00    +0.005 C 
ATOM     26  C   UNL     1       7.679  -0.938   4.290  0.00  0.00    +0.037 C 
BRANCH  19  27
ATOM     27  C   UNL     1       4.731  -1.772   4.597  0.00  0.00    +0.342 C 
ATOM     28  O   UNL     1       4.738  -2.986   4.529  0.00  0.00    -0.245 OA
BRANCH  27  29
ATOM     29  O   UNL     1       4.309  -1.161   5.723  0.00  0.00    -0.464 OA
ATOM     30  C   UNL     1       3.884  -2.003   6.797  0.00  0.00    +0.280 C 
ENDBRANCH  27  29
ENDBRANCH  19  27
ENDBRANCH  16  18
ENDBRANCH   6  14
BRANCH  11  31
ATOM     31  C   UNL     1       0.967  -5.578   1.574  0.00  0.00    +0.122 C 
ATOM     32  N   UNL     1       1.489  -6.553   1.830  0.00  0.00    -0.189 NA
ENDBRANCH  11  31
BRANCH  10  33
ATOM     33  C   UNL     1      -1.673  -5.608   0.514  0.00  0.00    +0.122 C 
ATOM     34  N   UNL     1      -2.208  -6.595   0.346  0.00  0.00    -0.189 NA
ENDBRANCH  10  33
TORSDOF 6
