REMARK  Name = ZINC35566119
REMARK  10 active torsions:
REMARK  status: ('A' for Active; 'I' for Inactive)
REMARK    1  A    between atoms: C_1  and  C_2
REMARK    2  A    between atoms: C_3  and  C_8
REMARK    3  A    between atoms: C_5  and  C_7
REMARK    4  A    between atoms: C_8  and  C_10
REMARK    5  A    between atoms: C_15  and  C_17
REMARK    6  A    between atoms: C_20  and  S_23
REMARK    7  A    between atoms: S_23  and  C_24
REMARK    8  A    between atoms: C_27  and  C_33
REMARK    9  A    between atoms: C_28  and  C_30
REMARK   10  A    between atoms: C_30  and  C_32
REMARK                            x       y       z     vdW  Elec       q    Type
REMARK                         _______ _______ _______ _____ _____    ______ ____
ROOT
ATOM      1  C   UNL     1      -0.007  -1.164  -3.860  0.00  0.00    +0.077 C 
ATOM      2  C   UNL     1       0.093  -0.897  -5.182  0.00  0.00    +0.250 C 
ATOM      3  C   UNL     1       0.214  -2.166  -5.926  0.00  0.00    +0.293 C 
ATOM      4  O   UNL     1       0.320  -2.260  -7.133  0.00  0.00    -0.266 OA
ATOM      5  N   UNL     1       0.189  -3.205  -5.071  0.00  0.00    -0.232 N 
ATOM      6  C   UNL     1       0.056  -2.666  -3.712  0.00  0.00    +0.152 C 
ATOM      7  C   UNL     1       0.278  -4.540  -5.411  0.00  0.00    +0.169 A 
ATOM      8  N   UNL     1       0.252  -5.591  -4.609  0.00  0.00    -0.229 NA
ATOM      9  C   UNL     1       0.347  -6.808  -5.074  0.00  0.00    +0.058 A 
ATOM     10  C   UNL     1       0.478  -6.932  -6.457  0.00  0.00    +0.078 A 
ATOM     11  S   UNL     1       0.439  -5.214  -6.944  0.00  0.00    -0.049 S 
ATOM     12  C   UNL     1       0.319  -8.011  -4.167  0.00  0.00    +0.067 C 
ATOM     13  O   UNL     1       0.083   0.338  -5.736  0.00  0.00    -0.282 OA
ENDROOT
BRANCH   6  14
ATOM     14  C   UNL     1      -1.211  -3.178  -3.077  0.00  0.00    -0.022 A 
ATOM     15  C   UNL     1      -2.360  -3.308  -3.836  0.00  0.00    +0.007 A 
ATOM     16  C   UNL     1      -3.523  -3.776  -3.257  0.00  0.00    +0.015 A 
ATOM     17  C   UNL     1      -3.538  -4.117  -1.910  0.00  0.00    +0.008 A 
ATOM     18  C   UNL     1      -2.382  -3.985  -1.150  0.00  0.00    +0.015 A 
ATOM     19  C   UNL     1      -1.221  -3.522  -1.737  0.00  0.00    +0.007 A 
BRANCH  17  20
ATOM     20  S   UNL     1      -5.020  -4.714  -1.167  0.00  0.00    -0.129 S 
ATOM     21  C   UNL     1      -4.554  -5.016   0.560  0.00  0.00    +0.090 C 
ENDBRANCH  17  20
ENDBRANCH   6  14
BRANCH  10  22
ATOM     22  C   UNL     1       0.601  -8.090  -7.249  0.00  0.00    +0.168 C 
ATOM     23  O   UNL     1       0.602  -9.187  -6.726  0.00  0.00    -0.292 OA
ATOM     24  C   UNL     1       0.731  -7.969  -8.746  0.00  0.00    +0.092 C 
ENDBRANCH  10  22
BRANCH   1  25
ATOM     25  C   UNL     1      -0.143  -0.183  -2.777  0.00  0.00    +0.203 C 
ATOM     26  O   UNL     1      -1.155   0.489  -2.687  0.00  0.00    -0.286 OA
BRANCH  25  29
ATOM     27  C   UNL     1      -0.004   1.927  -0.472  0.00  0.00    +0.067 C 
ATOM     28  C   UNL     1       1.061   0.900  -0.760  0.00  0.00    +0.057 A 
ATOM     29  C   UNL     1       0.939  -0.011  -1.802  0.00  0.00    +0.082 A 
ATOM     30  S   UNL     1       2.469  -0.916  -1.622  0.00  0.00    -0.069 S 
ATOM     31  C   UNL     1       3.080  -0.079  -0.297  0.00  0.00    +0.076 A 
ATOM     32  N   UNL     1       2.156   0.820  -0.046  0.00  0.00    -0.249 NA
ATOM     33  C   UNL     1       4.383  -0.303   0.427  0.00  0.00    +0.073 C 
ENDBRANCH  25  29
ENDBRANCH   1  25
TORSDOF 5
