REMARK  Name = ZINC36309202
REMARK  13 active torsions:
REMARK  status: ('A' for Active; 'I' for Inactive)
REMARK    1  A    between atoms: C_2  and  C_3
REMARK    2  A    between atoms: C_3  and  C_4
REMARK    3  A    between atoms: C_4  and  C_5
REMARK    4  A    between atoms: C_5  and  C_7
REMARK    5  A    between atoms: C_5  and  O_35
REMARK    6  A    between atoms: C_7  and  N_8
REMARK    7  A    between atoms: N_8  and  C_9
REMARK    8  A    between atoms: N_8  and  C_13
REMARK    9  A    between atoms: C_9  and  C_10
REMARK   10  A    between atoms: C_13  and  C_14
REMARK   11  A    between atoms: C_24  and  C_26
REMARK   12  A    between atoms: C_26  and  O_27
REMARK   13  A    between atoms: O_27  and  C_28
REMARK                            x       y       z     vdW  Elec       q    Type
REMARK                         _______ _______ _______ _____ _____    ______ ____
ROOT
ATOM      1  C   UNL     1      -5.186  -6.151  -3.070  0.00  0.00    +0.200 C 
ATOM      2  O   UNL     1      -6.043  -5.831  -2.274  0.00  0.00    -0.278 OA
ATOM      3  N   UNL     1      -5.374  -7.220  -3.870  0.00  0.00    -0.292 N 
ATOM      4  C   UNL     1      -4.340  -7.620  -4.835  0.00  0.00    +0.113 C 
ATOM      5  C   UNL     1      -3.810  -9.004  -4.427  0.00  0.00    +0.061 C 
ATOM      6  C   UNL     1      -4.968  -9.867  -4.046  0.00  0.00    -0.004 A 
ATOM      7  C   UNL     1      -6.237  -9.479  -3.746  0.00  0.00    -0.014 A 
ATOM      8  C   UNL     1      -7.138 -10.489  -3.411  0.00  0.00    +0.013 A 
ATOM      9  C   UNL     1      -6.734 -11.780  -3.401  0.00  0.00    +0.046 A 
ATOM     10  S   UNL     1      -5.019 -11.632  -3.877  0.00  0.00    -0.101 S 
ATOM     11  C   UNL     1      -6.614  -8.003  -3.786  0.00  0.00    +0.144 C 
ENDROOT
BRANCH   1  12
ATOM     12  C   UNL     1      -3.910  -5.355  -3.165  0.00  0.00    +0.019 C 
BRANCH  12  13
ATOM     13  N   UNL     1      -3.949  -4.251  -2.196  0.00  0.00    +0.387 N 
ATOM     14  H   UNL     1      -4.784  -3.705  -2.342  0.00  0.00    -0.081 HD
BRANCH  13  15
ATOM     15  C   UNL     1      -2.767  -3.397  -2.380  0.00  0.00    -0.046 C 
BRANCH  15  16
ATOM     16  C   UNL     1      -2.865  -2.674  -3.724  0.00  0.00    +0.098 C 
BRANCH  16  17
ATOM     17  O   UNL     1      -2.722  -3.620  -4.785  0.00  0.00    -0.394 OA
ATOM     18  H   UNL     1      -1.880  -4.096  -4.778  0.00  0.00    +0.210 HD
ENDBRANCH  16  17
BRANCH  16  19
ATOM     19  C   UNL     1      -1.753  -1.627  -3.821  0.00  0.00    +0.033 C 
BRANCH  19  20
ATOM     20  C   UNL     1      -1.925  -0.819  -5.109  0.00  0.00    +0.029 C 
BRANCH  20  22
ATOM     21  C   UNL     1      -0.064   0.258  -6.267  0.00  0.00    +0.004 C 
ATOM     22  C   UNL     1      -0.830   0.212  -5.205  0.00  0.00    -0.034 C 
ENDBRANCH  20  22
ENDBRANCH  19  20
ENDBRANCH  16  19
ENDBRANCH  15  16
ENDBRANCH  13  15
BRANCH  13  23
ATOM     23  C   UNL     1      -3.952  -4.796  -0.832  0.00  0.00    -0.075 C 
BRANCH  23  24
ATOM     24  C   UNL     1      -4.129  -3.656   0.172  0.00  0.00    -0.028 C 
ATOM     25  C   UNL     1      -2.950  -3.337   1.094  0.00  0.00    +0.002 C 
ATOM     26  C   UNL     1      -4.195  -4.026   1.656  0.00  0.00    +0.002 C 
ENDBRANCH  23  24
ENDBRANCH  13  23
ENDBRANCH  12  13
ENDBRANCH   1  12
BRANCH  11  27
ATOM     27  C   UNL     1      -7.485  -7.729  -5.014  0.00  0.00    +0.256 C 
BRANCH  27  28
ATOM     28  O   UNL     1      -6.819  -8.205  -6.186  0.00  0.00    -0.487 OA
BRANCH  28  29
ATOM     29  C   UNL     1      -7.463  -8.037  -7.372  0.00  0.00    +0.156 A 
ATOM     30  C   UNL     1      -8.705  -7.423  -7.407  0.00  0.00    +0.048 A 
ATOM     31  C   UNL     1      -9.357  -7.253  -8.614  0.00  0.00    +0.004 A 
ATOM     32  C   UNL     1      -8.773  -7.697  -9.786  0.00  0.00    +0.003 A 
ATOM     33  C   UNL     1      -7.534  -8.310  -9.755  0.00  0.00    +0.042 A 
ATOM     34  C   UNL     1      -6.874  -8.476  -8.550  0.00  0.00    +0.165 A 
ATOM     35  F   UNL     1      -5.661  -9.071  -8.521  0.00  0.00    -0.202 F 
ENDBRANCH  28  29
ENDBRANCH  27  28
ENDBRANCH  11  27
TORSDOF 13
