REMARK  Name = ZINC40840450
REMARK  8 active torsions:
REMARK  status: ('A' for Active; 'I' for Inactive)
REMARK    1  A    between atoms: C_1  and  C_2
REMARK    2  A    between atoms: C_5  and  C_39
REMARK    3  A    between atoms: N_13  and  C_21
REMARK    4  A    between atoms: C_21  and  C_22
REMARK    5  A    between atoms: C_22  and  C_23
REMARK    6  A    between atoms: N_25  and  C_26
REMARK    7  A    between atoms: N_29  and  C_32
REMARK    8  A    between atoms: C_32  and  C_33
REMARK                            x       y       z     vdW  Elec       q    Type
REMARK                         _______ _______ _______ _____ _____    ______ ____
ROOT
ATOM      1  C   UNL     1       5.545  -2.318   1.445  0.00  0.00    +0.135 C 
ENDROOT
BRANCH   1  12
ATOM      2  C   UNL     1      -0.153   1.257  -0.514  0.00  0.00    +0.009 C 
ATOM      3  C   UNL     1      -0.143  -0.249  -0.247  0.00  0.00    +0.004 C 
ATOM      4  C   UNL     1      -1.569  -0.728   0.038  0.00  0.00    +0.009 C 
ATOM      5  C   UNL     1      -1.564  -2.240   0.273  0.00  0.00    +0.004 C 
ATOM      6  C   UNL     1      -0.694  -2.560   1.492  0.00  0.00    +0.110 C 
ATOM      7  N   UNL     1       0.639  -1.977   1.288  0.00  0.00    -0.310 N 
ATOM      8  C   UNL     1       0.744  -0.548   0.966  0.00  0.00    +0.110 C 
ATOM      9  C   UNL     1       1.775  -2.760   1.398  0.00  0.00    +0.188 A 
ATOM     10  C   UNL     1       3.109  -2.131   1.366  0.00  0.00    +0.292 A 
ATOM     11  O   UNL     1       3.220  -0.925   1.244  0.00  0.00    -0.264 OA
ATOM     12  N   UNL     1       4.206  -2.911   1.474  0.00  0.00    -0.303 N 
ATOM     13  C   UNL     1       4.047  -4.278   1.612  0.00  0.00    +0.070 A 
ATOM     14  C   UNL     1       5.161  -5.105   1.726  0.00  0.00    +0.028 A 
ATOM     15  C   UNL     1       4.994  -6.466   1.863  0.00  0.00    +0.002 A 
ATOM     16  C   UNL     1       3.721  -7.020   1.889  0.00  0.00    +0.002 A 
ATOM     17  C   UNL     1       2.616  -6.228   1.779  0.00  0.00    +0.030 A 
ATOM     18  C   UNL     1       2.759  -4.840   1.638  0.00  0.00    +0.090 A 
ATOM     19  N   UNL     1       1.665  -4.056   1.535  0.00  0.00    -0.225 NA
ATOM     20  C   UNL     1      -0.997  -2.946  -0.960  0.00  0.00    +0.009 C 
ENDBRANCH   1  12
BRANCH   1  21
ATOM     21  C   UNL     1       5.976  -1.963   2.869  0.00  0.00    +0.117 C 
BRANCH  21  22
ATOM     22  C   UNL     1       7.354  -1.353   2.840  0.00  0.00    +0.215 C 
ATOM     23  O   UNL     1       7.934  -1.216   1.784  0.00  0.00    -0.276 OA
ATOM     24  N   UNL     1       7.942  -0.959   3.987  0.00  0.00    -0.313 N 
ATOM     25  H   UNL     1       7.478  -1.068   4.832  0.00  0.00    +0.149 HD
BRANCH  24  26
ATOM     26  C   UNL     1       9.281  -0.366   3.959  0.00  0.00    +0.069 C 
ATOM     27  C   UNL     1      10.334  -1.478   3.984  0.00  0.00    +0.003 C 
ATOM     28  C   UNL     1      11.729  -0.851   4.034  0.00  0.00    -0.077 C 
ATOM     29  N   UNL     1      11.856  -0.027   5.242  0.00  0.00    +0.382 N 
ATOM     30  C   UNL     1      10.897   1.083   5.191  0.00  0.00    -0.077 C 
ATOM     31  C   UNL     1       9.470   0.531   5.185  0.00  0.00    +0.003 C 
ATOM     32  H   UNL     1      11.669  -0.594   6.056  0.00  0.00    -0.081 HD
BRANCH  29  33
ATOM     33  C   UNL     1      13.221   0.510   5.326  0.00  0.00    -0.043 C 
BRANCH  33  34
ATOM     34  C   UNL     1      13.389   1.253   6.626  0.00  0.00    -0.064 A 
ATOM     35  C   UNL     1      13.097   2.603   6.693  0.00  0.00    +0.002 A 
ATOM     36  C   UNL     1      13.251   3.285   7.885  0.00  0.00    +0.000 A 
ATOM     37  C   UNL     1      13.698   2.618   9.011  0.00  0.00    +0.000 A 
ATOM     38  C   UNL     1      13.989   1.268   8.944  0.00  0.00    +0.000 A 
ATOM     39  C   UNL     1      13.831   0.585   7.752  0.00  0.00    +0.002 A 
ENDBRANCH  33  34
ENDBRANCH  29  33
ENDBRANCH  24  26
ENDBRANCH  21  22
ENDBRANCH   1  21
TORSDOF 6
