REMARK  Name = ZINC09077957
REMARK  17 active torsions:
REMARK  status: ('A' for Active; 'I' for Inactive)
REMARK    1  A    between atoms: C_1  and  C_2
REMARK    2  A    between atoms: C_2  and  C_3
REMARK    3  A    between atoms: C_3  and  C_4
REMARK    4  A    between atoms: C_4  and  N_5
REMARK    5  A    between atoms: N_5  and  C_6
REMARK    6  A    between atoms: N_5  and  S_10
REMARK    7  A    between atoms: C_6  and  C_7
REMARK    8  A    between atoms: C_7  and  C_8
REMARK    9  A    between atoms: C_8  and  C_9
REMARK   10  A    between atoms: S_10  and  C_13
REMARK   11  A    between atoms: C_16  and  C_19
REMARK   12  A    between atoms: C_19  and  N_21
REMARK   13  A    between atoms: N_23  and  C_31
REMARK   14  A    between atoms: C_31  and  C_32
REMARK   15  A    between atoms: C_32  and  O_34
REMARK   16  A    between atoms: O_34  and  C_35
REMARK   17  A    between atoms: C_35  and  C_36
REMARK                            x       y       z     vdW  Elec       q    Type
REMARK                         _______ _______ _______ _____ _____    ______ ____
ROOT
ATOM      1  C   UNL     1      -9.714   0.344   2.517  0.00  0.00    +0.106 A 
ATOM      2  C   UNL     1      -9.644   1.710   2.312  0.00  0.00    +0.029 A 
ATOM      3  C   UNL     1      -8.489   2.278   1.814  0.00  0.00    +0.015 A 
ATOM      4  C   UNL     1      -7.390   1.471   1.519  0.00  0.00    +0.039 A 
ATOM      5  C   UNL     1      -7.468   0.093   1.724  0.00  0.00    +0.015 A 
ATOM      6  C   UNL     1      -8.628  -0.462   2.226  0.00  0.00    +0.029 A 
ENDROOT
BRANCH   1   7
ATOM      7  S   UNL     1     -11.193  -0.373   3.152  0.00  0.00    +0.061 S 
ATOM      8  O   UNL     1     -10.819  -1.598   3.768  0.00  0.00    -0.153 OA
ATOM      9  O   UNL     1     -11.874   0.656   3.856  0.00  0.00    -0.153 OA
BRANCH   7  10
ATOM     10  N   UNL     1     -12.143  -0.767   1.854  0.00  0.00    -0.177 NA
BRANCH  10  11
ATOM     11  C   UNL     1     -12.025  -2.089   1.234  0.00  0.00    +0.109 C 
BRANCH  11  12
ATOM     12  C   UNL     1     -13.081  -3.025   1.827  0.00  0.00    +0.017 C 
BRANCH  12  14
ATOM     13  C   UNL     1     -14.014  -5.342   1.772  0.00  0.00    +0.004 C 
ATOM     14  C   UNL     1     -12.959  -4.406   1.180  0.00  0.00    -0.002 C 
ENDBRANCH  12  14
ENDBRANCH  11  12
ENDBRANCH  10  11
BRANCH  10  15
ATOM     15  C   UNL     1     -13.100   0.207   1.325  0.00  0.00    +0.109 C 
BRANCH  15  16
ATOM     16  C   UNL     1     -12.462   0.970   0.162  0.00  0.00    +0.017 C 
BRANCH  16  17
ATOM     17  C   UNL     1     -13.462   1.988  -0.390  0.00  0.00    -0.002 C 
ATOM     18  C   UNL     1     -12.824   2.751  -1.553  0.00  0.00    +0.004 C 
ENDBRANCH  16  17
ENDBRANCH  15  16
ENDBRANCH  10  15
ENDBRANCH   7  10
ENDBRANCH   1   7
BRANCH   4  19
ATOM     19  C   UNL     1      -6.147   2.074   0.984  0.00  0.00    +0.269 C 
ATOM     20  O   UNL     1      -6.083   3.277   0.801  0.00  0.00    -0.268 OA
BRANCH  19  21
ATOM     21  N   UNL     1      -5.096   1.298   0.702  0.00  0.00    -0.152 NA
ATOM     22  C   UNL     1      -3.981   1.838   0.223  0.00  0.00    +0.167 A 
ATOM     23  N   UNL     1      -2.821   1.216  -0.119  0.00  0.00    -0.310 N 
ATOM     24  C   UNL     1      -1.758   1.951  -0.611  0.00  0.00    +0.058 A 
ATOM     25  C   UNL     1      -0.492   1.494  -1.008  0.00  0.00    +0.027 A 
ATOM     26  C   UNL     1       0.459   2.372  -1.472  0.00  0.00    +0.002 A 
ATOM     27  C   UNL     1       0.202   3.730  -1.557  0.00  0.00    +0.001 A 
ATOM     28  C   UNL     1      -1.036   4.209  -1.167  0.00  0.00    +0.017 A 
ATOM     29  C   UNL     1      -1.988   3.332  -0.703  0.00  0.00    +0.039 A 
ATOM     30  S   UNL     1      -3.655   3.507  -0.117  0.00  0.00    -0.052 S 
BRANCH  23  31
ATOM     31  C   UNL     1      -2.699  -0.237   0.028  0.00  0.00    +0.244 C 
BRANCH  31  32
ATOM     32  C   UNL     1      -3.345  -0.666   1.320  0.00  0.00    +0.327 C 
ATOM     33  O   UNL     1      -3.706   0.164   2.120  0.00  0.00    -0.249 OA
BRANCH  32  34
ATOM     34  O   UNL     1      -3.518  -1.971   1.582  0.00  0.00    -0.464 OA
BRANCH  34  35
ATOM     35  C   UNL     1      -4.147  -2.312   2.845  0.00  0.00    +0.229 C 
ATOM     36  C   UNL     1      -4.259  -3.833   2.966  0.00  0.00    +0.048 C 
ENDBRANCH  34  35
ENDBRANCH  32  34
ENDBRANCH  31  32
ENDBRANCH  23  31
ENDBRANCH  19  21
ENDBRANCH   4  19
TORSDOF 14
