REMARK  Name = ZINC08587235
REMARK  5 active torsions:
REMARK  status: ('A' for Active; 'I' for Inactive)
REMARK    1  A    between atoms: C_1  and  C_2
REMARK    2  A    between atoms: C_5  and  N_9
REMARK    3  A    between atoms: C_12  and  C_14
REMARK    4  A    between atoms: C_15  and  C_22
REMARK    5  A    between atoms: C_25  and  O_28
REMARK                            x       y       z     vdW  Elec       q    Type
REMARK                         _______ _______ _______ _____ _____    ______ ____
ROOT
ATOM      1  N   UNL     1      -0.307  -4.153   0.002  0.00  0.00    -0.218 N 
ATOM      2  C   UNL     1       0.661  -4.897   0.639  0.00  0.00    +0.133 A 
ATOM      3  C   UNL     1       0.470  -6.185   0.278  0.00  0.00    +0.033 A 
ATOM      4  C   UNL     1      -0.637  -6.229  -0.595  0.00  0.00    +0.067 A 
ATOM      5  N   UNL     1      -1.098  -5.021  -0.751  0.00  0.00    -0.170 NA
ATOM      6  C   UNL     1      -1.199  -7.471  -1.237  0.00  0.00    +0.068 C 
ATOM      7  C   UNL     1       1.225  -7.419   0.664  0.00  0.00    +0.112 C 
ATOM      8  S   UNL     1       2.980  -7.131   0.904  0.00  0.00    -0.138 S 
ATOM      9  C   UNL     1       3.118  -6.091   2.365  0.00  0.00    +0.166 C 
ATOM     10  C   UNL     1       2.609  -4.721   2.147  0.00  0.00    +0.228 C 
ATOM     11  O   UNL     1       3.252  -3.846   2.688  0.00  0.00    -0.275 OA
ATOM     12  N   UNL     1       1.583  -4.304   1.467  0.00  0.00    -0.269 N 
ATOM     13  H   UNL     1       1.433  -3.351   1.568  0.00  0.00    +0.156 HD
ENDROOT
BRANCH   1  18
ATOM     14  C   UNL     1      -0.976   1.470   0.393  0.00  0.00    +0.045 C 
ATOM     15  C   UNL     1      -0.799  -0.023   0.289  0.00  0.00    -0.032 A 
ATOM     16  C   UNL     1       0.467  -0.559   0.139  0.00  0.00    +0.007 A 
ATOM     17  C   UNL     1       0.633  -1.927   0.043  0.00  0.00    +0.028 A 
ATOM     18  C   UNL     1      -0.473  -2.765   0.099  0.00  0.00    +0.069 A 
ATOM     19  C   UNL     1      -1.743  -2.225   0.251  0.00  0.00    +0.048 A 
ATOM     20  C   UNL     1      -1.902  -0.855   0.350  0.00  0.00    +0.046 A 
ATOM     21 CL   UNL     1      -3.489  -0.179   0.546  0.00  0.00    -0.083 Cl
ENDBRANCH   1  18
BRANCH   7  22
ATOM     22  C   UNL     1       1.050  -8.451  -0.419  0.00  0.00    -0.030 A 
ATOM     23  C   UNL     1       1.648  -8.266  -1.652  0.00  0.00    +0.008 A 
ATOM     24  C   UNL     1       1.489  -9.211  -2.647  0.00  0.00    +0.046 A 
ATOM     25  C   UNL     1       0.729 -10.347  -2.408  0.00  0.00    +0.117 A 
ATOM     26  C   UNL     1       0.130 -10.531  -1.170  0.00  0.00    +0.046 A 
ATOM     27  C   UNL     1       0.297  -9.585  -0.177  0.00  0.00    +0.008 A 
BRANCH  25  28
ATOM     28  O   UNL     1       0.571 -11.278  -3.386  0.00  0.00    -0.507 OA
ATOM     29  H   UNL     1       1.246 -11.970  -3.383  0.00  0.00    +0.292 HD
ENDBRANCH  25  28
ENDBRANCH   7  22
TORSDOF 3
