REMARK  Name = ZINC40930590
REMARK  10 active torsions:
REMARK  status: ('A' for Active; 'I' for Inactive)
REMARK    1  A    between atoms: C_1  and  C_2
REMARK    2  A    between atoms: C_5  and  C_8
REMARK    3  A    between atoms: C_10  and  C_13
REMARK    4  A    between atoms: C_13  and  N_14
REMARK    5  A    between atoms: C_17  and  C_20
REMARK    6  A    between atoms: N_22  and  C_23
REMARK    7  A    between atoms: C_23  and  C_24
REMARK    8  A    between atoms: C_27  and  C_30
REMARK    9  A    between atoms: C_30  and  C_31
REMARK   10  A    between atoms: C_30  and  C_32
REMARK                            x       y       z     vdW  Elec       q    Type
REMARK                         _______ _______ _______ _____ _____    ______ ____
ROOT
ATOM      1  N   UNL     1      -1.278  -7.884   1.946  0.00  0.00    +0.386 N 
ATOM      2  C   UNL     1      -1.931  -8.356   0.719  0.00  0.00    -0.077 C 
ATOM      3  C   UNL     1      -3.392  -8.700   1.014  0.00  0.00    -0.006 C 
ATOM      4  C   UNL     1      -3.447  -9.799   2.079  0.00  0.00    +0.071 C 
ATOM      5  C   UNL     1      -2.699  -9.325   3.328  0.00  0.00    -0.006 C 
ATOM      6  C   UNL     1      -1.264  -8.958   2.947  0.00  0.00    -0.077 C 
ATOM      7  H   UNL     1      -1.785  -7.092   2.312  0.00  0.00    -0.081 HD
ENDROOT
BRANCH   4   8
ATOM      8  C   UNL     1      -4.884 -10.088   2.431  0.00  0.00    +0.216 C 
ATOM      9  O   UNL     1      -5.777  -9.476   1.885  0.00  0.00    -0.276 OA
ATOM     10  N   UNL     1      -5.176 -11.027   3.353  0.00  0.00    -0.311 N 
ATOM     11  H   UNL     1      -4.462 -11.517   3.789  0.00  0.00    +0.149 HD
BRANCH  10  12
ATOM     12  C   UNL     1      -6.573 -11.308   3.695  0.00  0.00    +0.139 C 
BRANCH  12  13
ATOM     13  C   UNL     1      -6.625 -12.390   4.742  0.00  0.00    -0.030 A 
ATOM     14  C   UNL     1      -6.688 -13.718   4.362  0.00  0.00    +0.005 A 
ATOM     15  C   UNL     1      -6.736 -14.710   5.323  0.00  0.00    +0.004 A 
ATOM     16  C   UNL     1      -6.721 -14.375   6.664  0.00  0.00    -0.045 A 
ATOM     17  C   UNL     1      -6.658 -13.048   7.045  0.00  0.00    +0.004 A 
ATOM     18  C   UNL     1      -6.605 -12.055   6.084  0.00  0.00    +0.005 A 
BRANCH  16  19
ATOM     19  C   UNL     1      -6.775 -15.457   7.712  0.00  0.00    +0.013 C 
ATOM     20  C   UNL     1      -5.521 -15.383   8.586  0.00  0.00    +0.012 C 
ATOM     21  C   UNL     1      -8.017 -15.262   8.583  0.00  0.00    +0.012 C 
ENDBRANCH  16  19
ENDBRANCH  12  13
ENDBRANCH  10  12
ENDBRANCH   4   8
BRANCH   1  22
ATOM     22  C   UNL     1       0.102  -7.482   1.642  0.00  0.00    +0.022 C 
BRANCH  22  25
ATOM     23  C   UNL     1       0.059  -4.256  -0.021  0.00  0.00    +0.202 A 
ATOM     24  N   UNL     1       0.070  -5.047   1.067  0.00  0.00    -0.193 NA
ATOM     25  C   UNL     1       0.086  -6.299   0.708  0.00  0.00    +0.211 A 
ATOM     26  O   UNL     1       0.086  -6.357  -0.630  0.00  0.00    -0.340 OA
ATOM     27  N   UNL     1       0.064  -5.015  -1.090  0.00  0.00    -0.056 NA
BRANCH  23  32
ATOM     28  C   UNL     1      -0.018   1.503   0.010  0.00  0.00    +0.044 C 
ATOM     29  C   UNL     1       0.002  -0.004   0.002  0.00  0.00    -0.050 A 
ATOM     30  C   UNL     1       0.006  -0.686  -1.201  0.00  0.00    +0.004 A 
ATOM     31  C   UNL     1       0.024  -2.067  -1.214  0.00  0.00    +0.012 A 
ATOM     32  C   UNL     1       0.040  -2.772  -0.013  0.00  0.00    +0.022 A 
ATOM     33  C   UNL     1       0.036  -2.080   1.196  0.00  0.00    +0.012 A 
ATOM     34  C   UNL     1       0.023  -0.700   1.198  0.00  0.00    +0.004 A 
ENDBRANCH  23  32
ENDBRANCH  22  25
ENDBRANCH   1  22
TORSDOF 7
