REMARK  Name = ZINC04458838
REMARK  6 active torsions:
REMARK  status: ('A' for Active; 'I' for Inactive)
REMARK    1  A    between atoms: C_1  and  C_2
REMARK    2  A    between atoms: C_2  and  C_30
REMARK    3  A    between atoms: C_3  and  C_26
REMARK    4  A    between atoms: C_5  and  C_7
REMARK    5  A    between atoms: N_9  and  N_10
REMARK    6  A    between atoms: C_11  and  C_12
REMARK                            x       y       z     vdW  Elec       q    Type
REMARK                         _______ _______ _______ _____ _____    ______ ____
ROOT
ATOM      1  N   UNL     1      -1.375  -1.061  -0.088  0.00  0.00    -0.188 NA
ATOM      2  C   UNL     1      -2.487  -0.394   0.023  0.00  0.00    +0.139 C 
ENDROOT
BRANCH   2   3
ATOM      3  C   UNL     1      -2.464   1.072   0.030  0.00  0.00    +0.010 A 
ATOM      4  C   UNL     1      -3.669   1.804   0.033  0.00  0.00    -0.009 A 
ATOM      5  C   UNL     1      -4.915   1.151   0.020  0.00  0.00    +0.009 A 
ATOM      6  C   UNL     1      -6.059   1.887   0.019  0.00  0.00    +0.001 A 
ATOM      7  C   UNL     1      -6.032   3.280   0.025  0.00  0.00    +0.001 A 
ATOM      8  C   UNL     1      -4.863   3.971   0.033  0.00  0.00    +0.008 A 
ATOM      9  C   UNL     1      -3.639   3.268   0.034  0.00  0.00    -0.017 A 
ATOM     10  C   UNL     1      -2.420   3.947   0.043  0.00  0.00    +0.017 A 
ATOM     11  C   UNL     1      -1.223   3.230   0.044  0.00  0.00    -0.017 A 
ATOM     12  C   UNL     1      -1.237   1.766   0.038  0.00  0.00    -0.009 A 
ATOM     13  C   UNL     1      -0.013   1.076   0.041  0.00  0.00    +0.009 A 
ATOM     14  C   UNL     1       1.153   1.776   0.049  0.00  0.00    +0.001 A 
ATOM     15  C   UNL     1       1.170   3.169   0.055  0.00  0.00    +0.001 A 
ATOM     16  C   UNL     1       0.022   3.896   0.053  0.00  0.00    +0.008 A 
ENDBRANCH   2   3
BRANCH   1  19
ATOM     17  C   UNL     1      -0.245  -3.153  -0.210  0.00  0.00    +0.236 C 
ATOM     18  O   UNL     1       0.810  -2.562  -0.309  0.00  0.00    -0.274 OA
ATOM     19  N   UNL     1      -1.396  -2.462  -0.095  0.00  0.00    -0.207 N 
ATOM     20  H   UNL     1      -2.240  -2.935  -0.016  0.00  0.00    +0.177 HD
BRANCH  17  24
ATOM     21  C   UNL     1       1.089  -6.696  -1.143  0.00  0.00    +0.012 C 
ATOM     22  C   UNL     1       1.071  -5.387  -0.351  0.00  0.00    -0.016 C 
ATOM     23  C   UNL     1       0.335  -5.381   0.990  0.00  0.00    +0.033 C 
ATOM     24  C   UNL     1      -0.268  -4.660  -0.217  0.00  0.00    +0.090 C 
ATOM     25  C   UNL     1       2.332  -4.528  -0.469  0.00  0.00    +0.012 C 
BRANCH  23  26
ATOM     26  C   UNL     1       0.907  -4.531   2.094  0.00  0.00    +0.010 C 
ATOM     27  C   UNL     1       1.282  -5.086   3.224  0.00  0.00    +0.103 C 
ATOM     28 CL   UNL     1       1.119  -6.800   3.444  0.00  0.00    -0.071 Cl
ATOM     29 CL   UNL     1       1.941  -4.106   4.496  0.00  0.00    -0.071 Cl
ENDBRANCH  23  26
ENDBRANCH  17  24
ENDBRANCH   1  19
TORSDOF 4
