REMARK  Name = ZINC40154764
REMARK  8 active torsions:
REMARK  status: ('A' for Active; 'I' for Inactive)
REMARK    1  A    between atoms: C_1  and  C_2
REMARK    2  A    between atoms: C_2  and  C_4
REMARK    3  A    between atoms: C_2  and  N_24
REMARK    4  A    between atoms: C_9  and  C_12
REMARK    5  A    between atoms: N_14  and  C_15
REMARK    6  A    between atoms: C_15  and  C_16
REMARK    7  A    between atoms: C_16  and  C_17
REMARK    8  A    between atoms: C_25  and  C_27
REMARK                            x       y       z     vdW  Elec       q    Type
REMARK                         _______ _______ _______ _____ _____    ______ ____
ROOT
ATOM      1  C   UNL     1      -1.391  -0.566   0.128  0.00  0.00    +0.236 C 
ATOM      2  O   UNL     1      -1.701  -1.203   1.113  0.00  0.00    -0.274 OA
ATOM      3  N   UNL     1      -2.294  -0.354  -0.850  0.00  0.00    -0.300 N 
ATOM      4  C   UNL     1      -1.904   0.321  -2.095  0.00  0.00    +0.108 C 
ATOM      5  C   UNL     1      -2.851   1.502  -2.332  0.00  0.00    +0.032 C 
ATOM      6  C   UNL     1      -4.298   1.002  -2.314  0.00  0.00    +0.078 C 
ATOM      7  C   UNL     1      -4.613   0.397  -0.944  0.00  0.00    +0.032 C 
ATOM      8  C   UNL     1      -3.685  -0.801  -0.694  0.00  0.00    +0.108 C 
ENDROOT
BRANCH   6   9
ATOM      9  C   UNL     1      -5.231   2.155  -2.582  0.00  0.00    +0.216 C 
ATOM     10  O   UNL     1      -4.783   3.266  -2.768  0.00  0.00    -0.276 OA
ATOM     11  N   UNL     1      -6.563   1.950  -2.613  0.00  0.00    -0.315 N 
ATOM     12  H   UNL     1      -6.920   1.061  -2.464  0.00  0.00    +0.149 HD
BRANCH  11  13
ATOM     13  C   UNL     1      -7.470   3.071  -2.873  0.00  0.00    +0.109 C 
BRANCH  13  14
ATOM     14  C   UNL     1      -8.916   2.571  -2.855  0.00  0.00    +0.056 C 
BRANCH  14  15
ATOM     15  C   UNL     1      -9.849   3.724  -3.122  0.00  0.00    -0.011 A 
ATOM     16  C   UNL     1     -10.416   4.413  -2.067  0.00  0.00    +0.006 A 
ATOM     17  C   UNL     1     -11.272   5.470  -2.311  0.00  0.00    +0.000 A 
ATOM     18  C   UNL     1     -11.562   5.840  -3.612  0.00  0.00    +0.003 A 
ATOM     19  C   UNL     1     -10.996   5.153  -4.668  0.00  0.00    +0.038 A 
ATOM     20  C   UNL     1     -10.134   4.097  -4.425  0.00  0.00    +0.127 A 
ATOM     21  F   UNL     1      -9.576   3.427  -5.457  0.00  0.00    -0.205 F 
ENDBRANCH  14  15
ENDBRANCH  13  14
ENDBRANCH  11  13
ENDBRANCH   6   9
BRANCH   1  23
ATOM     22  C   UNL     1       0.023   1.440   0.482  0.00  0.00    +0.038 C 
ATOM     23  C   UNL     1       0.004  -0.011  -0.002  0.00  0.00    +0.156 C 
BRANCH  23  24
ATOM     24  N   UNL     1       0.925  -0.809   0.812  0.00  0.00    -0.300 N 
ATOM     25  C   UNL     1       2.235  -0.857   0.497  0.00  0.00    +0.248 C 
ATOM     26  O   UNL     1       2.652  -0.237  -0.463  0.00  0.00    -0.270 OA
ATOM     27  H   UNL     1       0.592  -1.303   1.577  0.00  0.00    +0.150 HD
BRANCH  25  28
ATOM     28  C   UNL     1       3.161  -1.660   1.315  0.00  0.00    +0.074 A 
ATOM     29  C   UNL     1       4.609  -1.818   1.120  0.00  0.00    +0.054 A 
ATOM     30  C   UNL     1       5.026  -2.634   2.101  0.00  0.00    +0.195 A 
ATOM     31  O   UNL     1       3.976  -2.979   2.862  0.00  0.00    -0.470 OA
ATOM     32  C   UNL     1       2.854  -2.406   2.415  0.00  0.00    +0.207 A 
ENDBRANCH  25  28
ENDBRANCH  23  24
ENDBRANCH   1  23
TORSDOF 7
