REMARK  Name = ZINC44269364
REMARK  4 active torsions:
REMARK  status: ('A' for Active; 'I' for Inactive)
REMARK    1  A    between atoms: C_4  and  N_13
REMARK    2  A    between atoms: C_5  and  C_7
REMARK    3  A    between atoms: C_7  and  N_8
REMARK    4  A    between atoms: C_19  and  C_22
REMARK                            x       y       z     vdW  Elec       q    Type
REMARK                         _______ _______ _______ _____ _____    ______ ____
ROOT
ATOM      1  N   UNL     1       3.622  -0.651  -0.037  0.00  0.00    -0.269 N 
ATOM      2  C   UNL     1       4.776   0.037  -0.146  0.00  0.00    +0.307 C 
ATOM      3  O   UNL     1       4.762   1.253  -0.139  0.00  0.00    -0.252 OA
ATOM      4  N   UNL     1       5.945  -0.623  -0.263  0.00  0.00    -0.281 N 
ATOM      5  C   UNL     1       7.232   0.094  -0.268  0.00  0.00    +0.114 C 
ATOM      6  C   UNL     1       8.038  -0.373   0.946  0.00  0.00    +0.054 C 
ATOM      7  C   UNL     1       7.986  -1.867   1.065  0.00  0.00    -0.039 C 
ATOM      8  C   UNL     1       7.084  -2.626   0.487  0.00  0.00    -0.004 C 
ATOM      9  C   UNL     1       5.988  -2.087  -0.383  0.00  0.00    +0.137 C 
ATOM     10  H   UNL     1       3.640  -1.615   0.067  0.00  0.00    +0.156 HD
ENDROOT
BRANCH   7  11
ATOM     11  C   UNL     1       9.020  -2.529   1.886  0.00  0.00    +0.005 A 
ATOM     12  C   UNL     1      10.320  -2.726   1.550  0.00  0.00    +0.093 A 
ATOM     13  N   UNL     1      10.965  -3.372   2.566  0.00  0.00    -0.345 N 
ATOM     14  H   UNL     1      11.902  -3.622   2.557  0.00  0.00    +0.167 HD
ATOM     15  C   UNL     1      10.097  -3.619   3.604  0.00  0.00    +0.139 A 
ATOM     16  C   UNL     1       8.843  -3.100   3.231  0.00  0.00    +0.026 A 
ATOM     17  C   UNL     1       7.766  -3.208   4.109  0.00  0.00    +0.013 A 
ATOM     18  C   UNL     1       7.978  -3.826   5.327  0.00  0.00    +0.020 A 
ATOM     19  C   UNL     1       9.240  -4.313   5.631  0.00  0.00    +0.113 A 
ATOM     20  N   UNL     1      10.242  -4.207   4.784  0.00  0.00    -0.237 NA
ENDBRANCH   7  11
BRANCH   1  24
ATOM     21  C   UNL     1      -0.023   1.365  -0.149  0.00  0.00    +0.000 A 
ATOM     22  C   UNL     1       1.103   2.002   0.339  0.00  0.00    +0.002 A 
ATOM     23  C   UNL     1       2.313   1.337   0.377  0.00  0.00    +0.024 A 
ATOM     24  C   UNL     1       2.397   0.026  -0.075  0.00  0.00    +0.040 A 
ATOM     25  C   UNL     1       1.265  -0.611  -0.564  0.00  0.00    -0.005 A 
ATOM     26  C   UNL     1       0.058   0.060  -0.600  0.00  0.00    +0.007 A 
BRANCH  25  27
ATOM     27  C   UNL     1       1.352  -2.033  -1.055  0.00  0.00    +0.180 C 
BRANCH  27  28
ATOM     28  N   UNL     1       1.207  -2.951   0.077  0.00  0.00    -0.267 N 
ATOM     29  C   UNL     1       0.307  -3.951   0.178  0.00  0.00    +0.108 A 
ATOM     30  C   UNL     1       0.500  -4.561   1.371  0.00  0.00    +0.041 A 
ATOM     31  C   UNL     1       1.554  -3.910   2.021  0.00  0.00    +0.134 A 
ATOM     32  N   UNL     1       1.983  -2.949   1.244  0.00  0.00    -0.179 NA
ENDBRANCH  27  28
ENDBRANCH  25  27
ENDBRANCH   1  24
TORSDOF 4
