REMARK  Name = ZINC13032895
REMARK  10 active torsions:
REMARK  status: ('A' for Active; 'I' for Inactive)
REMARK    1  A    between atoms: C_1  and  C_2
REMARK    2  A    between atoms: C_4  and  C_34
REMARK    3  A    between atoms: C_7  and  C_14
REMARK    4  A    between atoms: C_14  and  N_60
REMARK    5  A    between atoms: C_15  and  C_16
REMARK    6  A    between atoms: C_15  and  N_60
REMARK    7  A    between atoms: C_22  and  C_23
REMARK    8  A    between atoms: C_22  and  N_60
REMARK    9  A    between atoms: N_27  and  C_28
REMARK   10  A    between atoms: C_28  and  C_29
REMARK                            x       y       z     vdW  Elec       q    Type
REMARK                         _______ _______ _______ _____ _____    ______ ____
ROOT
ATOM      1  N   UNL     1       5.622   4.132  -1.879  0.00  0.00    +0.390 N 
ATOM      2  H   UNL     1       5.461   3.306  -2.468  0.00  0.00    -0.080 HD
ENDROOT
BRANCH   1   3
ATOM      3  C   UNL     1       5.328   3.783  -0.473  0.00  0.00    -0.036 C 
BRANCH   3  10
ATOM      4  C   UNL     1      -1.460  -0.396  -0.182  0.00  0.00    +0.044 C 
ATOM      5  C   UNL     1      -0.072   0.186  -0.253  0.00  0.00    -0.048 A 
ATOM      6  C   UNL     1       1.023  -0.660  -0.365  0.00  0.00    +0.007 A 
ATOM      7  C   UNL     1       2.289  -0.154  -0.431  0.00  0.00    -0.041 A 
ATOM      8  C   UNL     1       2.486   1.231  -0.385  0.00  0.00    +0.002 A 
ATOM      9  C   UNL     1       3.830   1.808  -0.453  0.00  0.00    +0.017 A 
ATOM     10  C   UNL     1       3.959   3.156  -0.404  0.00  0.00    +0.001 A 
ATOM     11  C   UNL     1       2.816   3.976  -0.289  0.00  0.00    +0.251 A 
ATOM     12  O   UNL     1       2.954   5.186  -0.247  0.00  0.00    -0.268 OA
ATOM     13  N   UNL     1       1.578   3.455  -0.226  0.00  0.00    -0.322 N 
ATOM     14  H   UNL     1       0.813   4.048  -0.147  0.00  0.00    +0.169 HD
ATOM     15  C   UNL     1       1.379   2.092  -0.271  0.00  0.00    +0.050 A 
ATOM     16  C   UNL     1       0.098   1.553  -0.205  0.00  0.00    +0.029 A 
ATOM     17  C   UNL     1       3.471  -1.082  -0.552  0.00  0.00    +0.044 C 
ENDBRANCH   3  10
ENDBRANCH   1   3
BRANCH   1  18
ATOM     18  C   UNL     1       4.731   5.222  -2.326  0.00  0.00    -0.042 C 
BRANCH  18  19
ATOM     19  C   UNL     1       4.937   5.446  -3.802  0.00  0.00    -0.064 A 
ATOM     20  C   UNL     1       5.777   6.454  -4.238  0.00  0.00    +0.002 A 
ATOM     21  C   UNL     1       5.970   6.655  -5.592  0.00  0.00    +0.000 A 
ATOM     22  C   UNL     1       5.315   5.855  -6.510  0.00  0.00    +0.000 A 
ATOM     23  C   UNL     1       4.471   4.851  -6.074  0.00  0.00    +0.000 A 
ATOM     24  C   UNL     1       4.282   4.646  -4.720  0.00  0.00    +0.002 A 
ENDBRANCH  18  19
ENDBRANCH   1  18
BRANCH   1  25
ATOM     25  C   UNL     1       7.035   4.548  -2.011  0.00  0.00    +0.001 C 
BRANCH  25  26
ATOM     26  C   UNL     1       7.913   3.330  -1.876  0.00  0.00    +0.136 A 
ATOM     27  N   UNL     1       8.507   2.910  -0.786  0.00  0.00    -0.115 NA
ATOM     28  N   UNL     1       9.162   1.840  -1.077  0.00  0.00    -0.023 NA
ATOM     29  N   UNL     1       9.008   1.571  -2.326  0.00  0.00    -0.044 NA
ATOM     30  N   UNL     1       8.244   2.467  -2.854  0.00  0.00    -0.224 N 
BRANCH  30  31
ATOM     31  C   UNL     1       7.818   2.532  -4.254  0.00  0.00    +0.221 C 
BRANCH  31  32
ATOM     32  C   UNL     1       8.878   3.225  -5.070  0.00  0.00    +0.126 A 
ATOM     33  C   UNL     1       9.915   2.627  -5.683  0.00  0.00    +0.046 A 
ATOM     34  C   UNL     1      10.650   3.646  -6.332  0.00  0.00    +0.041 A 
ATOM     35  C   UNL     1      10.023   4.806  -6.069  0.00  0.00    +0.195 A 
ATOM     36  O   UNL     1       8.950   4.545  -5.305  0.00  0.00    -0.466 OA
ENDBRANCH  31  32
ENDBRANCH  30  31
ENDBRANCH  25  26
ENDBRANCH   1  25
TORSDOF 8
