REMARK  Name = ZINC08294300
REMARK  8 active torsions:
REMARK  status: ('A' for Active; 'I' for Inactive)
REMARK    1  A    between atoms: C_1  and  C_2
REMARK    2  A    between atoms: C_6  and  C_12
REMARK    3  A    between atoms: C_10  and  C_11
REMARK    4  A    between atoms: C_12  and  C_13
REMARK    5  A    between atoms: N_15  and  N_16
REMARK    6  A    between atoms: C_17  and  C_19
REMARK    7  A    between atoms: C_20  and  C_30
REMARK    8  A    between atoms: C_22  and  C_24
REMARK                            x       y       z     vdW  Elec       q    Type
REMARK                         _______ _______ _______ _____ _____    ______ ____
ROOT
ATOM      1  C   UNL     1       4.309   5.650  -0.010  0.00  0.00    +0.234 C 
ATOM      2  O   UNL     1       5.222   4.852  -0.022  0.00  0.00    -0.274 OA
ATOM      3  N   UNL     1       3.034   5.214  -0.000  0.00  0.00    -0.234 N 
ATOM      4  H   UNL     1       2.303   5.852   0.010  0.00  0.00    +0.173 HD
ENDROOT
BRANCH   3   5
ATOM      5  N   UNL     1       2.763   3.839  -0.004  0.00  0.00    -0.230 N 
ATOM      6  C   UNL     1       1.488   3.404   0.005  0.00  0.00    +0.269 C 
ATOM      7  O   UNL     1       0.571   4.204   0.018  0.00  0.00    -0.268 OA
ATOM      8  H   UNL     1       3.493   3.201  -0.014  0.00  0.00    +0.173 HD
BRANCH   6   9
ATOM      9  C   UNL     1       1.204   1.965   0.001  0.00  0.00    +0.098 A 
ATOM     10  C   UNL     1      -0.016   1.301   0.009  0.00  0.00    +0.058 A 
ATOM     11  N   UNL     1       0.002  -0.004   0.002  0.00  0.00    -0.243 NA
ATOM     12  C   UNL     1       1.141  -0.683  -0.013  0.00  0.00    +0.109 A 
ATOM     13  S   UNL     1       2.333   0.580  -0.017  0.00  0.00    -0.062 S 
ATOM     14  C   UNL     1      -1.316   2.062   0.020  0.00  0.00    +0.067 C 
BRANCH  12  15
ATOM     15  C   UNL     1       1.344  -2.147  -0.022  0.00  0.00    +0.007 A 
ATOM     16  C   UNL     1       0.245  -3.008  -0.010  0.00  0.00    +0.010 A 
ATOM     17  C   UNL     1       0.442  -4.373  -0.024  0.00  0.00    +0.001 A 
ATOM     18  C   UNL     1       1.726  -4.890  -0.039  0.00  0.00    +0.000 A 
ATOM     19  C   UNL     1       2.819  -4.043  -0.046  0.00  0.00    +0.001 A 
ATOM     20  C   UNL     1       2.636  -2.675  -0.037  0.00  0.00    +0.010 A 
ENDBRANCH  12  15
ENDBRANCH   6   9
ENDBRANCH   3   5
BRANCH   1  21
ATOM     21  C   UNL     1       4.600   7.128  -0.005  0.00  0.00    +0.136 C 
BRANCH  21  27
ATOM     22  C   UNL     1      10.263   7.641  -3.894  0.00  0.00    +0.044 C 
ATOM     23  C   UNL     1       9.104   7.550  -2.935  0.00  0.00    -0.044 A 
ATOM     24  C   UNL     1       7.825   7.322  -3.423  0.00  0.00    +0.004 A 
ATOM     25  C   UNL     1       6.763   7.236  -2.567  0.00  0.00    +0.012 A 
ATOM     26  C   UNL     1       6.968   7.373  -1.195  0.00  0.00    +0.024 A 
ATOM     27  C   UNL     1       6.091   7.347  -0.018  0.00  0.00    +0.007 A 
ATOM     28  C   UNL     1       6.884   7.550   1.043  0.00  0.00    +0.200 A 
ATOM     29  O   UNL     1       8.159   7.705   0.646  0.00  0.00    -0.462 OA
ATOM     30  C   UNL     1       8.259   7.610  -0.695  0.00  0.00    +0.138 A 
ATOM     31  C   UNL     1       9.325   7.694  -1.582  0.00  0.00    -0.005 A 
ATOM     32  C   UNL     1      10.720   7.941  -1.067  0.00  0.00    +0.048 C 
ENDBRANCH  21  27
ENDBRANCH   1  21
TORSDOF 5
