REMARK  Name = ZINC02873250
REMARK  5 active torsions:
REMARK  status: ('A' for Active; 'I' for Inactive)
REMARK    1  A    between atoms: C_3  and  C_6
REMARK    2  A    between atoms: C_8  and  C_28
REMARK    3  A    between atoms: C_13  and  C_15
REMARK    4  A    between atoms: N_17  and  C_18
REMARK    5  A    between atoms: C_19  and  C_26
REMARK                            x       y       z     vdW  Elec       q    Type
REMARK                         _______ _______ _______ _____ _____    ______ ____
ROOT
ATOM      1  C   UNL     1      -0.017   1.413   0.010  0.00  0.00    +0.082 A 
ATOM      2  C   UNL     1       0.002  -0.004   0.002  0.00  0.00    +0.059 A 
ATOM      3  C   UNL     1       1.188  -0.650  -0.013  0.00  0.00    +0.131 A 
ATOM      4  N   UNL     1       2.348   0.079  -0.020  0.00  0.00    -0.211 N 
ATOM      5  C   UNL     1       2.297   1.450  -0.012  0.00  0.00    +0.157 A 
ATOM      6  N   UNL     1       1.120   2.090   0.003  0.00  0.00    -0.227 NA
ATOM      7  C   UNL     1       3.606   1.909  -0.023  0.00  0.00    +0.083 A 
ATOM      8  C   UNL     1       4.445   0.789  -0.037  0.00  0.00    +0.150 A 
ATOM      9  N   UNL     1       3.695  -0.302  -0.035  0.00  0.00    -0.160 NA
ENDROOT
BRANCH   1  12
ATOM     10  C   UNL     1      -2.838   3.929   0.037  0.00  0.00    +0.008 A 
ATOM     11  C   UNL     1      -1.537   3.484   0.034  0.00  0.00    +0.017 A 
ATOM     12  C   UNL     1      -1.303   2.132   0.020  0.00  0.00    +0.038 A 
ATOM     13  S   UNL     1      -2.962   1.471   0.025  0.00  0.00    -0.095 S 
ATOM     14  C   UNL     1      -3.850   3.020   0.037  0.00  0.00    +0.046 A 
ENDBRANCH   1  12
BRANCH   8  15
ATOM     15  C   UNL     1       5.923   0.819  -0.051  0.00  0.00    +0.269 C 
ATOM     16  O   UNL     1       6.509   1.884  -0.051  0.00  0.00    -0.268 OA
ATOM     17  N   UNL     1       6.620  -0.334  -0.064  0.00  0.00    -0.274 N 
ATOM     18  H   UNL     1       6.153  -1.184  -0.064  0.00  0.00    +0.156 HD
BRANCH  17  19
ATOM     19  C   UNL     1       8.007  -0.306  -0.077  0.00  0.00    +0.090 A 
ATOM     20  C   UNL     1       8.889  -1.372  -0.092  0.00  0.00    +0.084 A 
ATOM     21  C   UNL     1      10.319  -1.069  -0.103  0.00  0.00    -0.018 A 
ATOM     22  C   UNL     1      10.625   0.242  -0.101  0.00  0.00    -0.004 A 
ATOM     23  S   UNL     1       9.054   1.072  -0.087  0.00  0.00    -0.077 S 
ATOM     24  C   UNL     1      12.111   0.474  -0.117  0.00  0.00    +0.043 C 
ATOM     25  C   UNL     1      12.711  -0.877  -0.565  0.00  0.00    +0.010 C 
ATOM     26  C   UNL     1      11.621  -1.870  -0.115  0.00  0.00    +0.037 C 
BRANCH  20  27
ATOM     27  C   UNL     1       8.417  -2.725  -0.094  0.00  0.00    +0.102 C 
ATOM     28  N   UNL     1       8.043  -3.797  -0.097  0.00  0.00    -0.191 NA
ENDBRANCH  20  27
ENDBRANCH  17  19
ENDBRANCH   8  15
BRANCH   3  29
ATOM     29  C   UNL     1       1.234  -2.156  -0.022  0.00  0.00    +0.365 C 
ATOM     30  F   UNL     1       1.994  -2.592  -1.112  0.00  0.00    -0.181 F 
ATOM     31  F   UNL     1       1.817  -2.611   1.166  0.00  0.00    -0.181 F 
ATOM     32 CL   UNL     1      -0.441  -2.808  -0.158  0.00  0.00    -0.041 Cl
ENDBRANCH   3  29
TORSDOF 5
