REMARK  Name = ZINC10751350
REMARK  9 active torsions:
REMARK  status: ('A' for Active; 'I' for Inactive)
REMARK    1  A    between atoms: C_1  and  N_60
REMARK    2  A    between atoms: C_2  and  N_60
REMARK    3  A    between atoms: C_3  and  C_4
REMARK    4  A    between atoms: C_3  and  N_60
REMARK    5  A    between atoms: C_4  and  C_5
REMARK    6  A    between atoms: C_5  and  N_6
REMARK    7  A    between atoms: C_16  and  C_18
REMARK    8  A    between atoms: N_23  and  S_25
REMARK    9  A    between atoms: S_25  and  C_28
REMARK                            x       y       z     vdW  Elec       q    Type
REMARK                         _______ _______ _______ _____ _____    ______ ____
ROOT
ATOM      1  N   UNL     1      -1.145   1.791   0.480  0.00  0.00    -0.250 N 
ATOM      2  C   UNL     1      -1.147   3.130   0.835  0.00  0.00    +0.168 A 
ATOM      3  N   UNL     1      -2.112   3.836   1.376  0.00  0.00    -0.224 NA
ATOM      4  C   UNL     1      -1.973   5.146   1.674  0.00  0.00    +0.080 A 
ATOM      5  C   UNL     1      -2.925   6.014   2.259  0.00  0.00    +0.029 A 
ATOM      6  C   UNL     1      -2.622   7.330   2.492  0.00  0.00    +0.002 A 
ATOM      7  C   UNL     1      -1.380   7.856   2.167  0.00  0.00    +0.001 A 
ATOM      8  C   UNL     1      -0.425   7.036   1.595  0.00  0.00    +0.017 A 
ATOM      9  C   UNL     1      -0.720   5.717   1.357  0.00  0.00    +0.041 A 
ATOM     10  S   UNL     1       0.160   4.337   0.665  0.00  0.00    -0.052 S 
ATOM     11  C   UNL     1      -0.001   1.203   0.076  0.00  0.00    +0.226 C 
ATOM     12  O   UNL     1      -0.017   0.059  -0.327  0.00  0.00    -0.275 OA
ENDROOT
BRANCH  11  13
ATOM     13  C   UNL     1       1.296   1.969   0.119  0.00  0.00    +0.091 C 
ATOM     14  C   UNL     1       1.434   2.812  -1.151  0.00  0.00    +0.015 C 
ATOM     15  C   UNL     1       2.735   3.615  -1.093  0.00  0.00    +0.018 C 
ATOM     16  C   UNL     1       3.923   2.651  -1.022  0.00  0.00    +0.109 C 
ATOM     17  N   UNL     1       3.725   1.740   0.114  0.00  0.00    -0.175 NA
ATOM     18  C   UNL     1       2.468   0.986   0.204  0.00  0.00    +0.122 C 
BRANCH  17  19
ATOM     19  S   UNL     1       4.897   1.568   1.272  0.00  0.00    +0.067 S 
ATOM     20  O   UNL     1       4.694   0.295   1.869  0.00  0.00    -0.152 OA
ATOM     21  O   UNL     1       6.127   1.936   0.662  0.00  0.00    -0.152 OA
BRANCH  19  22
ATOM     22  C   UNL     1       4.576   2.768   2.521  0.00  0.00    +0.143 A 
ATOM     23  C   UNL     1       3.815   2.656   3.637  0.00  0.00    +0.036 A 
ATOM     24  C   UNL     1       3.706   3.742   4.486  0.00  0.00    +0.010 A 
ATOM     25  C   UNL     1       4.364   4.886   4.177  0.00  0.00    +0.047 A 
ATOM     26  S   UNL     1       5.176   4.445   2.650  0.00  0.00    -0.077 S 
ENDBRANCH  19  22
ENDBRANCH  17  19
ENDBRANCH  11  13
BRANCH   1  27
ATOM     27  C   UNL     1      -2.385   1.013   0.544  0.00  0.00    +0.114 C 
BRANCH  27  28
ATOM     28  C   UNL     1      -2.520   0.382   1.931  0.00  0.00    +0.001 C 
BRANCH  28  29
ATOM     29  C   UNL     1      -3.815  -0.430   1.998  0.00  0.00    -0.078 C 
BRANCH  29  32
ATOM     30  C   UNL     1      -4.124  -0.006   4.362  0.00  0.00    -0.097 C 
ATOM     31  C   UNL     1      -5.045  -2.009   3.360  0.00  0.00    -0.097 C 
ATOM     32  N   UNL     1      -3.920  -1.050   3.335  0.00  0.00    +0.376 N 
ATOM     33  H   UNL     1      -3.049  -1.553   3.539  0.00  0.00    -0.083 HD
ENDBRANCH  29  32
ENDBRANCH  28  29
ENDBRANCH  27  28
ENDBRANCH   1  27
TORSDOF 7
