REMARK  Name = ZINC41251234
REMARK  10 active torsions:
REMARK  status: ('A' for Active; 'I' for Inactive)
REMARK    1  A    between atoms: C_1  and  C_2
REMARK    2  A    between atoms: C_2  and  C_4
REMARK    3  A    between atoms: C_2  and  N_12
REMARK    4  A    between atoms: C_4  and  C_5
REMARK    5  A    between atoms: C_5  and  C_6
REMARK    6  A    between atoms: C_13  and  C_15
REMARK    7  A    between atoms: N_18  and  C_21
REMARK    8  A    between atoms: C_21  and  C_22
REMARK    9  A    between atoms: C_24  and  C_27
REMARK   10  A    between atoms: C_30  and  C_33
REMARK                            x       y       z     vdW  Elec       q    Type
REMARK                         _______ _______ _______ _____ _____    ______ ____
ROOT
ATOM      1  C   UNL     1       2.783  -1.099   2.395  0.00  0.00    +0.071 C 
ATOM      2  C   UNL     1       2.511  -0.160   3.573  0.00  0.00    -0.006 C 
ATOM      3  C   UNL     1       3.316  -0.627   4.787  0.00  0.00    -0.077 C 
ATOM      4  N   UNL     1       4.748  -0.609   4.465  0.00  0.00    +0.386 N 
ATOM      5  C   UNL     1       5.028  -1.561   3.384  0.00  0.00    -0.077 C 
ATOM      6  C   UNL     1       4.288  -1.129   2.116  0.00  0.00    -0.006 C 
ATOM      7  H   UNL     1       5.014   0.319   4.173  0.00  0.00    -0.081 HD
ENDROOT
BRANCH   1   9
ATOM      8  N   UNL     1       0.711  -0.489   1.189  0.00  0.00    -0.312 N 
ATOM      9  C   UNL     1       2.054  -0.600   1.174  0.00  0.00    +0.216 C 
ATOM     10  O   UNL     1       2.676  -0.297   0.177  0.00  0.00    -0.276 OA
ATOM     11  H   UNL     1       0.213  -0.731   1.986  0.00  0.00    +0.149 HD
BRANCH   8  13
ATOM     12  C   UNL     1      -0.019   1.526   0.010  0.00  0.00    +0.028 C 
ATOM     13  C   UNL     1       0.002  -0.004   0.002  0.00  0.00    +0.070 C 
BRANCH  13  14
ATOM     14  C   UNL     1      -1.433  -0.534   0.013  0.00  0.00    +0.026 C 
BRANCH  14  15
ATOM     15  C   UNL     1      -1.416  -2.058  -0.121  0.00  0.00    +0.037 C 
BRANCH  15  16
ATOM     16  C   UNL     1      -2.829  -2.579  -0.111  0.00  0.00    -0.047 A 
ATOM     17  C   UNL     1      -3.432  -2.917   1.087  0.00  0.00    +0.003 A 
ATOM     18  C   UNL     1      -4.729  -3.396   1.096  0.00  0.00    +0.000 A 
ATOM     19  C   UNL     1      -5.423  -3.536  -0.091  0.00  0.00    +0.000 A 
ATOM     20  C   UNL     1      -4.821  -3.197  -1.288  0.00  0.00    +0.000 A 
ATOM     21  C   UNL     1      -3.525  -2.714  -1.297  0.00  0.00    +0.003 A 
ENDBRANCH  15  16
ENDBRANCH  14  15
ENDBRANCH  13  14
ENDBRANCH   8  13
ENDBRANCH   1   9
BRANCH   4  22
ATOM     22  C   UNL     1       5.521  -0.983   5.657  0.00  0.00    +0.022 C 
BRANCH  22  23
ATOM     23  C   UNL     1       6.993  -0.846   5.365  0.00  0.00    +0.211 A 
ATOM     24  N   UNL     1       7.710   0.224   5.554  0.00  0.00    -0.193 NA
ATOM     25  C   UNL     1       8.984  -0.004   5.187  0.00  0.00    +0.202 A 
ATOM     26  N   UNL     1       9.081  -1.237   4.757  0.00  0.00    -0.056 NA
ATOM     27  O   UNL     1       7.786  -1.806   4.871  0.00  0.00    -0.340 OA
BRANCH  25  28
ATOM     28  C   UNL     1      10.094   0.979   5.257  0.00  0.00    +0.022 A 
ATOM     29  C   UNL     1       9.861   2.264   5.741  0.00  0.00    +0.012 A 
ATOM     30  C   UNL     1      10.897   3.174   5.804  0.00  0.00    +0.013 A 
ATOM     31  C   UNL     1      12.165   2.812   5.387  0.00  0.00    +0.055 A 
ATOM     32  C   UNL     1      12.402   1.537   4.905  0.00  0.00    +0.013 A 
ATOM     33  C   UNL     1      11.375   0.617   4.844  0.00  0.00    +0.012 A 
BRANCH  31  34
ATOM     34  C   UNL     1      13.292   3.809   5.457  0.00  0.00    +0.417 C 
ATOM     35  F   UNL     1      13.926   3.710   6.700  0.00  0.00    -0.166 F 
ATOM     36  F   UNL     1      14.215   3.542   4.440  0.00  0.00    -0.166 F 
ATOM     37  F   UNL     1      12.781   5.102   5.295  0.00  0.00    -0.166 F 
ENDBRANCH  31  34
ENDBRANCH  25  28
ENDBRANCH  22  23
ENDBRANCH   4  22
TORSDOF 9
