REMARK  Name = ZINC13196368
REMARK  11 active torsions:
REMARK  status: ('A' for Active; 'I' for Inactive)
REMARK    1  A    between atoms: C_1  and  C_2
REMARK    2  A    between atoms: C_2  and  C_3
REMARK    3  A    between atoms: C_2  and  O_4
REMARK    4  A    between atoms: O_4  and  C_5
REMARK    5  A    between atoms: C_8  and  C_11
REMARK    6  A    between atoms: C_20  and  C_28
REMARK    7  A    between atoms: C_23  and  C_24
REMARK    8  A    between atoms: C_23  and  C_26
REMARK    9  A    between atoms: C_30  and  O_32
REMARK   10  A    between atoms: O_32  and  C_33
REMARK   11  A    between atoms: C_33  and  C_34
REMARK                            x       y       z     vdW  Elec       q    Type
REMARK                         _______ _______ _______ _____ _____    ______ ____
ROOT
ATOM      1  C   UNL     1      -2.167  -5.641  -2.132  0.00  0.00    +0.067 C 
ATOM      2  C   UNL     1      -3.125  -5.548  -3.324  0.00  0.00    +0.044 C 
ATOM      3  C   UNL     1      -2.492  -4.701  -4.417  0.00  0.00    +0.120 C 
ATOM      4  N   UNL     1      -3.527  -4.060  -5.234  0.00  0.00    -0.263 N 
ATOM      5  C   UNL     1      -4.505  -3.211  -4.534  0.00  0.00    +0.138 C 
ATOM      6  C   UNL     1      -5.069  -4.005  -3.389  0.00  0.00    -0.007 C 
ATOM      7  C   UNL     1      -4.451  -5.013  -2.870  0.00  0.00    -0.045 C 
ATOM      8  C   UNL     1      -5.147  -5.729  -1.720  0.00  0.00    +0.164 C 
ATOM      9  C   UNL     1      -4.113  -5.967  -0.640  0.00  0.00    +0.065 C 
ATOM     10  N   UNL     1      -4.365  -5.693   0.584  0.00  0.00    -0.304 NA
ATOM     11  C   UNL     1      -2.768  -6.550  -1.057  0.00  0.00    +0.188 C 
ATOM     12  C   UNL     1      -3.581  -4.240  -6.569  0.00  0.00    +0.403 C 
ATOM     13  O   UNL     1      -2.761  -4.946  -7.120  0.00  0.00    -0.226 OA
ATOM     14  H   UNL     1      -3.692  -5.852   1.265  0.00  0.00    +0.186 HD
ENDROOT
BRANCH   1  18
ATOM     15  C   UNL     1      -1.538  -1.739  -0.505  0.00  0.00    +0.121 A 
ATOM     16  C   UNL     1      -0.465  -2.468  -0.997  0.00  0.00    +0.046 A 
ATOM     17  C   UNL     1      -0.671  -3.729  -1.522  0.00  0.00    +0.007 A 
ATOM     18  C   UNL     1      -1.945  -4.265  -1.558  0.00  0.00    -0.041 A 
ATOM     19  C   UNL     1      -3.017  -3.540  -1.070  0.00  0.00    +0.007 A 
ATOM     20  C   UNL     1      -2.815  -2.281  -0.538  0.00  0.00    +0.046 A 
BRANCH  15  21
ATOM     21  O   UNL     1      -1.339  -0.499   0.012  0.00  0.00    -0.489 OA
BRANCH  21  23
ATOM     22  C   UNL     1      -1.982   1.168   1.640  0.00  0.00    +0.051 C 
ATOM     23  C   UNL     1      -2.466   0.143   0.612  0.00  0.00    +0.167 C 
ATOM     24  C   UNL     1      -3.283   0.853  -0.469  0.00  0.00    +0.051 C 
ENDBRANCH  21  23
ENDBRANCH  15  21
ENDBRANCH   1  18
BRANCH  11  25
ATOM     25  C   UNL     1      -2.942  -7.907  -1.600  0.00  0.00    +0.091 C 
ATOM     26  N   UNL     1      -3.076  -8.955  -2.019  0.00  0.00    -0.195 NA
ENDBRANCH  11  25
BRANCH  11  27
ATOM     27  C   UNL     1      -1.873  -6.593   0.110  0.00  0.00    +0.091 C 
ATOM     28  N   UNL     1      -1.182  -6.626   1.011  0.00  0.00    -0.195 NA
ENDBRANCH  11  27
BRANCH   8  29
ATOM     29  C   UNL     1      -5.689  -7.015  -2.186  0.00  0.00    +0.076 C 
ATOM     30  N   UNL     1      -6.107  -8.008  -2.545  0.00  0.00    -0.196 NA
ENDBRANCH   8  29
BRANCH  12  31
ATOM     31  O   UNL     1      -4.545  -3.637  -7.291  0.00  0.00    -0.445 OA
BRANCH  31  32
ATOM     32  C   UNL     1      -4.542  -3.873  -8.701  0.00  0.00    +0.269 C 
BRANCH  32  33
ATOM     33  C   UNL     1      -5.683  -3.122  -9.337  0.00  0.00    -0.010 A 
ATOM     34  C   UNL     1      -6.920  -3.726  -9.467  0.00  0.00    +0.007 A 
ATOM     35  C   UNL     1      -7.967  -3.038 -10.051  0.00  0.00    +0.000 A 
ATOM     36  C   UNL     1      -7.777  -1.746 -10.505  0.00  0.00    +0.000 A 
ATOM     37  C   UNL     1      -6.541  -1.142 -10.374  0.00  0.00    +0.000 A 
ATOM     38  C   UNL     1      -5.495  -1.829  -9.786  0.00  0.00    +0.007 A 
ENDBRANCH  32  33
ENDBRANCH  31  32
ENDBRANCH  12  31
TORSDOF 9
