REMARK  Name = ZINC20972227
REMARK  11 active torsions:
REMARK  status: ('A' for Active; 'I' for Inactive)
REMARK    1  A    between atoms: C_1  and  C_2
REMARK    2  A    between atoms: C_2  and  C_3
REMARK    3  A    between atoms: C_2  and  C_4
REMARK    4  A    between atoms: C_2  and  C_5
REMARK    5  A    between atoms: C_8  and  C_11
REMARK    6  A    between atoms: C_14  and  S_17
REMARK    7  A    between atoms: N_15  and  N_16
REMARK    8  A    between atoms: S_17  and  C_18
REMARK    9  A    between atoms: C_18  and  C_19
REMARK   10  A    between atoms: N_21  and  C_22
REMARK   11  A    between atoms: C_25  and  N_29
REMARK                            x       y       z     vdW  Elec       q    Type
REMARK                         _______ _______ _______ _____ _____    ______ ____
ROOT
ATOM      1  C   UNL     1       3.657   3.139  -0.074  0.00  0.00    +0.182 A 
ATOM      2  N   UNL     1       3.761   1.839   0.071  0.00  0.00    -0.127 NA
ATOM      3  N   UNL     1       2.596   1.298   0.026  0.00  0.00    -0.121 NA
ATOM      4  C   UNL     1       1.677   2.220  -0.159  0.00  0.00    +0.209 A 
ATOM      5  N   UNL     1       2.319   3.423  -0.226  0.00  0.00    -0.224 N 
ENDROOT
BRANCH   1   9
ATOM      6  C   UNL     1       6.848   5.943  -0.074  0.00  0.00    -0.042 A 
ATOM      7  C   UNL     1       5.549   6.378   0.119  0.00  0.00    +0.005 A 
ATOM      8  C   UNL     1       4.508   5.473   0.120  0.00  0.00    +0.012 A 
ATOM      9  C   UNL     1       4.768   4.115  -0.074  0.00  0.00    +0.021 A 
ATOM     10  C   UNL     1       6.081   3.682  -0.262  0.00  0.00    +0.012 A 
ATOM     11  C   UNL     1       7.112   4.598  -0.266  0.00  0.00    +0.005 A 
BRANCH   6  13
ATOM     12  C   UNL     1       8.026   7.658   1.275  0.00  0.00    +0.015 C 
ATOM     13  C   UNL     1       7.980   6.937  -0.074  0.00  0.00    -0.013 C 
ATOM     14  C   UNL     1       9.303   6.204  -0.305  0.00  0.00    +0.015 C 
ATOM     15  C   UNL     1       7.761   7.960  -1.191  0.00  0.00    +0.015 C 
ENDBRANCH   6  13
ENDBRANCH   1   9
BRANCH   5  16
ATOM     16  N   UNL     1       1.752   4.652  -0.406  0.00  0.00    -0.295 N 
ATOM     17  H   UNL     1       0.661   4.744  -0.516  0.00  0.00    +0.163 HD
ATOM     18  H   UNL     1       2.385   5.551  -0.443  0.00  0.00    +0.163 HD
ENDBRANCH   5  16
BRANCH   4  19
ATOM     19  S   UNL     1      -0.059   1.953  -0.290  0.00  0.00    -0.075 S 
BRANCH  19  20
ATOM     20  C   UNL     1      -0.116   0.153  -0.107  0.00  0.00    +0.173 C 
BRANCH  20  21
ATOM     21  C   UNL     1      -1.545  -0.316  -0.188  0.00  0.00    +0.228 C 
ATOM     22  O   UNL     1      -2.439   0.488  -0.354  0.00  0.00    -0.275 OA
ATOM     23  N   UNL     1      -1.831  -1.628  -0.078  0.00  0.00    -0.284 N 
ATOM     24  H   UNL     1      -1.017  -2.365  -0.011  0.00  0.00    +0.155 HD
BRANCH  23  25
ATOM     25  C   UNL     1      -3.165  -2.054  -0.048  0.00  0.00    +0.052 A 
ATOM     26  C   UNL     1      -4.129  -1.374  -0.781  0.00  0.00    +0.027 A 
ATOM     27  C   UNL     1      -5.443  -1.796  -0.750  0.00  0.00    +0.034 A 
ATOM     28  C   UNL     1      -5.801  -2.895   0.010  0.00  0.00    +0.128 A 
ATOM     29  C   UNL     1      -4.844  -3.575   0.741  0.00  0.00    +0.054 A 
ATOM     30  C   UNL     1      -3.526  -3.161   0.710  0.00  0.00    +0.064 A 
ATOM     31 CL   UNL     1      -2.323  -4.019   1.622  0.00  0.00    -0.082 Cl
BRANCH  28  32
ATOM     32  N   UNL     1      -7.211  -3.345   0.041  0.00  0.00    +0.056 N 
ATOM     33  O   UNL     1      -8.055  -2.747  -0.603  0.00  0.00    -0.126 OA
ATOM     34  O   UNL     1      -7.527  -4.312   0.709  0.00  0.00    -0.126 OA
ENDBRANCH  28  32
ENDBRANCH  23  25
ENDBRANCH  20  21
ENDBRANCH  19  20
ENDBRANCH   4  19
TORSDOF 8
