REMARK  Name = ZINC40923832
REMARK  8 active torsions:
REMARK  status: ('A' for Active; 'I' for Inactive)
REMARK    1  A    between atoms: C_1  and  C_2
REMARK    2  A    between atoms: C_2  and  C_3
REMARK    3  A    between atoms: C_6  and  C_9
REMARK    4  A    between atoms: C_18  and  C_21
REMARK    5  A    between atoms: N_23  and  C_24
REMARK    6  A    between atoms: C_30  and  O_32
REMARK    7  A    between atoms: O_32  and  C_33
REMARK    8  A    between atoms: C_33  and  C_34
REMARK                            x       y       z     vdW  Elec       q    Type
REMARK                         _______ _______ _______ _____ _____    ______ ____
ROOT
ATOM      1  C   UNL     1      -5.394  -2.016   0.041  0.00  0.00    +0.093 A 
ATOM      2  C   UNL     1      -6.138  -2.048  -1.143  0.00  0.00    +0.033 A 
ATOM      3  C   UNL     1      -7.436  -2.519  -1.081  0.00  0.00    +0.047 A 
ATOM      4  C   UNL     1      -7.925  -2.933   0.159  0.00  0.00    +0.144 A 
ATOM      5  N   UNL     1      -7.148  -2.867   1.230  0.00  0.00    -0.134 NA
ATOM      6  N   UNL     1      -5.941  -2.435   1.174  0.00  0.00    -0.147 NA
ATOM      7  N   UNL     1      -9.224  -3.413   0.270  0.00  0.00    -0.314 N 
ATOM      8  C   UNL     1      -9.832  -3.631   1.590  0.00  0.00    +0.107 C 
ATOM      9  C   UNL     1     -10.355  -5.069   1.661  0.00  0.00    +0.031 C 
ATOM     10  C   UNL     1     -11.301  -5.322   0.485  0.00  0.00    +0.078 C 
ATOM     11  C   UNL     1     -10.538  -5.150  -0.831  0.00  0.00    +0.031 C 
ATOM     12  C   UNL     1     -10.019  -3.708  -0.930  0.00  0.00    +0.107 C 
ENDROOT
BRANCH   1  16
ATOM     13  C   UNL     1      -1.387  -0.596   0.006  0.00  0.00    -0.048 A 
ATOM     14  C   UNL     1      -1.953  -1.031   1.190  0.00  0.00    +0.004 A 
ATOM     15  C   UNL     1      -3.253  -1.493   1.208  0.00  0.00    +0.010 A 
ATOM     16  C   UNL     1      -3.996  -1.520   0.029  0.00  0.00    +0.002 A 
ATOM     17  C   UNL     1      -3.421  -1.079  -1.161  0.00  0.00    +0.010 A 
ATOM     18  C   UNL     1      -2.121  -0.615  -1.166  0.00  0.00    +0.004 A 
BRANCH  13  20
ATOM     19  C   UNL     1       0.044   1.413   0.262  0.00  0.00    +0.009 C 
ATOM     20  C   UNL     1       0.034  -0.093  -0.007  0.00  0.00    +0.032 C 
ENDBRANCH  13  20
ENDBRANCH   1  16
BRANCH  10  21
ATOM     21  C   UNL     1     -11.844  -6.725   0.570  0.00  0.00    +0.216 C 
ATOM     22  O   UNL     1     -11.509  -7.451   1.482  0.00  0.00    -0.276 OA
ATOM     23  N   UNL     1     -12.703  -7.173  -0.366  0.00  0.00    -0.312 N 
ATOM     24  H   UNL     1     -12.972  -6.593  -1.096  0.00  0.00    +0.149 HD
BRANCH  23  25
ATOM     25  C   UNL     1     -13.232  -8.537  -0.283  0.00  0.00    +0.076 C 
ATOM     26  C   UNL     1     -12.243  -9.508  -0.933  0.00  0.00    +0.041 C 
ATOM     27  C   UNL     1     -12.783 -10.936  -0.814  0.00  0.00    +0.113 C 
ATOM     28  N   UNL     1     -14.135 -10.980  -1.385  0.00  0.00    -0.267 N 
ATOM     29  C   UNL     1     -15.141 -10.028  -0.894  0.00  0.00    +0.113 C 
ATOM     30  C   UNL     1     -14.575  -8.609  -1.013  0.00  0.00    +0.041 C 
ATOM     31  C   UNL     1     -14.448 -11.877  -2.341  0.00  0.00    +0.403 C 
ATOM     32  O   UNL     1     -13.608 -12.660  -2.739  0.00  0.00    -0.226 OA
BRANCH  31  33
ATOM     33  O   UNL     1     -15.692 -11.907  -2.856  0.00  0.00    -0.451 OA
BRANCH  33  34
ATOM     34  C   UNL     1     -15.954 -12.883  -3.865  0.00  0.00    +0.230 C 
ATOM     35  C   UNL     1     -17.408 -12.764  -4.325  0.00  0.00    +0.048 C 
ENDBRANCH  33  34
ENDBRANCH  31  33
ENDBRANCH  23  25
ENDBRANCH  10  21
TORSDOF 6
