REMARK  Name = ZINC09042796
REMARK  5 active torsions:
REMARK  status: ('A' for Active; 'I' for Inactive)
REMARK    1  A    between atoms: C_1  and  O_2
REMARK    2  A    between atoms: O_2  and  C_3
REMARK    3  A    between atoms: C_8  and  N_9
REMARK    4  A    between atoms: N_16  and  N_17
REMARK    5  A    between atoms: C_18  and  C_19
REMARK                            x       y       z     vdW  Elec       q    Type
REMARK                         _______ _______ _______ _____ _____    ______ ____
ROOT
ATOM      1  N   UNL     1      -2.429   1.038   0.019  0.00  0.00    -0.244 N 
ATOM      2  C   UNL     1      -3.016   0.706  -1.151  0.00  0.00    +0.264 A 
ATOM      3  O   UNL     1      -2.514   1.032  -2.215  0.00  0.00    -0.267 OA
ATOM      4  C   UNL     1      -4.211  -0.025  -1.119  0.00  0.00    +0.050 A 
ATOM      5  C   UNL     1      -4.743  -0.382   0.112  0.00  0.00    +0.084 A 
ATOM      6  N   UNL     1      -4.132  -0.003   1.238  0.00  0.00    -0.214 NA
ATOM      7  C   UNL     1      -3.008   0.684   1.201  0.00  0.00    +0.223 A 
ATOM      8  N   UNL     1      -2.409   1.052   2.378  0.00  0.00    -0.206 N 
ATOM      9  C   UNL     1      -5.997  -1.169   0.146  0.00  0.00    +0.004 A 
ATOM     10  C   UNL     1      -6.758  -1.245   1.309  0.00  0.00    +0.010 A 
ATOM     11  C   UNL     1      -7.932  -1.972   1.311  0.00  0.00    +0.001 A 
ATOM     12  C   UNL     1      -8.349  -2.620   0.162  0.00  0.00    +0.000 A 
ATOM     13  C   UNL     1      -7.591  -2.553  -0.993  0.00  0.00    +0.004 A 
ATOM     14  C   UNL     1      -6.412  -1.835  -1.006  0.00  0.00    -0.037 A 
ATOM     15  C   UNL     1      -5.573  -1.774  -2.254  0.00  0.00    +0.047 C 
ATOM     16  C   UNL     1      -4.912  -0.404  -2.394  0.00  0.00    +0.007 C 
ATOM     17  C   UNL     1      -3.892  -0.450  -3.536  0.00  0.00    +0.012 C 
ATOM     18  C   UNL     1      -4.601  -0.831  -4.837  0.00  0.00    +0.001 C 
ATOM     19  C   UNL     1      -5.672   0.213  -5.159  0.00  0.00    +0.000 C 
ATOM     20  C   UNL     1      -6.690   0.265  -4.018  0.00  0.00    +0.001 C 
ATOM     21  C   UNL     1      -5.981   0.644  -2.717  0.00  0.00    +0.012 C 
ATOM     22  H   UNL     1      -1.471   1.626   2.362  0.00  0.00    +0.177 HD
ENDROOT
BRANCH   1  28
ATOM     23  C   UNL     1      -1.238   3.146   0.032  0.00  0.00    +0.144 A 
ATOM     24  C   UNL     1      -0.043   3.848   0.023  0.00  0.00    +0.048 A 
ATOM     25  C   UNL     1       1.160   3.166   0.008  0.00  0.00    +0.004 A 
ATOM     26  C   UNL     1       1.174   1.783   0.000  0.00  0.00    +0.002 A 
ATOM     27  C   UNL     1      -0.013   1.076   0.008  0.00  0.00    +0.030 A 
ATOM     28  C   UNL     1      -1.223   1.753   0.017  0.00  0.00    +0.094 A 
BRANCH  23  30
ATOM     29  C   UNL     1      -2.358   5.243   0.056  0.00  0.00    +0.277 C 
ATOM     30  O   UNL     1      -2.421   3.816   0.048  0.00  0.00    -0.493 OA
ENDBRANCH  23  30
ENDBRANCH   1  28
BRANCH   8  31
ATOM     31  N   UNL     1      -2.991   0.697   3.602  0.00  0.00    -0.188 NA
ATOM     32  C   UNL     1      -2.424   1.045   4.716  0.00  0.00    +0.138 C 
BRANCH  32  33
ATOM     33  C   UNL     1      -3.037   0.671   6.004  0.00  0.00    -0.005 A 
ATOM     34  C   UNL     1      -4.231  -0.053   6.029  0.00  0.00    +0.009 A 
ATOM     35  C   UNL     1      -4.796  -0.405   7.237  0.00  0.00    +0.001 A 
ATOM     36  C   UNL     1      -4.188  -0.031   8.423  0.00  0.00    +0.000 A 
ATOM     37  C   UNL     1      -3.008   0.691   8.406  0.00  0.00    +0.001 A 
ATOM     38  C   UNL     1      -2.429   1.044   7.205  0.00  0.00    +0.009 A 
ENDBRANCH  32  33
ENDBRANCH   8  31
TORSDOF 4
