REMARK  Name = ZINC44168286
REMARK  8 active torsions:
REMARK  status: ('A' for Active; 'I' for Inactive)
REMARK    1  A    between atoms: C_1  and  C_2
REMARK    2  A    between atoms: C_5  and  C_8
REMARK    3  A    between atoms: C_8  and  C_9
REMARK    4  A    between atoms: C_9  and  N_10
REMARK    5  A    between atoms: C_11  and  C_13
REMARK    6  A    between atoms: C_18  and  C_21
REMARK    7  A    between atoms: C_22  and  C_32
REMARK    8  A    between atoms: C_24  and  C_26
REMARK                            x       y       z     vdW  Elec       q    Type
REMARK                         _______ _______ _______ _____ _____    ______ ____
ROOT
ATOM      1  C   UNL     1       2.723  -8.397  -0.059  0.00  0.00    +0.027 C 
ATOM      2  C   UNL     1       2.010  -8.923   1.193  0.00  0.00    +0.062 C 
ATOM      3  S   UNL     1       1.992 -10.741   1.118  0.00  0.00    -0.163 S 
ATOM      4  C   UNL     1       3.730 -11.142   0.758  0.00  0.00    +0.058 C 
ATOM      5  C   UNL     1       4.186 -10.285  -0.428  0.00  0.00    -0.021 C 
ATOM      6  N   UNL     1       4.110  -8.866  -0.073  0.00  0.00    +0.393 N 
ATOM      7  H   UNL     1       4.633  -8.328  -0.747  0.00  0.00    -0.084 HD
ATOM      8  H   UNL     1       4.514  -8.731   0.842  0.00  0.00    -0.084 HD
ENDROOT
BRANCH   5   9
ATOM      9  C   UNL     1       5.608 -10.635  -0.783  0.00  0.00    -0.000 A 
ATOM     10  C   UNL     1       6.090 -11.358  -1.830  0.00  0.00    +0.048 A 
ATOM     11  N   UNL     1       7.381 -11.547  -1.954  0.00  0.00    -0.242 NA
ATOM     12  C   UNL     1       8.238 -11.046  -1.075  0.00  0.00    +0.128 A 
ATOM     13  S   UNL     1       7.131 -10.210   0.052  0.00  0.00    -0.072 S 
ATOM     14  C   UNL     1       5.141 -11.941  -2.845  0.00  0.00    +0.066 C 
BRANCH  12  15
ATOM     15  C   UNL     1       9.713 -11.147  -1.041  0.00  0.00    +0.114 A 
ATOM     16  C   UNL     1      10.391 -11.848  -2.041  0.00  0.00    +0.141 A 
ATOM     17  N   UNL     1      11.707 -11.934  -2.005  0.00  0.00    -0.260 NA
ATOM     18  C   UNL     1      12.383 -11.358  -1.024  0.00  0.00    +0.130 A 
ATOM     19  C   UNL     1      11.715 -10.663  -0.031  0.00  0.00    +0.131 A 
ATOM     20  N   UNL     1      10.399 -10.566  -0.060  0.00  0.00    -0.250 NA
ENDBRANCH  12  15
ENDBRANCH   5   9
BRANCH   1  22
ATOM     21  N   UNL     1       1.527  -6.231  -0.040  0.00  0.00    -0.316 N 
ATOM     22  C   UNL     1       2.703  -6.890  -0.050  0.00  0.00    +0.200 C 
ATOM     23  O   UNL     1       3.745  -6.270  -0.053  0.00  0.00    -0.278 OA
ATOM     24  H   UNL     1       0.694  -6.727  -0.038  0.00  0.00    +0.149 HD
BRANCH  21  25
ATOM     25  C   UNL     1       1.508  -4.767  -0.032  0.00  0.00    +0.109 C 
BRANCH  25  26
ATOM     26  C   UNL     1       0.059  -4.275  -0.021  0.00  0.00    +0.054 C 
BRANCH  26  31
ATOM     27  C   UNL     1      -0.018   1.503   0.010  0.00  0.00    +0.044 C 
ATOM     28  C   UNL     1       0.002  -0.004   0.002  0.00  0.00    -0.050 A 
ATOM     29  C   UNL     1       0.006  -0.689  -1.199  0.00  0.00    +0.003 A 
ATOM     30  C   UNL     1       0.025  -2.071  -1.206  0.00  0.00    +0.004 A 
ATOM     31  C   UNL     1       0.040  -2.768  -0.013  0.00  0.00    -0.046 A 
ATOM     32  C   UNL     1       0.037  -2.084   1.188  0.00  0.00    +0.004 A 
ATOM     33  C   UNL     1       0.023  -0.702   1.195  0.00  0.00    +0.003 A 
ENDBRANCH  26  31
ENDBRANCH  25  26
ENDBRANCH  21  25
ENDBRANCH   1  22
TORSDOF 6
