REMARK  Name = ZINC35778532
REMARK  15 active torsions:
REMARK  status: ('A' for Active; 'I' for Inactive)
REMARK    1  A    between atoms: C_1  and  C_2
REMARK    2  A    between atoms: C_2  and  C_3
REMARK    3  A    between atoms: C_2  and  C_4
REMARK    4  A    between atoms: C_5  and  C_23
REMARK    5  A    between atoms: C_6  and  O_15
REMARK    6  A    between atoms: N_7  and  C_9
REMARK    7  A    between atoms: O_15  and  C_16
REMARK    8  A    between atoms: C_23  and  N_24
REMARK    9  A    between atoms: N_24  and  C_25
REMARK   10  A    between atoms: N_24  and  C_29
REMARK   11  A    between atoms: C_25  and  C_26
REMARK   12  A    between atoms: C_29  and  C_30
REMARK   13  A    between atoms: C_30  and  C_31
REMARK   14  A    between atoms: C_30  and  C_32
REMARK   15  A    between atoms: C_30  and  O_34
REMARK                            x       y       z     vdW  Elec       q    Type
REMARK                         _______ _______ _______ _____ _____    ______ ____
ROOT
ATOM      1  C   UNL     1      -0.963  -0.439   0.525  0.00  0.00    +0.071 A 
ATOM      2  C   UNL     1      -1.294  -1.229  -0.580  0.00  0.00    +0.021 A 
ATOM      3  C   UNL     1      -2.466  -1.860  -0.306  0.00  0.00    +0.225 A 
ATOM      4  N   UNL     1      -2.857  -1.474   0.938  0.00  0.00    -0.200 N 
ATOM      5  N   UNL     1      -1.892  -0.588   1.434  0.00  0.00    -0.168 NA
ENDROOT
BRANCH   4   6
ATOM      6  C   UNL     1      -4.016  -1.892   1.607  0.00  0.00    +0.069 A 
ATOM      7  C   UNL     1      -5.226  -1.955   0.928  0.00  0.00    +0.028 A 
ATOM      8  C   UNL     1      -6.366  -2.367   1.590  0.00  0.00    +0.002 A 
ATOM      9  C   UNL     1      -6.304  -2.717   2.926  0.00  0.00    +0.000 A 
ATOM     10  C   UNL     1      -5.100  -2.655   3.604  0.00  0.00    +0.002 A 
ATOM     11  C   UNL     1      -3.956  -2.249   2.947  0.00  0.00    +0.028 A 
ENDBRANCH   4   6
BRANCH   1  13
ATOM     12  C   UNL     1      -0.167   1.885   0.864  0.00  0.00    +0.014 C 
ATOM     13  C   UNL     1       0.261   0.432   0.651  0.00  0.00    +0.034 C 
ATOM     14  C   UNL     1       1.098  -0.034   1.844  0.00  0.00    +0.014 C 
ENDBRANCH   1  13
BRANCH   3  15
ATOM     15  O   UNL     1      -3.127  -2.719  -1.125  0.00  0.00    -0.435 OA
BRANCH  15  16
ATOM     16  C   UNL     1      -3.986  -2.195  -2.038  0.00  0.00    +0.165 A 
ATOM     17  C   UNL     1      -4.087  -0.820  -2.189  0.00  0.00    +0.049 A 
ATOM     18  C   UNL     1      -4.961  -0.290  -3.119  0.00  0.00    +0.004 A 
ATOM     19  C   UNL     1      -5.736  -1.129  -3.899  0.00  0.00    +0.003 A 
ATOM     20  C   UNL     1      -5.639  -2.500  -3.752  0.00  0.00    +0.042 A 
ATOM     21  C   UNL     1      -4.761  -3.037  -2.826  0.00  0.00    +0.165 A 
ATOM     22  F   UNL     1      -4.662  -4.377  -2.686  0.00  0.00    -0.202 F 
ENDBRANCH  15  16
ENDBRANCH   3  15
BRANCH   2  23
ATOM     23  C   UNL     1      -0.493  -1.358  -1.850  0.00  0.00    -0.036 C 
BRANCH  23  24
ATOM     24  N   UNL     1       0.468  -2.461  -1.714  0.00  0.00    +0.385 N 
ATOM     25  H   UNL     1       1.062  -2.293  -0.915  0.00  0.00    -0.081 HD
BRANCH  24  26
ATOM     26  C   UNL     1      -0.260  -3.723  -1.525  0.00  0.00    -0.075 C 
BRANCH  26  27
ATOM     27  C   UNL     1       0.740  -4.860  -1.305  0.00  0.00    -0.028 C 
ATOM     28  C   UNL     1       0.814  -5.952  -2.374  0.00  0.00    +0.002 C 
ATOM     29  C   UNL     1       0.174  -6.253  -1.018  0.00  0.00    +0.002 C 
ENDBRANCH  26  27
ENDBRANCH  24  26
BRANCH  24  30
ATOM     30  C   UNL     1       1.291  -2.547  -2.927  0.00  0.00    -0.039 C 
BRANCH  30  31
ATOM     31  C   UNL     1       2.188  -1.311  -3.023  0.00  0.00    +0.067 C 
ATOM     32  C   UNL     1       2.962  -1.140  -1.715  0.00  0.00    +0.044 C 
BRANCH  31  33
ATOM     33  C   UNL     1       3.159  -1.482  -4.163  0.00  0.00    -0.003 C 
ATOM     34  C   UNL     1       3.160  -0.628  -5.156  0.00  0.00    +0.006 C 
ENDBRANCH  31  33
BRANCH  31  35
ATOM     35  O   UNL     1       1.382  -0.154  -3.254  0.00  0.00    -0.387 OA
ATOM     36  H   UNL     1       0.862  -0.193  -4.069  0.00  0.00    +0.210 HD
ENDBRANCH  31  35
ENDBRANCH  30  31
ENDBRANCH  24  30
ENDBRANCH  23  24
ENDBRANCH   2  23
TORSDOF 12
