REMARK  Name = ZINC06233720
REMARK  8 active torsions:
REMARK  status: ('A' for Active; 'I' for Inactive)
REMARK    1  A    between atoms: C_1  and  C_2
REMARK    2  A    between atoms: C_5  and  C_8
REMARK    3  A    between atoms: C_9  and  C_10
REMARK    4  A    between atoms: N_12  and  C_13
REMARK    5  A    between atoms: C_13  and  N_15
REMARK    6  A    between atoms: N_15  and  N_16
REMARK    7  A    between atoms: C_17  and  C_19
REMARK    8  A    between atoms: C_28  and  O_29
REMARK                            x       y       z     vdW  Elec       q    Type
REMARK                         _______ _______ _______ _____ _____    ______ ____
ROOT
ATOM      1  N   UNL     1       3.478   1.934  -0.021  0.00  0.00    -0.245 N 
ATOM      2  H   UNL     1       4.324   1.460  -0.031  0.00  0.00    +0.172 HD
ENDROOT
BRANCH   1   3
ATOM      3  N   UNL     1       3.458   3.335  -0.013  0.00  0.00    -0.231 N 
ATOM      4  C   UNL     1       4.616   4.025  -0.020  0.00  0.00    +0.264 C 
ATOM      5  O   UNL     1       5.678   3.431  -0.034  0.00  0.00    -0.269 OA
ATOM      6  H   UNL     1       2.612   3.808  -0.002  0.00  0.00    +0.173 HD
BRANCH   4   7
ATOM      7  C   UNL     1       4.596   5.500  -0.012  0.00  0.00    +0.080 A 
ATOM      8  C   UNL     1       3.385   6.172  -0.003  0.00  0.00    +0.025 A 
ATOM      9  C   UNL     1       3.372   7.574   0.010  0.00  0.00    -0.017 A 
ATOM     10  C   UNL     1       2.160   8.289   0.024  0.00  0.00    +0.008 A 
ATOM     11  C   UNL     1       2.180   9.649   0.030  0.00  0.00    +0.001 A 
ATOM     12  C   UNL     1       3.386  10.349   0.022  0.00  0.00    +0.001 A 
ATOM     13  C   UNL     1       4.578   9.692   0.008  0.00  0.00    +0.008 A 
ATOM     14  C   UNL     1       4.599   8.286   0.001  0.00  0.00    -0.014 A 
ATOM     15  C   UNL     1       5.814   7.582  -0.014  0.00  0.00    +0.054 A 
ATOM     16  C   UNL     1       5.811   6.218  -0.020  0.00  0.00    +0.130 A 
BRANCH  16  17
ATOM     17  O   UNL     1       6.989   5.544  -0.034  0.00  0.00    -0.506 OA
ATOM     18  H   UNL     1       7.322   5.353  -0.922  0.00  0.00    +0.292 HD
ENDBRANCH  16  17
ENDBRANCH   4   7
ENDBRANCH   1   3
BRANCH   1  19
ATOM     19  C   UNL     1       2.320   1.244  -0.013  0.00  0.00    +0.153 C 
ATOM     20  S   UNL     1       2.343  -0.468  -0.023  0.00  0.00    -0.017 S 
BRANCH  19  23
ATOM     21  C   UNL     1      -0.014   1.212   0.009  0.00  0.00    +0.242 C 
ATOM     22  O   UNL     1       0.002  -0.004   0.002  0.00  0.00    -0.270 OA
ATOM     23  N   UNL     1       1.143   1.902   0.001  0.00  0.00    -0.263 N 
ATOM     24  H   UNL     1       1.130   2.872   0.007  0.00  0.00    +0.157 HD
BRANCH  21  26
ATOM     25  C   UNL     1      -2.450   1.236   0.020  0.00  0.00    +0.013 C 
ATOM     26  C   UNL     1      -1.291   1.927   0.019  0.00  0.00    +0.068 C 
BRANCH  25  31
ATOM     27  C   UNL     1      -7.467   4.043   0.060  0.00  0.00    +0.044 C 
ATOM     28  C   UNL     1      -6.152   3.307   0.050  0.00  0.00    -0.050 A 
ATOM     29  C   UNL     1      -6.138   1.923   0.042  0.00  0.00    +0.004 A 
ATOM     30  C   UNL     1      -4.938   1.243   0.032  0.00  0.00    +0.008 A 
ATOM     31  C   UNL     1      -3.735   1.955   0.030  0.00  0.00    -0.025 A 
ATOM     32  C   UNL     1      -3.758   3.353   0.044  0.00  0.00    +0.008 A 
ATOM     33  C   UNL     1      -4.965   4.019   0.048  0.00  0.00    +0.004 A 
ENDBRANCH  25  31
ENDBRANCH  21  26
ENDBRANCH  19  23
ENDBRANCH   1  19
TORSDOF 7
