REMARK  Name = ZINC20850160
REMARK  11 active torsions:
REMARK  status: ('A' for Active; 'I' for Inactive)
REMARK    1  A    between atoms: C_1  and  C_2
REMARK    2  A    between atoms: C_2  and  C_37
REMARK    3  A    between atoms: C_6  and  C_24
REMARK    4  A    between atoms: C_11  and  S_13
REMARK    5  A    between atoms: S_13  and  C_14
REMARK    6  A    between atoms: C_14  and  C_15
REMARK    7  A    between atoms: C_15  and  C_17
REMARK    8  A    between atoms: C_28  and  O_32
REMARK    9  A    between atoms: C_29  and  O_30
REMARK   10  A    between atoms: O_30  and  C_31
REMARK   11  A    between atoms: O_32  and  C_33
REMARK                            x       y       z     vdW  Elec       q    Type
REMARK                         _______ _______ _______ _____ _____    ______ ____
ROOT
ATOM      1  C   UNL     1       8.954   3.039  -4.098  0.00  0.00    +0.011 C 
ATOM      2  C   UNL     1      10.260   3.083  -3.301  0.00  0.00    -0.023 C 
ATOM      3  C   UNL     1      10.249   4.289  -2.359  0.00  0.00    +0.058 C 
ATOM      4  C   UNL     1       9.100   4.162  -1.387  0.00  0.00    +0.020 C 
ATOM      5  C   UNL     1       8.673   2.949  -0.973  0.00  0.00    +0.041 C 
ATOM      6  C   UNL     1       7.545   2.791   0.022  0.00  0.00    +0.179 C 
ATOM      7  N   UNL     1       6.824   4.050   0.162  0.00  0.00    -0.220 N 
ATOM      8  C   UNL     1       7.297   5.235  -0.294  0.00  0.00    +0.219 A 
ATOM      9  N   UNL     1       6.420   6.159  -0.011  0.00  0.00    -0.187 NA
ATOM     10  C   UNL     1       5.378   5.607   0.628  0.00  0.00    +0.211 A 
ATOM     11  N   UNL     1       5.587   4.313   0.749  0.00  0.00    -0.141 NA
ATOM     12  N   UNL     1       8.517   5.325  -0.945  0.00  0.00    -0.287 N 
ATOM     13  C   UNL     1       9.272   1.771  -1.455  0.00  0.00    +0.164 C 
ATOM     14  O   UNL     1       8.874   0.696  -1.053  0.00  0.00    -0.292 OA
ATOM     15  C   UNL     1      10.393   1.812  -2.456  0.00  0.00    +0.086 C 
ATOM     16  C   UNL     1      11.446   3.190  -4.262  0.00  0.00    +0.011 C 
ATOM     17  H   UNL     1       9.018   6.289  -1.111  0.00  0.00    +0.155 HD
ENDROOT
BRANCH   6  18
ATOM     18  C   UNL     1       8.110   2.387   1.359  0.00  0.00    +0.027 A 
ATOM     19  C   UNL     1       9.146   3.111   1.919  0.00  0.00    +0.010 A 
ATOM     20  C   UNL     1       9.666   2.744   3.146  0.00  0.00    +0.004 A 
ATOM     21  C   UNL     1       9.153   1.649   3.818  0.00  0.00    +0.049 A 
ATOM     22  C   UNL     1       8.115   0.919   3.262  0.00  0.00    +0.162 A 
ATOM     23  C   UNL     1       7.588   1.293   2.029  0.00  0.00    +0.167 A 
BRANCH  23  24
ATOM     24  O   UNL     1       6.565   0.582   1.482  0.00  0.00    -0.491 OA
ATOM     25  C   UNL     1       6.910  -0.613   0.779  0.00  0.00    +0.277 C 
ENDBRANCH  23  24
BRANCH  22  26
ATOM     26  O   UNL     1       7.609  -0.157   3.922  0.00  0.00    -0.491 OA
ATOM     27  C   UNL     1       8.196  -0.478   5.185  0.00  0.00    +0.277 C 
ENDBRANCH  22  26
ENDBRANCH   6  18
BRANCH  10  28
ATOM     28  S   UNL     1       3.956   6.472   1.205  0.00  0.00    -0.076 S 
BRANCH  28  29
ATOM     29  C   UNL     1       4.272   8.196   0.739  0.00  0.00    +0.157 C 
BRANCH  29  30
ATOM     30  C   UNL     1       3.116   9.056   1.180  0.00  0.00    +0.173 C 
ATOM     31  O   UNL     1       2.172   8.555   1.753  0.00  0.00    -0.291 OA
BRANCH  30  32
ATOM     32  C   UNL     1       3.130  10.503   0.911  0.00  0.00    +0.018 A 
ATOM     33  C   UNL     1       4.219  11.085   0.256  0.00  0.00    +0.011 A 
ATOM     34  C   UNL     1       4.223  12.441   0.003  0.00  0.00    +0.001 A 
ATOM     35  C   UNL     1       3.157  13.226   0.405  0.00  0.00    +0.000 A 
ATOM     36  C   UNL     1       2.077  12.658   1.059  0.00  0.00    +0.001 A 
ATOM     37  C   UNL     1       2.056  11.303   1.314  0.00  0.00    +0.011 A 
ENDBRANCH  30  32
ENDBRANCH  29  30
ENDBRANCH  28  29
ENDBRANCH  10  28
TORSDOF 7
