REMARK  Name = ZINC38676976
REMARK  9 active torsions:
REMARK  status: ('A' for Active; 'I' for Inactive)
REMARK    1  A    between atoms: C_1  and  C_2
REMARK    2  A    between atoms: C_2  and  C_3
REMARK    3  A    between atoms: C_6  and  C_9
REMARK    4  A    between atoms: C_14  and  O_23
REMARK    5  A    between atoms: C_18  and  N_22
REMARK    6  A    between atoms: C_19  and  C_20
REMARK    7  A    between atoms: O_23  and  C_24
REMARK    8  A    between atoms: C_24  and  C_26
REMARK    9  A    between atoms: C_27  and  C_28
REMARK                            x       y       z     vdW  Elec       q    Type
REMARK                         _______ _______ _______ _____ _____    ______ ____
ROOT
ATOM      1  C   UNL     1      -5.441  -1.984   0.101  0.00  0.00    +0.098 C 
ATOM      2  C   UNL     1      -6.336  -1.004  -0.610  0.00  0.00    +0.008 A 
ATOM      3  C   UNL     1      -6.799   0.110   0.069  0.00  0.00    +0.012 A 
ATOM      4  C   UNL     1      -7.621   1.020  -0.567  0.00  0.00    +0.047 A 
ATOM      5  C   UNL     1      -7.985   0.819  -1.891  0.00  0.00    +0.135 A 
ATOM      6  C   UNL     1      -7.522  -0.295  -2.573  0.00  0.00    +0.093 A 
ATOM      7  C   UNL     1      -6.697  -1.209  -1.932  0.00  0.00    +0.138 A 
ATOM      8  O   UNL     1      -6.253  -2.294  -2.613  0.00  0.00    -0.441 OA
ATOM      9  C   UNL     1      -5.793  -3.364  -1.944  0.00  0.00    +0.199 C 
ATOM     10  C   UNL     1      -5.393  -3.282  -0.656  0.00  0.00    +0.098 C 
ENDROOT
BRANCH   1  14
ATOM     11  C   UNL     1      -1.499  -0.363   0.377  0.00  0.00    -0.048 A 
ATOM     12  C   UNL     1      -2.200  -0.676   1.527  0.00  0.00    +0.004 A 
ATOM     13  C   UNL     1      -3.476  -1.200   1.438  0.00  0.00    +0.005 A 
ATOM     14  C   UNL     1      -4.051  -1.412   0.199  0.00  0.00    -0.035 A 
ATOM     15  C   UNL     1      -3.350  -1.099  -0.951  0.00  0.00    +0.005 A 
ATOM     16  C   UNL     1      -2.076  -0.570  -0.862  0.00  0.00    +0.004 A 
BRANCH  11  18
ATOM     17  C   UNL     1      -0.187   1.735   0.541  0.00  0.00    +0.009 C 
ATOM     18  C   UNL     1      -0.108   0.208   0.475  0.00  0.00    +0.032 C 
ENDBRANCH  11  18
ENDBRANCH   1  14
BRANCH   9  19
ATOM     19  N   UNL     1      -5.728  -4.575  -2.587  0.00  0.00    -0.328 N 
ATOM     20  H   UNL     1      -6.011  -4.649  -3.511  0.00  0.00    +0.145 HD
ATOM     21  H   UNL     1      -5.398  -5.357  -2.117  0.00  0.00    +0.145 HD
ENDBRANCH   9  19
BRANCH  10  22
ATOM     22  C   UNL     1      -4.913  -4.460   0.002  0.00  0.00    +0.101 C 
ATOM     23  N   UNL     1      -4.532  -5.395   0.523  0.00  0.00    -0.191 NA
ENDBRANCH  10  22
BRANCH   5  24
ATOM     24  O   UNL     1      -8.794   1.713  -2.517  0.00  0.00    -0.423 OA
BRANCH  24  25
ATOM     25  C   UNL     1      -8.295   2.936  -2.791  0.00  0.00    +0.337 C 
ATOM     26  O   UNL     1      -7.123   3.177  -2.573  0.00  0.00    -0.245 OA
BRANCH  25  27
ATOM     27  C   UNL     1      -9.163   3.972  -3.348  0.00  0.00    +0.092 C 
ATOM     28  C   UNL     1      -8.663   5.196  -3.622  0.00  0.00    +0.015 C 
BRANCH  28  29
ATOM     29  C   UNL     1      -9.537   6.238  -4.183  0.00  0.00    -0.025 A 
ATOM     30  C   UNL     1     -10.887   5.967  -4.429  0.00  0.00    +0.009 A 
ATOM     31  C   UNL     1     -11.699   6.948  -4.955  0.00  0.00    +0.020 A 
ATOM     32  C   UNL     1     -11.181   8.201  -5.240  0.00  0.00    +0.041 A 
ATOM     33  C   UNL     1      -9.845   8.477  -4.999  0.00  0.00    +0.020 A 
ATOM     34  C   UNL     1      -9.022   7.508  -4.468  0.00  0.00    +0.009 A 
ATOM     35 CL   UNL     1     -12.211   9.431  -5.902  0.00  0.00    -0.084 Cl
ENDBRANCH  28  29
ENDBRANCH  25  27
ENDBRANCH  24  25
ENDBRANCH   5  24
TORSDOF 8
