REMARK  Name = ZINC09286440
REMARK  11 active torsions:
REMARK  status: ('A' for Active; 'I' for Inactive)
REMARK    1  A    between atoms: C_1  and  C_2
REMARK    2  A    between atoms: C_2  and  O_3
REMARK    3  A    between atoms: O_3  and  C_4
REMARK    4  A    between atoms: C_4  and  C_6
REMARK    5  A    between atoms: C_10  and  N_11
REMARK    6  A    between atoms: C_12  and  C_14
REMARK    7  A    between atoms: C_14  and  C_16
REMARK    8  A    between atoms: C_14  and  O_17
REMARK    9  A    between atoms: O_17  and  C_18
REMARK   10  A    between atoms: C_21  and  C_25
REMARK   11  A    between atoms: C_25  and  N_67
REMARK                            x       y       z     vdW  Elec       q    Type
REMARK                         _______ _______ _______ _____ _____    ______ ____
ROOT
ATOM      1  O   UNL     1      -6.158   0.434  -0.601  0.00  0.00    -0.473 OA
ENDROOT
BRANCH   1   2
ATOM      2  C   UNL     1      -4.862   0.835  -0.716  0.00  0.00    +0.203 A 
ATOM      3  C   UNL     1      -4.011   0.182  -1.538  0.00  0.00    +0.244 A 
ATOM      4  O   UNL     1      -2.736   0.575  -1.659  0.00  0.00    -0.466 OA
ATOM      5  C   UNL     1      -2.244   1.613  -0.973  0.00  0.00    +0.092 A 
ATOM      6  C   UNL     1      -3.023   2.321  -0.131  0.00  0.00    +0.094 A 
ATOM      7  C   UNL     1      -4.381   1.948   0.027  0.00  0.00    +0.226 A 
ATOM      8  O   UNL     1      -5.119   2.566   0.781  0.00  0.00    -0.284 OA
BRANCH   5   9
ATOM      9  C   UNL     1      -0.799   2.001  -1.150  0.00  0.00    -0.003 C 
BRANCH   9  19
ATOM     10  C   UNL     1       1.405   1.791  -0.165  0.00  0.00    -0.073 C 
ATOM     11  C   UNL     1       2.106   1.283   1.096  0.00  0.00    +0.017 C 
ATOM     12  C   UNL     1       1.917  -0.206   1.225  0.00  0.00    -0.048 A 
ATOM     13  C   UNL     1       2.750  -0.907   2.083  0.00  0.00    +0.004 A 
ATOM     14  C   UNL     1       2.607  -2.272   2.235  0.00  0.00    +0.000 A 
ATOM     15  C   UNL     1       1.628  -2.943   1.526  0.00  0.00    +0.000 A 
ATOM     16  C   UNL     1       0.799  -2.247   0.670  0.00  0.00    +0.002 A 
ATOM     17  C   UNL     1       0.942  -0.876   0.516  0.00  0.00    -0.061 A 
ATOM     18  C   UNL     1       0.016  -0.161  -0.432  0.00  0.00    -0.042 C 
ATOM     19  N   UNL     1       0.019   1.284  -0.145  0.00  0.00    +0.387 N 
ATOM     20  H   UNL     1      -0.383   1.441   0.786  0.00  0.00    -0.081 HD
ENDBRANCH   9  19
ENDBRANCH   5   9
ENDBRANCH   1   2
BRANCH   1  21
ATOM     21  C   UNL     1      -6.529  -0.764  -1.287  0.00  0.00    +0.256 C 
ATOM     22  C   UNL     1      -6.884  -0.431  -2.738  0.00  0.00    +0.062 C 
BRANCH  21  24
ATOM     23  N   UNL     1      -8.191  -2.577  -1.021  0.00  0.00    -0.276 N 
ATOM     24  C   UNL     1      -7.724  -1.382  -0.607  0.00  0.00    +0.258 C 
ATOM     25  O   UNL     1      -8.265  -0.804   0.312  0.00  0.00    -0.271 OA
ATOM     26  H   UNL     1      -7.758  -3.039  -1.756  0.00  0.00    +0.155 HD
BRANCH  23  31
ATOM     27  C   UNL     1      -9.912  -4.350  -0.678  0.00  0.00    +0.091 A 
ATOM     28  C   UNL     1     -11.064  -4.725   0.143  0.00  0.00    -0.021 A 
ATOM     29  C   UNL     1     -11.401  -3.835   1.094  0.00  0.00    -0.004 A 
ATOM     30  S   UNL     1     -10.220  -2.520   0.923  0.00  0.00    -0.077 S 
ATOM     31  C   UNL     1      -9.289  -3.146  -0.395  0.00  0.00    +0.086 A 
ATOM     32  C   UNL     1     -12.592  -4.289   1.894  0.00  0.00    +0.043 C 
ATOM     33  C   UNL     1     -12.706  -5.801   1.600  0.00  0.00    +0.010 C 
ATOM     34  C   UNL     1     -12.037  -5.902   0.215  0.00  0.00    +0.037 C 
BRANCH  27  35
ATOM     35  C   UNL     1      -9.434  -5.218  -1.756  0.00  0.00    +0.342 C 
ATOM     36  O   UNL     1      -8.596  -6.069  -1.524  0.00  0.00    -0.245 OA
BRANCH  35  37
ATOM     37  O   UNL     1      -9.922  -5.074  -3.005  0.00  0.00    -0.461 OA
BRANCH  37  39
ATOM     38  C   UNL     1     -10.069  -5.658  -5.364  0.00  0.00    +0.048 C 
ATOM     39  C   UNL     1      -9.402  -5.969  -4.023  0.00  0.00    +0.229 C 
ENDBRANCH  37  39
ENDBRANCH  35  37
ENDBRANCH  27  35
ENDBRANCH  23  31
ENDBRANCH  21  24
ENDBRANCH   1  21
TORSDOF 9
