REMARK  Name = ZINC22058315
REMARK  14 active torsions:
REMARK  status: ('A' for Active; 'I' for Inactive)
REMARK    1  A    between atoms: C_1  and  C_2
REMARK    2  A    between atoms: C_2  and  N_3
REMARK    3  A    between atoms: N_3  and  C_4
REMARK    4  A    between atoms: C_4  and  C_5
REMARK    5  A    between atoms: C_6  and  C_8
REMARK    6  A    between atoms: C_8  and  C_38
REMARK    7  A    between atoms: C_9  and  C_10
REMARK    8  A    between atoms: C_12  and  N_35
REMARK    9  A    between atoms: C_14  and  O_16
REMARK   10  A    between atoms: O_16  and  C_17
REMARK   11  A    between atoms: C_19  and  O_33
REMARK   12  A    between atoms: C_21  and  O_32
REMARK   13  A    between atoms: C_23  and  O_31
REMARK   14  A    between atoms: C_25  and  C_28
REMARK                            x       y       z     vdW  Elec       q    Type
REMARK                         _______ _______ _______ _____ _____    ______ ____
ROOT
ATOM      1  C   UNL     1       2.613   1.469   0.746  0.00  0.00    -0.018 A 
ATOM      2  C   UNL     1       2.638   0.098   1.041  0.00  0.00    +0.044 A 
ATOM      3  C   UNL     1       3.823  -0.508   1.391  0.00  0.00    +0.177 A 
ATOM      4  C   UNL     1       4.996   0.234   1.453  0.00  0.00    +0.250 A 
ATOM      5  C   UNL     1       4.981   1.599   1.161  0.00  0.00    +0.173 A 
ATOM      6  C   UNL     1       3.799   2.215   0.804  0.00  0.00    +0.057 A 
ATOM      7  O   UNL     1       6.161  -0.370   1.799  0.00  0.00    -0.282 OA
ENDROOT
BRANCH   3   8
ATOM      8  N   UNL     1       3.848  -1.955   1.701  0.00  0.00    +0.060 N 
ATOM      9  O   UNL     1       2.821  -2.607   1.647  0.00  0.00    -0.126 OA
ATOM     10  O   UNL     1       4.896  -2.494   2.011  0.00  0.00    -0.126 OA
ENDBRANCH   3   8
BRANCH   1  12
ATOM     11  C   UNL     1       0.168   1.687   0.924  0.00  0.00    +0.114 C 
ATOM     12  C   UNL     1       1.355   2.118   0.373  0.00  0.00    +0.032 C 
BRANCH  11  14
ATOM     13  N   UNL     1      -2.274   1.695   0.858  0.00  0.00    -0.297 N 
ATOM     14  C   UNL     1      -1.110   2.227   0.434  0.00  0.00    +0.257 C 
ATOM     15  O   UNL     1      -1.116   3.153  -0.354  0.00  0.00    -0.269 OA
BRANCH  13  17
ATOM     16  C   UNL     1      -4.034   1.690  -0.839  0.00  0.00    +0.024 C 
ATOM     17  C   UNL     1      -3.545   2.311   0.471  0.00  0.00    +0.105 C 
ENDBRANCH  13  17
BRANCH  13  18
ATOM     18  C   UNL     1      -2.267   0.501   1.707  0.00  0.00    +0.105 C 
ATOM     19  C   UNL     1      -2.142   0.918   3.174  0.00  0.00    +0.024 C 
ENDBRANCH  13  18
ENDBRANCH  11  14
BRANCH  11  20
ATOM     20  C   UNL     1       0.177   0.710   1.971  0.00  0.00    +0.104 C 
ATOM     21  N   UNL     1       0.185  -0.066   2.801  0.00  0.00    -0.191 NA
ENDBRANCH  11  20
ENDBRANCH   1  12
BRANCH   5  22
ATOM     22  O   UNL     1       6.132   2.320   1.223  0.00  0.00    -0.457 OA
BRANCH  22  23
ATOM     23  C   UNL     1       6.043   3.712   0.912  0.00  0.00    +0.340 C 
ATOM     24  C   UNL     1       7.401   4.377   1.155  0.00  0.00    +0.214 C 
ATOM     25  C   UNL     1       7.314   5.855   0.762  0.00  0.00    +0.180 C 
ATOM     26  C   UNL     1       6.869   5.958  -0.700  0.00  0.00    +0.186 C 
ATOM     27  C   UNL     1       5.532   5.232  -0.871  0.00  0.00    +0.266 C 
ATOM     28  O   UNL     1       5.675   3.871  -0.460  0.00  0.00    -0.322 OA
BRANCH  27  29
ATOM     29  C   UNL     1       5.117   5.278  -2.319  0.00  0.00    +0.387 C 
ATOM     30  O   UNL     1       5.046   4.257  -2.960  0.00  0.00    -0.243 OA
ATOM     31  O   UNL     1       4.826   6.455  -2.897  0.00  0.00    -0.243 OA
ENDBRANCH  27  29
BRANCH  26  32
ATOM     32  O   UNL     1       6.716   7.333  -1.056  0.00  0.00    -0.386 OA
ATOM     33  H   UNL     1       6.400   7.606  -2.074  0.00  0.00    +0.210 HD
ENDBRANCH  26  32
BRANCH  25  34
ATOM     34  O   UNL     1       8.596   6.467   0.917  0.00  0.00    -0.386 OA
ATOM     35  H   UNL     1       8.729   7.533   0.680  0.00  0.00    +0.210 HD
ENDBRANCH  25  34
BRANCH  24  36
ATOM     36  O   UNL     1       8.398   3.730   0.362  0.00  0.00    -0.383 OA
ATOM     37  H   UNL     1       9.442   4.073   0.405  0.00  0.00    +0.210 HD
ENDBRANCH  24  36
ENDBRANCH  22  23
ENDBRANCH   5  22
TORSDOF 12
