REMARK  Name = ZINC35095794
REMARK  14 active torsions:
REMARK  status: ('A' for Active; 'I' for Inactive)
REMARK    1  A    between atoms: C_1  and  C_2
REMARK    2  A    between atoms: C_2  and  C_3
REMARK    3  A    between atoms: C_6  and  C_9
REMARK    4  A    between atoms: N_14  and  C_17
REMARK    5  A    between atoms: C_17  and  C_18
REMARK    6  A    between atoms: C_18  and  N_19
REMARK    7  A    between atoms: N_19  and  C_20
REMARK    8  A    between atoms: N_19  and  C_29
REMARK    9  A    between atoms: C_20  and  C_21
REMARK   10  A    between atoms: C_21  and  C_22
REMARK   11  A    between atoms: C_22  and  C_23
REMARK   12  A    between atoms: C_29  and  C_30
REMARK   13  A    between atoms: C_38  and  C_39
REMARK   14  A    between atoms: C_38  and  C_40
REMARK                            x       y       z     vdW  Elec       q    Type
REMARK                         _______ _______ _______ _____ _____    ______ ____
ROOT
ATOM      1  N   UNL     1       0.666   0.022  12.910  0.00  0.00    +0.383 N 
ATOM      2  H   UNL     1       0.771   1.024  12.858  0.00  0.00    -0.081 HD
ENDROOT
BRANCH   1   3
ATOM      3  C   UNL     1       0.723  -0.546  11.556  0.00  0.00    -0.063 C 
BRANCH   3   4
ATOM      4  C   UNL     1      -0.319   0.140  10.670  0.00  0.00    +0.066 C 
BRANCH   4  10
ATOM      5  C   UNL     1       0.032  -0.146   5.263  0.00  0.00    +0.247 C 
ATOM      6  O   UNL     1       1.124  -0.104   4.731  0.00  0.00    -0.270 OA
ATOM      7  N   UNL     1      -0.080  -0.564   6.540  0.00  0.00    -0.295 N 
ATOM      8  C   UNL     1      -1.401  -0.721   7.169  0.00  0.00    +0.123 C 
ATOM      9  C   UNL     1      -1.395   0.031   8.504  0.00  0.00    +0.103 C 
ATOM     10  N   UNL     1      -0.261  -0.429   9.317  0.00  0.00    -0.301 NA
ATOM     11  C   UNL     1       1.020  -0.117   8.669  0.00  0.00    +0.103 C 
ATOM     12  C   UNL     1       1.113  -0.881   7.338  0.00  0.00    +0.123 C 
BRANCH   5  16
ATOM     13  C   UNL     1      -3.431   1.023   3.099  0.00  0.00    -0.048 A 
ATOM     14  C   UNL     1      -3.441  -0.149   3.834  0.00  0.00    +0.004 A 
ATOM     15  C   UNL     1      -2.320  -0.534   4.539  0.00  0.00    +0.013 A 
ATOM     16  C   UNL     1      -1.173   0.261   4.509  0.00  0.00    +0.037 A 
ATOM     17  C   UNL     1      -1.169   1.442   3.765  0.00  0.00    +0.013 A 
ATOM     18  C   UNL     1      -2.295   1.813   3.060  0.00  0.00    +0.004 A 
BRANCH  13  20
ATOM     19  C   UNL     1      -4.604   0.845   0.921  0.00  0.00    +0.009 C 
ATOM     20  C   UNL     1      -4.660   1.438   2.331  0.00  0.00    +0.032 C 
ENDBRANCH  13  20
ENDBRANCH   5  16
ENDBRANCH   4  10
ENDBRANCH   3   4
ENDBRANCH   1   3
BRANCH   1  21
ATOM     21  C   UNL     1       1.749  -0.543  13.725  0.00  0.00    -0.078 C 
BRANCH  21  22
ATOM     22  C   UNL     1       1.780   0.153  15.086  0.00  0.00    -0.014 C 
BRANCH  22  23
ATOM     23  C   UNL     1       2.987  -0.341  15.885  0.00  0.00    +0.033 C 
BRANCH  23  24
ATOM     24  C   UNL     1       2.952   0.254  17.269  0.00  0.00    -0.047 A 
ATOM     25  C   UNL     1       3.482   1.510  17.496  0.00  0.00    +0.003 A 
ATOM     26  C   UNL     1       3.450   2.055  18.765  0.00  0.00    +0.000 A 
ATOM     27  C   UNL     1       2.886   1.345  19.809  0.00  0.00    +0.000 A 
ATOM     28  C   UNL     1       2.355   0.089  19.582  0.00  0.00    +0.000 A 
ATOM     29  C   UNL     1       2.384  -0.455  18.311  0.00  0.00    +0.003 A 
ENDBRANCH  23  24
ENDBRANCH  22  23
ENDBRANCH  21  22
ENDBRANCH   1  21
BRANCH   1  30
ATOM     30  C   UNL     1      -0.629  -0.303  13.523  0.00  0.00    -0.047 C 
BRANCH  30  31
ATOM     31  C   UNL     1      -0.795  -1.799  13.583  0.00  0.00    -0.086 C 
ATOM     32  C   UNL     1      -0.462  -2.480  14.656  0.00  0.00    -0.029 C 
ATOM     33  C   UNL     1      -0.637  -3.979  14.672  0.00  0.00    +0.031 C 
ATOM     34  C   UNL     1      -1.286  -4.439  13.359  0.00  0.00    -0.000 C 
ATOM     35  C   UNL     1      -2.472  -3.554  12.938  0.00  0.00    +0.012 C 
ATOM     36  C   UNL     1      -1.360  -2.578  12.408  0.00  0.00    +0.019 C 
ATOM     37  C   UNL     1      -0.536  -3.857  12.144  0.00  0.00    -0.025 C 
ATOM     38  C   UNL     1      -0.872  -4.547  10.820  0.00  0.00    +0.012 C 
ATOM     39  C   UNL     1       0.968  -3.686  12.367  0.00  0.00    +0.012 C 
ENDBRANCH  30  31
ENDBRANCH   1  30
TORSDOF 11
