REMARK  Name = ZINC39682351
REMARK  8 active torsions:
REMARK  status: ('A' for Active; 'I' for Inactive)
REMARK    1  A    between atoms: C_4  and  C_7
REMARK    2  A    between atoms: C_7  and  C_9
REMARK    3  A    between atoms: C_7  and  N_13
REMARK    4  A    between atoms: C_9  and  C_10
REMARK    5  A    between atoms: C_14  and  C_16
REMARK    6  A    between atoms: C_27  and  C_29
REMARK    7  A    between atoms: C_32  and  O_35
REMARK    8  A    between atoms: O_35  and  C_36
REMARK                            x       y       z     vdW  Elec       q    Type
REMARK                         _______ _______ _______ _____ _____    ______ ____
ROOT
ATOM      1  C   UNL     1       4.637  -4.499  -1.967  0.00  0.00    +0.100 C 
ATOM      2  C   UNL     1       3.787  -3.945  -3.133  0.00  0.00    +0.121 C 
ATOM      3  N   UNL     1       4.779  -3.506  -4.143  0.00  0.00    -0.296 N 
ATOM      4  C   UNL     1       5.831  -4.550  -4.104  0.00  0.00    +0.115 C 
ATOM      5  C   UNL     1       5.976  -4.898  -2.609  0.00  0.00    -0.004 C 
ATOM      6  C   UNL     1       7.118  -4.098  -1.991  0.00  0.00    -0.010 C 
ATOM      7  C   UNL     1       8.445  -4.553  -2.605  0.00  0.00    -0.082 C 
ATOM      8  N   UNL     1       8.635  -5.987  -2.357  0.00  0.00    +0.379 N 
ATOM      9  C   UNL     1       7.584  -6.756  -3.033  0.00  0.00    -0.082 C 
ATOM     10  C   UNL     1       6.220  -6.394  -2.437  0.00  0.00    -0.010 C 
ATOM     11  C   UNL     1       4.734  -2.407  -4.922  0.00  0.00    +0.247 C 
ATOM     12  O   UNL     1       3.850  -1.587  -4.766  0.00  0.00    -0.270 OA
ATOM     13  H   UNL     1       9.537  -6.271  -2.709  0.00  0.00    -0.086 HD
ATOM     14  H   UNL     1       8.594  -6.163  -1.364  0.00  0.00    -0.086 HD
ENDROOT
BRANCH  11  15
ATOM     15  C   UNL     1       5.758  -2.199  -5.965  0.00  0.00    +0.037 A 
ATOM     16  C   UNL     1       6.501  -3.282  -6.442  0.00  0.00    +0.016 A 
ATOM     17  C   UNL     1       7.455  -3.083  -7.415  0.00  0.00    +0.047 A 
ATOM     18  C   UNL     1       7.679  -1.809  -7.922  0.00  0.00    +0.130 A 
ATOM     19  C   UNL     1       6.941  -0.729  -7.450  0.00  0.00    +0.047 A 
ATOM     20  C   UNL     1       5.982  -0.920  -6.481  0.00  0.00    +0.016 A 
BRANCH  18  21
ATOM     21  O   UNL     1       8.621  -1.617  -8.880  0.00  0.00    -0.406 OA
BRANCH  21  22
ATOM     22  C   UNL     1       8.799  -0.282  -9.357  0.00  0.00    +0.575 C 
ATOM     23  F   UNL     1       9.171   0.547  -8.293  0.00  0.00    -0.133 F 
ATOM     24  F   UNL     1       9.801  -0.265 -10.334  0.00  0.00    -0.133 F 
ATOM     25  F   UNL     1       7.600   0.180  -9.911  0.00  0.00    -0.133 F 
ENDBRANCH  21  22
ENDBRANCH  18  21
ENDBRANCH  11  15
BRANCH   1  27
ATOM     26  N   UNL     1       5.073  -3.784   0.360  0.00  0.00    -0.308 N 
ATOM     27  C   UNL     1       4.853  -3.434  -0.923  0.00  0.00    +0.219 C 
ATOM     28  O   UNL     1       4.827  -2.263  -1.236  0.00  0.00    -0.275 OA
ATOM     29  H   UNL     1       5.020  -4.715   0.625  0.00  0.00    +0.149 HD
BRANCH  26  30
ATOM     30  C   UNL     1       5.395  -2.756   1.354  0.00  0.00    +0.114 C 
BRANCH  30  34
ATOM     31  C   UNL     1       4.267  -4.133   5.237  0.00  0.00    +0.000 A 
ATOM     32  C   UNL     1       4.050  -2.815   4.881  0.00  0.00    +0.000 A 
ATOM     33  C   UNL     1       4.415  -2.369   3.625  0.00  0.00    +0.005 A 
ATOM     34  C   UNL     1       4.997  -3.242   2.724  0.00  0.00    -0.027 A 
ATOM     35  C   UNL     1       5.215  -4.560   3.081  0.00  0.00    +0.005 A 
ATOM     36  C   UNL     1       4.848  -5.005   4.337  0.00  0.00    +0.000 A 
ENDBRANCH  30  34
BRANCH  30  37
ATOM     37  C   UNL     1       6.898  -2.475   1.329  0.00  0.00    +0.152 C 
BRANCH  37  38
ATOM     38  C   UNL     1       7.210  -1.326   2.253  0.00  0.00    +0.358 C 
ATOM     39  O   UNL     1       6.303  -0.701   2.776  0.00  0.00    -0.246 OA
ATOM     40  O   UNL     1       8.369  -1.022   2.479  0.00  0.00    -0.246 OA
ENDBRANCH  37  38
ENDBRANCH  30  37
ENDBRANCH  26  30
ENDBRANCH   1  27
TORSDOF 8
