REMARK  Name = ZINC39666166
REMARK  9 active torsions:
REMARK  status: ('A' for Active; 'I' for Inactive)
REMARK    1  A    between atoms: C_1  and  C_2
REMARK    2  A    between atoms: C_5  and  O_8
REMARK    3  A    between atoms: O_8  and  C_9
REMARK    4  A    between atoms: C_9  and  C_11
REMARK    5  A    between atoms: C_9  and  C_12
REMARK    6  A    between atoms: C_12  and  N_13
REMARK    7  A    between atoms: C_14  and  C_16
REMARK    8  A    between atoms: C_27  and  C_29
REMARK    9  A    between atoms: C_34  and  C_35
REMARK                            x       y       z     vdW  Elec       q    Type
REMARK                         _______ _______ _______ _____ _____    ______ ____
ROOT
ATOM      1  C   UNL     1       5.227  -7.189   0.019  0.00  0.00    +0.100 C 
ATOM      2  C   UNL     1       5.894  -6.328   1.116  0.00  0.00    +0.121 C 
ATOM      3  N   UNL     1       6.678  -7.292   1.923  0.00  0.00    -0.296 N 
ATOM      4  C   UNL     1       7.251  -8.228   0.926  0.00  0.00    +0.115 C 
ATOM      5  C   UNL     1       6.123  -8.433  -0.105  0.00  0.00    -0.004 C 
ATOM      6  C   UNL     1       5.328  -9.692   0.228  0.00  0.00    -0.010 C 
ATOM      7  C   UNL     1       6.224 -10.920   0.043  0.00  0.00    -0.082 C 
ATOM      8  N   UNL     1       6.704 -10.972  -1.343  0.00  0.00    +0.379 N 
ATOM      9  C   UNL     1       7.545  -9.803  -1.627  0.00  0.00    -0.082 C 
ATOM     10  C   UNL     1       6.705  -8.528  -1.512  0.00  0.00    -0.010 C 
ATOM     11  C   UNL     1       6.835  -7.313   3.262  0.00  0.00    +0.247 C 
ATOM     12  O   UNL     1       7.444  -8.224   3.788  0.00  0.00    -0.270 OA
ATOM     13  H   UNL     1       7.244 -11.814  -1.479  0.00  0.00    -0.086 HD
ATOM     14  H   UNL     1       5.915 -10.977  -1.971  0.00  0.00    -0.086 HD
ENDROOT
BRANCH  11  15
ATOM     15  C   UNL     1       6.268  -6.227   4.090  0.00  0.00    +0.043 A 
ATOM     16  C   UNL     1       6.252  -4.916   3.611  0.00  0.00    +0.051 A 
ATOM     17  C   UNL     1       5.720  -3.907   4.391  0.00  0.00    +0.124 A 
ATOM     18  C   UNL     1       5.204  -4.195   5.644  0.00  0.00    +0.038 A 
ATOM     19  C   UNL     1       5.217  -5.493   6.122  0.00  0.00    +0.007 A 
ATOM     20  C   UNL     1       5.741  -6.510   5.351  0.00  0.00    -0.038 A 
ATOM     21  C   UNL     1       5.749  -7.924   5.872  0.00  0.00    +0.044 C 
ATOM     22  F   UNL     1       5.704  -2.637   3.930  0.00  0.00    -0.205 F 
ENDBRANCH  11  15
BRANCH   1  24
ATOM     23  N   UNL     1       2.896  -7.832  -0.499  0.00  0.00    -0.312 N 
ATOM     24  C   UNL     1       3.834  -7.584   0.436  0.00  0.00    +0.218 C 
ATOM     25  O   UNL     1       3.558  -7.680   1.613  0.00  0.00    -0.275 OA
ATOM     26  H   UNL     1       3.117  -7.755  -1.440  0.00  0.00    +0.149 HD
BRANCH  23  27
ATOM     27  C   UNL     1       1.541  -8.216  -0.093  0.00  0.00    +0.148 C 
BRANCH  27  28
ATOM     28  C   UNL     1       0.680  -8.437  -1.338  0.00  0.00    +0.187 C 
ATOM     29  C   UNL     1      -0.764  -8.716  -0.916  0.00  0.00    +0.053 C 
BRANCH  28  30
ATOM     30  O   UNL     1       1.185  -9.552  -2.075  0.00  0.00    -0.488 OA
BRANCH  30  35
ATOM     31  C   UNL     1       0.063  -9.689  -7.593  0.00  0.00    +0.044 C 
ATOM     32  C   UNL     1       0.363  -9.653  -6.117  0.00  0.00    -0.050 A 
ATOM     33  C   UNL     1      -0.186  -8.660  -5.325  0.00  0.00    +0.007 A 
ATOM     34  C   UNL     1       0.088  -8.624  -3.972  0.00  0.00    +0.046 A 
ATOM     35  C   UNL     1       0.913  -9.586  -3.406  0.00  0.00    +0.121 A 
ATOM     36  C   UNL     1       1.462 -10.581  -4.203  0.00  0.00    +0.046 A 
ATOM     37  C   UNL     1       1.181 -10.615  -5.555  0.00  0.00    +0.007 A 
ENDBRANCH  30  35
ENDBRANCH  28  30
ENDBRANCH  27  28
ENDBRANCH  23  27
ENDBRANCH   1  24
TORSDOF 6
