REMARK  Name = ZINC00954635
REMARK  6 active torsions:
REMARK  status: ('A' for Active; 'I' for Inactive)
REMARK    1  A    between atoms: C_1  and  C_2
REMARK    2  A    between atoms: C_5  and  C_8
REMARK    3  A    between atoms: C_8  and  C_10
REMARK    4  A    between atoms: C_12  and  C_24
REMARK    5  A    between atoms: C_18  and  C_19
REMARK    6  A    between atoms: C_18  and  O_23
REMARK                            x       y       z     vdW  Elec       q    Type
REMARK                         _______ _______ _______ _____ _____    ______ ____
ROOT
ATOM      1  C   UNL     1      -1.258   2.536   0.828  0.00  0.00    +0.144 C 
ATOM      2  C   UNL     1      -2.200   1.451   1.362  0.00  0.00    +0.120 C 
ATOM      3  N   UNL     1      -3.266   1.218   0.386  0.00  0.00    -0.292 N 
ATOM      4  C   UNL     1      -3.065   1.412  -0.926  0.00  0.00    +0.302 C 
ATOM      5  O   UNL     1      -3.981   1.194  -1.695  0.00  0.00    -0.253 OA
ATOM      6  N   UNL     1      -1.893   1.837  -1.424  0.00  0.00    -0.264 N 
ATOM      7  C   UNL     1      -0.749   2.105  -0.551  0.00  0.00    +0.243 C 
ATOM      8  H   UNL     1      -4.135   0.918   0.694  0.00  0.00    +0.151 HD
ATOM      9  H   UNL     1      -1.802   1.970  -2.381  0.00  0.00    +0.153 HD
ENDROOT
BRANCH   2  10
ATOM     10  C   UNL     1      -2.801   1.903   2.668  0.00  0.00    -0.025 A 
ATOM     11  C   UNL     1      -3.992   2.605   2.674  0.00  0.00    +0.007 A 
ATOM     12  C   UNL     1      -4.544   3.020   3.871  0.00  0.00    +0.022 A 
ATOM     13  C   UNL     1      -3.905   2.734   5.064  0.00  0.00    +0.059 A 
ATOM     14  C   UNL     1      -2.712   2.032   5.058  0.00  0.00    +0.060 A 
ATOM     15  C   UNL     1      -2.163   1.612   3.859  0.00  0.00    +0.027 A 
ATOM     16 CL   UNL     1      -1.908   1.672   6.554  0.00  0.00    -0.082 Cl
ATOM     17 CL   UNL     1      -4.597   3.256   6.568  0.00  0.00    -0.082 Cl
ENDBRANCH   2  10
BRANCH   7  18
ATOM     18  C   UNL     1       0.096   0.837  -0.411  0.00  0.00    +0.436 C 
ATOM     19  F   UNL     1       1.187   1.093   0.426  0.00  0.00    -0.166 F 
ATOM     20  F   UNL     1      -0.685  -0.185   0.140  0.00  0.00    -0.166 F 
ATOM     21  F   UNL     1       0.557   0.442  -1.672  0.00  0.00    -0.166 F 
ENDBRANCH   7  18
BRANCH   1  22
ATOM     22  C   UNL     1      -2.004   3.840   0.708  0.00  0.00    +0.173 C 
ATOM     23  O   UNL     1      -3.175   3.841   0.393  0.00  0.00    -0.292 OA
BRANCH  22  28
ATOM     24  C   UNL     1       0.699   8.806   1.744  0.00  0.00    +0.044 C 
ATOM     25  C   UNL     1      -0.009   7.504   1.472  0.00  0.00    -0.050 A 
ATOM     26  C   UNL     1      -1.346   7.510   1.111  0.00  0.00    +0.004 A 
ATOM     27  C   UNL     1      -2.001   6.323   0.862  0.00  0.00    +0.011 A 
ATOM     28  C   UNL     1      -1.312   5.111   0.973  0.00  0.00    +0.018 A 
ATOM     29  C   UNL     1       0.037   5.113   1.342  0.00  0.00    +0.011 A 
ATOM     30  C   UNL     1       0.679   6.309   1.583  0.00  0.00    +0.004 A 
ENDBRANCH  22  28
ENDBRANCH   1  22
BRANCH   7  31
ATOM     31  O   UNL     1       0.048   3.149  -1.114  0.00  0.00    -0.364 OA
ATOM     32  H   UNL     1       0.402   2.945  -1.990  0.00  0.00    +0.212 HD
ENDBRANCH   7  31
TORSDOF 5
