REMARK  Name = ZINC32622349
REMARK  10 active torsions:
REMARK  status: ('A' for Active; 'I' for Inactive)
REMARK    1  A    between atoms: C_1  and  N_2
REMARK    2  A    between atoms: N_2  and  C_3
REMARK    3  A    between atoms: N_2  and  C_4
REMARK    4  A    between atoms: C_4  and  C_6
REMARK    5  A    between atoms: C_4  and  C_22
REMARK    6  A    between atoms: C_6  and  N_7
REMARK    7  A    between atoms: C_8  and  C_10
REMARK    8  A    between atoms: C_12  and  C_15
REMARK    9  A    between atoms: C_25  and  O_28
REMARK   10  A    between atoms: O_28  and  C_29
REMARK                            x       y       z     vdW  Elec       q    Type
REMARK                         _______ _______ _______ _____ _____    ______ ____
ROOT
ATOM      1  N   UNL     1       4.984  -0.560  -0.769  0.00  0.00    -0.311 N 
ATOM      2  C   UNL     1       5.007   0.701  -1.245  0.00  0.00    +0.266 C 
ATOM      3  O   UNL     1       6.060   1.302  -1.323  0.00  0.00    -0.268 OA
ATOM      4  H   UNL     1       4.031  -1.104  -0.699  0.00  0.00    +0.149 HD
ENDROOT
BRANCH   2   5
ATOM      5  C   UNL     1       3.747   1.354  -1.676  0.00  0.00    +0.168 A 
ATOM      6  C   UNL     1       3.604   2.667  -2.196  0.00  0.00    +0.086 A 
ATOM      7  C   UNL     1       2.262   2.779  -2.433  0.00  0.00    +0.168 A 
ATOM      8  O   UNL     1       1.713   1.608  -2.066  0.00  0.00    -0.354 OA
ATOM      9  N   UNL     1       2.544   0.834  -1.651  0.00  0.00    -0.073 NA
BRANCH   7  10
ATOM     10  C   UNL     1       1.556   3.954  -2.988  0.00  0.00    +0.020 A 
ATOM     11  C   UNL     1       2.267   5.108  -3.318  0.00  0.00    +0.013 A 
ATOM     12  C   UNL     1       1.604   6.198  -3.841  0.00  0.00    +0.016 A 
ATOM     13  C   UNL     1       0.233   6.153  -4.027  0.00  0.00    +0.018 A 
ATOM     14  C   UNL     1      -0.480   5.013  -3.696  0.00  0.00    +0.016 A 
ATOM     15  C   UNL     1       0.173   3.914  -3.178  0.00  0.00    +0.013 A 
ATOM     16 BR   UNL     1      -0.671   7.656  -4.736  0.00  0.00    -0.050 Br
ENDBRANCH   7  10
ENDBRANCH   2   5
BRANCH   1  17
ATOM     17  C   UNL     1       6.229  -1.205  -0.344  0.00  0.00    +0.094 C 
BRANCH  17  18
ATOM     18  C   UNL     1       5.914  -2.581   0.247  0.00  0.00    -0.021 C 
BRANCH  18  19
ATOM     19  C   UNL     1       7.196  -3.255   0.663  0.00  0.00    -0.059 A 
ATOM     20  C   UNL     1       8.090  -3.690  -0.298  0.00  0.00    +0.005 A 
ATOM     21  C   UNL     1       9.269  -4.303   0.080  0.00  0.00    +0.046 A 
ATOM     22  C   UNL     1       9.550  -4.492   1.426  0.00  0.00    +0.120 A 
ATOM     23  C   UNL     1       8.649  -4.059   2.388  0.00  0.00    +0.046 A 
ATOM     24  C   UNL     1       7.475  -3.441   2.004  0.00  0.00    +0.005 A 
BRANCH  22  25
ATOM     25  O   UNL     1      10.706  -5.100   1.800  0.00  0.00    -0.495 OA
ATOM     26  C   UNL     1      11.586  -5.520   0.756  0.00  0.00    +0.277 C 
ENDBRANCH  22  25
ENDBRANCH  18  19
BRANCH  18  28
ATOM     27  C   UNL     1       5.625  -3.002  -2.120  0.00  0.00    -0.096 C 
ATOM     28  N   UNL     1       5.233  -3.403  -0.762  0.00  0.00    +0.382 N 
ATOM     29  C   UNL     1       5.494  -4.832  -0.539  0.00  0.00    -0.096 C 
ATOM     30  H   UNL     1       4.151  -3.237  -0.659  0.00  0.00    -0.082 HD
ENDBRANCH  18  28
ENDBRANCH  17  18
ENDBRANCH   1  17
TORSDOF 7
