REMARK  Name = ZINC54805831
REMARK  8 active torsions:
REMARK  status: ('A' for Active; 'I' for Inactive)
REMARK    1  A    between atoms: C_1  and  C_2
REMARK    2  A    between atoms: N_6  and  C_8
REMARK    3  A    between atoms: C_8  and  C_9
REMARK    4  A    between atoms: C_8  and  C_10
REMARK    5  A    between atoms: C_8  and  C_11
REMARK    6  A    between atoms: C_11  and  N_12
REMARK    7  A    between atoms: N_15  and  C_16
REMARK    8  A    between atoms: C_16  and  C_17
REMARK                            x       y       z     vdW  Elec       q    Type
REMARK                         _______ _______ _______ _____ _____    ______ ____
ROOT
ATOM      1  N   UNL     1       2.244  -4.464   1.168  0.00  0.00    -0.301 N 
ATOM      2  C   UNL     1       2.354  -5.786   0.927  0.00  0.00    +0.300 C 
ATOM      3  O   UNL     1       1.942  -6.589   1.741  0.00  0.00    -0.253 OA
ATOM      4  N   UNL     1       2.920  -6.217  -0.217  0.00  0.00    -0.295 N 
ATOM      5  H   UNL     1       2.573  -3.824   0.519  0.00  0.00    +0.150 HD
ATOM      6  H   UNL     1       3.249  -5.576  -0.867  0.00  0.00    +0.151 HD
ENDROOT
BRANCH   1   7
ATOM      7  C   UNL     1       1.628  -3.995   2.412  0.00  0.00    +0.093 C 
BRANCH   7   8
ATOM      8  C   UNL     1       1.628  -2.466   2.437  0.00  0.00    -0.055 C 
ATOM      9  C   UNL     1       3.068  -1.955   2.356  0.00  0.00    -0.008 C 
ATOM     10  C   UNL     1       0.985  -1.976   3.736  0.00  0.00    -0.008 C 
BRANCH   8  16
ATOM     11  C   UNL     1       0.154   1.575   0.098  0.00  0.00    +0.005 C 
ATOM     12  C   UNL     1       0.146   0.045   0.073  0.00  0.00    -0.031 C 
ATOM     13  C   UNL     1      -1.300  -0.459   0.080  0.00  0.00    -0.001 C 
ATOM     14  C   UNL     1      -1.297  -1.990   0.135  0.00  0.00    -0.018 C 
ATOM     15  C   UNL     1      -0.517  -2.449   1.368  0.00  0.00    -0.078 C 
ATOM     16  N   UNL     1       0.864  -1.958   1.290  0.00  0.00    +0.384 N 
ATOM     17  C   UNL     1       0.872  -0.490   1.310  0.00  0.00    -0.075 C 
ATOM     18  H   UNL     1       1.287  -2.284   0.434  0.00  0.00    -0.081 HD
ENDBRANCH   8  16
ENDBRANCH   7   8
ENDBRANCH   1   7
BRANCH   4  19
ATOM     19  C   UNL     1       3.039  -7.653  -0.480  0.00  0.00    +0.142 C 
BRANCH  19  20
ATOM     20  C   UNL     1       3.703  -7.866  -1.816  0.00  0.00    -0.014 A 
ATOM     21  C   UNL     1       2.939  -7.951  -2.973  0.00  0.00    +0.010 A 
ATOM     22  C   UNL     1       3.588  -8.147  -4.179  0.00  0.00    +0.042 A 
ATOM     23  C   UNL     1       4.975  -8.252  -4.192  0.00  0.00    +0.099 A 
ATOM     24  N   UNL     1       5.668  -8.166  -3.067  0.00  0.00    -0.349 N 
ATOM     25  C   UNL     1       5.076  -7.973  -1.903  0.00  0.00    +0.089 A 
ATOM     26  N   UNL     1       5.640  -8.450  -5.397  0.00  0.00    -0.317 N 
ATOM     27  C   UNL     1       7.108  -8.433  -5.453  0.00  0.00    +0.106 C 
ATOM     28  C   UNL     1       7.590  -9.726  -6.119  0.00  0.00    +0.019 C 
ATOM     29  C   UNL     1       6.910  -9.877  -7.482  0.00  0.00    +0.003 C 
ATOM     30  C   UNL     1       5.395  -9.969  -7.290  0.00  0.00    +0.019 C 
ATOM     31  C   UNL     1       4.888  -8.685  -6.637  0.00  0.00    +0.106 C 
ATOM     32  H   UNL     1       6.634  -8.242  -3.099  0.00  0.00    +0.167 HD
ENDBRANCH  19  20
ENDBRANCH   4  19
TORSDOF 5
