REMARK  Name = ZINC09936910
REMARK  18 active torsions:
REMARK  status: ('A' for Active; 'I' for Inactive)
REMARK    1  A    between atoms: C_1  and  C_2
REMARK    2  A    between atoms: C_2  and  C_3
REMARK    3  A    between atoms: C_3  and  N_75
REMARK    4  A    between atoms: C_4  and  C_5
REMARK    5  A    between atoms: C_4  and  N_75
REMARK    6  A    between atoms: C_5  and  C_6
REMARK    7  A    between atoms: C_7  and  C_8
REMARK    8  A    between atoms: C_7  and  N_75
REMARK    9  A    between atoms: C_8  and  N_9
REMARK   10  A    between atoms: C_10  and  C_12
REMARK   11  A    between atoms: C_16  and  O_36
REMARK   12  A    between atoms: C_17  and  O_34
REMARK   13  A    between atoms: N_22  and  C_33
REMARK   14  A    between atoms: C_23  and  C_25
REMARK   15  A    between atoms: C_28  and  S_31
REMARK   16  A    between atoms: S_31  and  C_32
REMARK   17  A    between atoms: O_34  and  C_35
REMARK   18  A    between atoms: O_36  and  C_37
REMARK                            x       y       z     vdW  Elec       q    Type
REMARK                         _______ _______ _______ _____ _____    ______ ____
ROOT
ATOM      1  C   UNL     1       4.032   3.563   5.016  0.00  0.00    +0.130 C 
ATOM      2  C   UNL     1       3.231   3.643   6.290  0.00  0.00    -0.018 A 
ATOM      3  C   UNL     1       2.815   2.496   6.928  0.00  0.00    +0.054 A 
ATOM      4  C   UNL     1       2.066   2.583   8.094  0.00  0.00    +0.162 A 
ATOM      5  C   UNL     1       1.730   3.829   8.622  0.00  0.00    +0.162 A 
ATOM      6  C   UNL     1       2.150   4.984   7.989  0.00  0.00    +0.062 A 
ATOM      7  C   UNL     1       2.909   4.894   6.822  0.00  0.00    +0.045 A 
ATOM      8  C   UNL     1       3.402   6.109   6.144  0.00  0.00    +0.247 C 
ATOM      9  O   UNL     1       2.956   7.201   6.440  0.00  0.00    -0.270 OA
ATOM     10  N   UNL     1       4.351   5.998   5.196  0.00  0.00    -0.292 N 
ATOM     11  C   UNL     1       5.021   4.723   4.945  0.00  0.00    +0.122 C 
ATOM     12  C   UNL     1       4.718   7.173   4.402  0.00  0.00    +0.133 C 
ENDROOT
BRANCH  11  13
ATOM     13  C   UNL     1       6.099   4.519   5.978  0.00  0.00    -0.026 A 
ATOM     14  C   UNL     1       5.860   4.850   7.299  0.00  0.00    +0.006 A 
ATOM     15  C   UNL     1       6.843   4.659   8.250  0.00  0.00    +0.015 A 
ATOM     16  C   UNL     1       8.078   4.144   7.875  0.00  0.00    +0.008 A 
ATOM     17  C   UNL     1       8.317   3.817   6.546  0.00  0.00    +0.015 A 
ATOM     18  C   UNL     1       7.327   4.006   5.602  0.00  0.00    +0.006 A 
BRANCH  16  19
ATOM     19  S   UNL     1       9.338   3.904   9.083  0.00  0.00    -0.129 S 
ATOM     20  C   UNL     1       8.573   4.461  10.631  0.00  0.00    +0.090 C 
ENDBRANCH  16  19
ENDBRANCH  11  13
BRANCH   1  22
ATOM     21  N   UNL     1       2.142   2.693   3.678  0.00  0.00    -0.317 N 
ATOM     22  C   UNL     1       3.099   3.629   3.834  0.00  0.00    +0.223 C 
ATOM     23  O   UNL     1       3.209   4.524   3.024  0.00  0.00    -0.275 OA
ATOM     24  H   UNL     1       2.054   1.977   4.327  0.00  0.00    +0.149 HD
BRANCH  21  25
ATOM     25  C   UNL     1       1.235   2.757   2.530  0.00  0.00    +0.085 C 
BRANCH  25  26
ATOM     26  C   UNL     1       0.252   1.586   2.590  0.00  0.00    -0.060 C 
BRANCH  26  27
ATOM     27  N   UNL     1      -0.669   1.676   1.437  0.00  0.00    +0.381 N 
ATOM     28  H   UNL     1      -1.075   2.619   1.408  0.00  0.00    -0.082 HD
BRANCH  27  29
ATOM     29  C   UNL     1       0.069   1.432   0.180  0.00  0.00    -0.079 C 
BRANCH  29  31
ATOM     30  C   UNL     1       1.461  -0.188  -1.116  0.00  0.00    +0.002 C 
ATOM     31  C   UNL     1       0.741   0.057   0.211  0.00  0.00    -0.022 C 
ENDBRANCH  29  31
ENDBRANCH  27  29
BRANCH  27  32
ATOM     32  C   UNL     1      -1.759   0.689   1.583  0.00  0.00    -0.079 C 
BRANCH  32  33
ATOM     33  C   UNL     1      -2.825   0.970   0.522  0.00  0.00    -0.022 C 
ATOM     34  C   UNL     1      -4.034   0.064   0.760  0.00  0.00    +0.002 C 
ENDBRANCH  32  33
ENDBRANCH  27  32
ENDBRANCH  26  27
ENDBRANCH  25  26
ENDBRANCH  21  25
ENDBRANCH   1  22
BRANCH   5  35
ATOM     35  O   UNL     1       0.990   3.909   9.760  0.00  0.00    -0.491 OA
ATOM     36  C   UNL     1       0.683   5.217  10.244  0.00  0.00    +0.277 C 
ENDBRANCH   5  35
BRANCH   4  37
ATOM     37  O   UNL     1       1.657   1.450   8.722  0.00  0.00    -0.491 OA
ATOM     38  C   UNL     1       2.035   0.207   8.127  0.00  0.00    +0.277 C 
ENDBRANCH   4  37
TORSDOF 12
