REMARK  Name = ZINC20912580
REMARK  7 active torsions:
REMARK  status: ('A' for Active; 'I' for Inactive)
REMARK    1  A    between atoms: C_1  and  C_2
REMARK    2  A    between atoms: C_2  and  C_3
REMARK    3  A    between atoms: C_2  and  N_4
REMARK    4  A    between atoms: C_6  and  C_9
REMARK    5  A    between atoms: N_23  and  C_24
REMARK    6  A    between atoms: C_24  and  C_25
REMARK    7  A    between atoms: C_30  and  C_31
REMARK                            x       y       z     vdW  Elec       q    Type
REMARK                         _______ _______ _______ _____ _____    ______ ____
ROOT
ATOM      1  C   UNL     1       3.620   4.891   0.003  0.00  0.00    +0.137 C 
ATOM      2  C   UNL     1       2.880   3.574  -0.004  0.00  0.00    +0.042 A 
ATOM      3  C   UNL     1       1.534   3.489   0.007  0.00  0.00    -0.016 A 
ATOM      4  C   UNL     1       1.185   2.074   0.002  0.00  0.00    +0.003 A 
ATOM      5  C   UNL     1      -0.016   1.362   0.009  0.00  0.00    +0.010 A 
ATOM      6  C   UNL     1       0.002  -0.004   0.002  0.00  0.00    +0.001 A 
ATOM      7  C   UNL     1       1.207  -0.694  -0.013  0.00  0.00    +0.002 A 
ATOM      8  C   UNL     1       2.404  -0.013  -0.022  0.00  0.00    +0.026 A 
ATOM      9  C   UNL     1       2.410   1.378  -0.014  0.00  0.00    +0.047 A 
ATOM     10  N   UNL     1       3.417   2.320  -0.018  0.00  0.00    -0.356 N 
ATOM     11  H   UNL     1       4.509   2.190  -0.031  0.00  0.00    +0.166 HD
ATOM     12  C   UNL     1       0.619   4.687   0.021  0.00  0.00    +0.053 C 
ATOM     13  C   UNL     1       1.448   5.918  -0.369  0.00  0.00    +0.090 C 
ATOM     14  N   UNL     1       2.685   5.947   0.424  0.00  0.00    -0.286 NA
ENDROOT
BRANCH   1  17
ATOM     15  N   UNL     1       6.786   4.613   1.791  0.00  0.00    -0.269 N 
ATOM     16  C   UNL     1       6.070   4.601   0.647  0.00  0.00    +0.114 A 
ATOM     17  C   UNL     1       4.774   4.820   0.969  0.00  0.00    +0.013 A 
ATOM     18  C   UNL     1       4.694   4.963   2.358  0.00  0.00    +0.140 A 
ATOM     19  N   UNL     1       5.899   4.840   2.852  0.00  0.00    -0.179 NA
BRANCH  15  21
ATOM     20  C   UNL     1       8.545   2.922   1.953  0.00  0.00    +0.032 C 
ATOM     21  C   UNL     1       8.233   4.419   1.904  0.00  0.00    +0.101 C 
ATOM     22  C   UNL     1       8.928   5.045   0.692  0.00  0.00    +0.032 C 
ENDBRANCH  15  21
ENDBRANCH   1  17
BRANCH  14  23
ATOM     23  C   UNL     1       3.321   7.270   0.360  0.00  0.00    +0.124 C 
BRANCH  23  24
ATOM     24  C   UNL     1       2.277   8.339   0.557  0.00  0.00    +0.007 A 
ATOM     25  C   UNL     1       1.689   9.068  -0.420  0.00  0.00    +0.110 A 
ATOM     26  N   UNL     1       0.816   9.913   0.166  0.00  0.00    -0.284 N 
ATOM     27  H   UNL     1       0.223  10.605  -0.449  0.00  0.00    +0.188 HD
ATOM     28  N   UNL     1       0.870   9.698   1.549  0.00  0.00    -0.178 NA
ATOM     29  C   UNL     1       1.741   8.750   1.782  0.00  0.00    +0.070 A 
BRANCH  29  30
ATOM     30  C   UNL     1       2.107   8.199   3.136  0.00  0.00    +0.040 C 
ATOM     31  C   UNL     1       0.863   7.605   3.799  0.00  0.00    +0.010 C 
ATOM     32  C   UNL     1       1.234   7.046   5.173  0.00  0.00    +0.001 C 
ATOM     33  C   UNL     1       1.791   8.171   6.048  0.00  0.00    +0.000 C 
ATOM     34  C   UNL     1       3.035   8.764   5.386  0.00  0.00    +0.001 C 
ATOM     35  C   UNL     1       2.664   9.324   4.011  0.00  0.00    +0.010 C 
ENDBRANCH  29  30
ENDBRANCH  23  24
ENDBRANCH  14  23
TORSDOF 5
