REMARK  Name = ZINC40319527
REMARK  12 active torsions:
REMARK  status: ('A' for Active; 'I' for Inactive)
REMARK    1  A    between atoms: C_1  and  C_2
REMARK    2  A    between atoms: C_2  and  C_4
REMARK    3  A    between atoms: C_8  and  O_10
REMARK    4  A    between atoms: O_10  and  C_11
REMARK    5  A    between atoms: C_11  and  C_12
REMARK    6  A    between atoms: C_12  and  C_14
REMARK    7  A    between atoms: C_12  and  O_37
REMARK    8  A    between atoms: C_14  and  N_15
REMARK    9  A    between atoms: N_15  and  C_16
REMARK   10  A    between atoms: N_15  and  C_29
REMARK   11  A    between atoms: C_16  and  C_17
REMARK   12  A    between atoms: C_20  and  C_22
REMARK                            x       y       z     vdW  Elec       q    Type
REMARK                         _______ _______ _______ _____ _____    ______ ____
ROOT
ATOM      1  N   UNL     1      -4.873  -8.712  -0.106  0.00  0.00    +0.389 N 
ATOM      2  H   UNL     1      -4.777  -9.277  -0.936  0.00  0.00    -0.081 HD
ENDROOT
BRANCH   1   3
ATOM      3  C   UNL     1      -4.092  -9.308   0.986  0.00  0.00    -0.045 C 
ATOM      4  C   UNL     1      -4.194 -10.841   0.920  0.00  0.00    +0.009 C 
ATOM      5  C   UNL     1      -3.653 -11.462   2.231  0.00  0.00    +0.164 C 
ATOM      6  S   UNL     1      -3.973 -10.139   3.467  0.00  0.00    -0.033 S 
ATOM      7  O   UNL     1      -2.732  -9.686   3.991  0.00  0.00    -0.174 OA
ATOM      8  O   UNL     1      -4.990 -10.575   4.358  0.00  0.00    -0.174 OA
ATOM      9  C   UNL     1      -4.664  -8.843   2.355  0.00  0.00    +0.151 C 
ENDBRANCH   1   3
BRANCH   1  10
ATOM     10  C   UNL     1      -4.379  -7.356  -0.378  0.00  0.00    -0.043 C 
BRANCH  10  11
ATOM     11  C   UNL     1      -2.957  -7.433  -0.936  0.00  0.00    +0.135 C 
BRANCH  11  12
ATOM     12  O   UNL     1      -2.961  -8.188  -2.149  0.00  0.00    -0.390 OA
ATOM     13  H   UNL     1      -3.520  -7.813  -2.844  0.00  0.00    +0.210 HD
ENDBRANCH  11  12
BRANCH  11  14
ATOM     14  C   UNL     1      -2.441  -6.020  -1.216  0.00  0.00    +0.258 C 
BRANCH  14  15
ATOM     15  O   UNL     1      -1.074  -6.085  -1.627  0.00  0.00    -0.489 OA
BRANCH  15  20
ATOM     16  C   UNL     1       1.491  -3.684  -2.616  0.00  0.00    +0.021 A 
ATOM     17  C   UNL     1       0.775  -2.488  -2.502  0.00  0.00    +0.011 A 
ATOM     18  C   UNL     1      -0.544  -2.511  -2.100  0.00  0.00    +0.004 A 
ATOM     19  C   UNL     1      -1.162  -3.714  -1.807  0.00  0.00    +0.046 A 
ATOM     20  C   UNL     1      -0.460  -4.907  -1.916  0.00  0.00    +0.121 A 
ATOM     21  C   UNL     1       0.862  -4.898  -2.325  0.00  0.00    +0.057 A 
BRANCH  16  23
ATOM     22  C   UNL     1       3.573  -2.354  -3.358  0.00  0.00    +0.091 C 
ATOM     23  C   UNL     1       2.898  -3.665  -3.045  0.00  0.00    +0.160 C 
ATOM     24  O   UNL     1       3.515  -4.704  -3.148  0.00  0.00    -0.292 OA
ENDBRANCH  16  23
ENDBRANCH  15  20
ENDBRANCH  14  15
ENDBRANCH  11  14
ENDBRANCH  10  11
ENDBRANCH   1  10
BRANCH   1  25
ATOM     25  C   UNL     1      -6.289  -8.649   0.282  0.00  0.00    -0.003 C 
BRANCH  25  26
ATOM     26  C   UNL     1      -6.833 -10.047   0.425  0.00  0.00    +0.089 A 
ATOM     27  C   UNL     1      -7.203 -10.631   1.582  0.00  0.00    +0.043 A 
ATOM     28  C   UNL     1      -7.649 -11.929   1.264  0.00  0.00    +0.050 A 
ATOM     29  C   UNL     1      -7.526 -12.068  -0.083  0.00  0.00    +0.135 A 
ATOM     30  O   UNL     1      -7.034 -10.916  -0.579  0.00  0.00    -0.462 OA
BRANCH  29  31
ATOM     31  C   UNL     1      -7.875 -13.271  -0.867  0.00  0.00    +0.017 A 
ATOM     32  C   UNL     1      -8.388 -14.400  -0.226  0.00  0.00    +0.014 A 
ATOM     33  C   UNL     1      -8.712 -15.520  -0.962  0.00  0.00    +0.039 A 
ATOM     34  C   UNL     1      -8.528 -15.526  -2.336  0.00  0.00    +0.123 A 
ATOM     35  C   UNL     1      -8.019 -14.408  -2.977  0.00  0.00    +0.039 A 
ATOM     36  C   UNL     1      -7.697 -13.281  -2.251  0.00  0.00    +0.014 A 
ATOM     37  F   UNL     1      -8.847 -16.627  -3.052  0.00  0.00    -0.205 F 
ENDBRANCH  29  31
ENDBRANCH  25  26
ENDBRANCH   1  25
TORSDOF 11
