REMARK  Name = ZINC22063251
REMARK  12 active torsions:
REMARK  status: ('A' for Active; 'I' for Inactive)
REMARK    1  A    between atoms: C_1  and  C_2
REMARK    2  A    between atoms: C_2  and  C_4
REMARK    3  A    between atoms: C_2  and  N_14
REMARK    4  A    between atoms: C_7  and  S_10
REMARK    5  A    between atoms: S_10  and  N_13
REMARK    6  A    between atoms: N_14  and  C_15
REMARK    7  A    between atoms: N_14  and  C_16
REMARK    8  A    between atoms: C_16  and  C_17
REMARK    9  A    between atoms: N_19  and  C_20
REMARK   10  A    between atoms: C_20  and  C_21
REMARK   11  A    between atoms: C_26  and  O_27
REMARK   12  A    between atoms: O_27  and  C_28
REMARK                            x       y       z     vdW  Elec       q    Type
REMARK                         _______ _______ _______ _____ _____    ______ ____
ROOT
ATOM      1  N   UNL     1      -6.865   2.363   2.850  0.00  0.00    +0.388 N 
ATOM      2  C   UNL     1      -6.718   3.191   1.645  0.00  0.00    -0.095 C 
ATOM      3  H   UNL     1      -7.155   3.024   3.680  0.00  0.00    -0.081 HD
ENDROOT
BRANCH   1   5
ATOM      4  C   UNL     1      -9.246   2.070   2.360  0.00  0.00    -0.008 C 
ATOM      5  C   UNL     1      -7.927   1.363   2.676  0.00  0.00    -0.041 C 
BRANCH   5   6
ATOM      6  C   UNL     1      -8.076   0.564   3.944  0.00  0.00    -0.061 A 
ATOM      7  C   UNL     1      -8.111   1.207   5.167  0.00  0.00    +0.004 A 
ATOM      8  C   UNL     1      -8.253   0.474   6.330  0.00  0.00    +0.029 A 
ATOM      9  C   UNL     1      -8.350  -0.904   6.271  0.00  0.00    +0.105 A 
ATOM     10  C   UNL     1      -8.311  -1.548   5.049  0.00  0.00    +0.029 A 
ATOM     11  C   UNL     1      -8.174  -0.814   3.885  0.00  0.00    +0.004 A 
BRANCH   9  12
ATOM     12  S   UNL     1      -8.524  -1.839   7.755  0.00  0.00    +0.056 S 
ATOM     13  O   UNL     1      -9.082  -0.963   8.724  0.00  0.00    -0.153 OA
ATOM     14  O   UNL     1      -9.142  -3.066   7.391  0.00  0.00    -0.153 OA
BRANCH  12  15
ATOM     15  N   UNL     1      -6.999  -2.214   8.278  0.00  0.00    -0.204 NA
ATOM     16  H   UNL     1      -7.064  -2.801   9.207  0.00  0.00    +0.144 HD
ATOM     17  H   UNL     1      -6.438  -1.287   8.469  0.00  0.00    +0.144 HD
ENDBRANCH  12  15
ENDBRANCH   9  12
ENDBRANCH   5   6
ENDBRANCH   1   5
BRANCH   1  18
ATOM     18  C   UNL     1      -5.592   1.723   3.207  0.00  0.00    +0.019 C 
BRANCH  18  19
ATOM     19  C   UNL     1      -4.596   2.778   3.615  0.00  0.00    +0.197 C 
ATOM     20  O   UNL     1      -4.915   3.948   3.609  0.00  0.00    -0.278 OA
ATOM     21  N   UNL     1      -3.351   2.421   3.987  0.00  0.00    -0.313 N 
ATOM     22  H   UNL     1      -3.061   1.359   3.992  0.00  0.00    +0.149 HD
BRANCH  21  23
ATOM     23  C   UNL     1      -2.383   3.446   4.384  0.00  0.00    +0.143 C 
BRANCH  23  24
ATOM     24  C   UNL     1      -1.077   2.789   4.750  0.00  0.00    +0.012 A 
ATOM     25  C   UNL     1      -0.756   2.581   6.078  0.00  0.00    +0.009 A 
ATOM     26  C   UNL     1       0.441   1.978   6.415  0.00  0.00    +0.001 A 
ATOM     27  C   UNL     1       1.321   1.581   5.424  0.00  0.00    +0.004 A 
ATOM     28  C   UNL     1       1.003   1.782   4.095  0.00  0.00    +0.046 A 
ATOM     29  C   UNL     1      -0.196   2.392   3.755  0.00  0.00    +0.135 A 
BRANCH  29  30
ATOM     30  O   UNL     1      -0.509   2.596   2.448  0.00  0.00    -0.405 OA
BRANCH  30  31
ATOM     31  C   UNL     1       0.445   2.162   1.477  0.00  0.00    +0.575 C 
ATOM     32  F   UNL     1       0.647   0.783   1.605  0.00  0.00    -0.133 F 
ATOM     33  F   UNL     1       1.657   2.831   1.682  0.00  0.00    -0.133 F 
ATOM     34  F   UNL     1      -0.033   2.446   0.194  0.00  0.00    -0.133 F 
ENDBRANCH  30  31
ENDBRANCH  29  30
ENDBRANCH  23  24
ENDBRANCH  21  23
ENDBRANCH  18  19
ENDBRANCH   1  18
TORSDOF 10
