REMARK  Name = ZINC09542212
REMARK  10 active torsions:
REMARK  status: ('A' for Active; 'I' for Inactive)
REMARK    1  A    between atoms: C_1  and  C_2
REMARK    2  A    between atoms: C_2  and  O_3
REMARK    3  A    between atoms: O_3  and  C_4
REMARK    4  A    between atoms: C_7  and  C_10
REMARK    5  A    between atoms: C_12  and  C_25
REMARK    6  A    between atoms: C_14  and  C_17
REMARK    7  A    between atoms: C_22  and  O_23
REMARK    8  A    between atoms: C_28  and  C_31
REMARK    9  A    between atoms: C_31  and  O_33
REMARK   10  A    between atoms: O_33  and  C_34
REMARK                            x       y       z     vdW  Elec       q    Type
REMARK                         _______ _______ _______ _____ _____    ______ ____
ROOT
ATOM      1  C   UNL     1       5.363  -1.862   1.411  0.00  0.00    +0.040 C 
ATOM      2  N   UNL     1       5.595  -2.672   0.447  0.00  0.00    -0.299 NA
ATOM      3  C   UNL     1       4.813  -2.727  -0.781  0.00  0.00    +0.081 C 
ATOM      4  C   UNL     1       3.711  -0.715  -0.037  0.00  0.00    -0.028 C 
ATOM      5  C   UNL     1       4.236  -0.867   1.394  0.00  0.00    +0.044 C 
ATOM      6  N   UNL     1       3.512  -2.064  -0.602  0.00  0.00    +0.401 N 
ATOM      7  H   UNL     1       2.932  -2.619   0.037  0.00  0.00    -0.081 HD
ATOM      8  H   UNL     1       3.042  -1.986  -1.511  0.00  0.00    -0.081 HD
ENDROOT
BRANCH   4   9
ATOM      9  C   UNL     1       2.397   0.023  -0.020  0.00  0.00    -0.018 A 
ATOM     10  C   UNL     1       1.208  -0.681  -0.013  0.00  0.00    +0.025 A 
ATOM     11  C   UNL     1       0.002  -0.004   0.002  0.00  0.00    +0.041 A 
ATOM     12  C   UNL     1      -0.017   1.380   0.010  0.00  0.00    +0.023 A 
ATOM     13  C   UNL     1       1.169   2.087   0.002  0.00  0.00    +0.047 A 
ATOM     14  C   UNL     1       2.380   1.410  -0.013  0.00  0.00    +0.119 A 
ATOM     15 CL   UNL     1      -1.490  -0.891   0.012  0.00  0.00    -0.084 Cl
BRANCH  14  16
ATOM     16  O   UNL     1       3.549   2.105  -0.020  0.00  0.00    -0.507 OA
ATOM     17  H   UNL     1       3.878   2.311  -0.905  0.00  0.00    +0.292 HD
ENDBRANCH  14  16
ENDBRANCH   4   9
BRANCH   1  21
ATOM     18  C   UNL     1       7.896  -1.991   4.816  0.00  0.00    +0.121 A 
ATOM     19  C   UNL     1       8.120  -2.857   3.753  0.00  0.00    +0.046 A 
ATOM     20  C   UNL     1       7.301  -2.818   2.646  0.00  0.00    +0.013 A 
ATOM     21  C   UNL     1       6.242  -1.907   2.594  0.00  0.00    -0.004 A 
ATOM     22  C   UNL     1       6.024  -1.034   3.663  0.00  0.00    +0.013 A 
ATOM     23  C   UNL     1       6.845  -1.082   4.768  0.00  0.00    +0.046 A 
BRANCH  18  24
ATOM     24  O   UNL     1       8.706  -2.031   5.904  0.00  0.00    -0.492 OA
BRANCH  24  26
ATOM     25  C   UNL     1       9.431  -1.307   8.093  0.00  0.00    +0.048 C 
ATOM     26  C   UNL     1       8.419  -1.113   6.961  0.00  0.00    +0.225 C 
ENDBRANCH  24  26
ENDBRANCH  18  24
ENDBRANCH   1  21
BRANCH   3  27
ATOM     27  C   UNL     1       4.582  -4.168  -1.159  0.00  0.00    -0.040 A 
ATOM     28  C   UNL     1       3.432  -4.525  -1.841  0.00  0.00    +0.004 A 
ATOM     29  C   UNL     1       3.217  -5.841  -2.195  0.00  0.00    +0.015 A 
ATOM     30  C   UNL     1       4.157  -6.815  -1.852  0.00  0.00    +0.059 A 
ATOM     31  C   UNL     1       5.312  -6.448  -1.159  0.00  0.00    +0.015 A 
ATOM     32  C   UNL     1       5.518  -5.128  -0.817  0.00  0.00    +0.004 A 
BRANCH  30  33
ATOM     33  C   UNL     1       3.930  -8.227  -2.221  0.00  0.00    +0.339 C 
ATOM     34  O   UNL     1       4.749  -9.073  -1.922  0.00  0.00    -0.245 OA
BRANCH  33  35
ATOM     35  O   UNL     1       2.814  -8.578  -2.890  0.00  0.00    -0.464 OA
ATOM     36  C   UNL     1       2.658  -9.983  -3.220  0.00  0.00    +0.280 C 
ENDBRANCH  33  35
ENDBRANCH  30  33
ENDBRANCH   3  27
TORSDOF 8
