REMARK  Name = ZINC27019055
REMARK  10 active torsions:
REMARK  status: ('A' for Active; 'I' for Inactive)
REMARK    1  A    between atoms: C_1  and  C_2
REMARK    2  A    between atoms: C_2  and  C_3
REMARK    3  A    between atoms: C_3  and  C_4
REMARK    4  A    between atoms: C_4  and  C_5
REMARK    5  A    between atoms: C_5  and  C_6
REMARK    6  A    between atoms: C_6  and  N_7
REMARK    7  A    between atoms: C_8  and  C_19
REMARK    8  A    between atoms: N_12  and  C_13
REMARK    9  A    between atoms: C_22  and  S_25
REMARK   10  A    between atoms: S_25  and  N_28
REMARK                            x       y       z     vdW  Elec       q    Type
REMARK                         _______ _______ _______ _____ _____    ______ ____
ROOT
ATOM      1  N   UNL     1      -1.372  -2.063  -0.039  0.00  0.00    -0.321 N 
ATOM      2  C   UNL     1      -2.611  -2.508   0.336  0.00  0.00    +0.058 A 
ATOM      3  C   UNL     1      -3.594  -1.617   0.579  0.00  0.00    +0.075 A 
ATOM      4  S   UNL     1      -2.770  -0.061   0.282  0.00  0.00    -0.059 S 
ATOM      5  C   UNL     1      -1.165  -0.709  -0.157  0.00  0.00    +0.152 A 
ATOM      6  N   UNL     1      -0.069  -0.060  -0.500  0.00  0.00    -0.336 N 
ATOM      7  H   UNL     1       0.824  -0.618  -0.819  0.00  0.00    +0.168 HD
ENDROOT
BRANCH   6   8
ATOM      8  C   UNL     1      -0.042   1.306  -0.457  0.00  0.00    +0.041 A 
ATOM      9  C   UNL     1      -0.307   2.050  -1.611  0.00  0.00    +0.025 A 
ATOM     10  C   UNL     1      -0.284   3.428  -1.559  0.00  0.00    +0.002 A 
ATOM     11  C   UNL     1       0.012   4.074  -0.372  0.00  0.00    +0.000 A 
ATOM     12  C   UNL     1       0.281   3.345   0.773  0.00  0.00    +0.002 A 
ATOM     13  C   UNL     1       0.256   1.966   0.738  0.00  0.00    +0.025 A 
ENDBRANCH   6   8
BRANCH   2  14
ATOM     14  C   UNL     1      -2.870  -3.957   0.473  0.00  0.00    -0.001 A 
ATOM     15  C   UNL     1      -2.566  -4.826  -0.576  0.00  0.00    +0.012 A 
ATOM     16  C   UNL     1      -2.807  -6.178  -0.440  0.00  0.00    +0.029 A 
ATOM     17  C   UNL     1      -3.357  -6.671   0.730  0.00  0.00    +0.106 A 
ATOM     18  C   UNL     1      -3.666  -5.815   1.771  0.00  0.00    +0.029 A 
ATOM     19  C   UNL     1      -3.426  -4.462   1.650  0.00  0.00    +0.012 A 
BRANCH  17  20
ATOM     20  S   UNL     1      -3.667  -8.398   0.893  0.00  0.00    +0.061 S 
ATOM     21  O   UNL     1      -2.788  -9.056  -0.009  0.00  0.00    -0.153 OA
ATOM     22  O   UNL     1      -3.680  -8.679   2.286  0.00  0.00    -0.153 OA
BRANCH  20  23
ATOM     23  N   UNL     1      -5.204  -8.674   0.341  0.00  0.00    -0.177 NA
ATOM     24  C   UNL     1      -6.301  -8.603   1.280  0.00  0.00    +0.109 C 
ATOM     25  C   UNL     1      -6.534  -9.987   1.921  0.00  0.00    +0.017 C 
ATOM     26  C   UNL     1      -7.115 -10.914   0.937  0.00  0.00    +0.001 C 
ATOM     27  C   UNL     1      -6.218 -11.199  -0.264  0.00  0.00    +0.001 C 
ATOM     28  C   UNL     1      -6.416 -10.122  -1.302  0.00  0.00    +0.017 C 
ATOM     29  C   UNL     1      -5.396  -8.988  -1.089  0.00  0.00    +0.109 C 
ENDBRANCH  20  23
ENDBRANCH  17  20
ENDBRANCH   2  14
BRANCH   1  30
ATOM     30  C   UNL     1      -0.288  -3.011  -0.308  0.00  0.00    +0.124 C 
BRANCH  30  31
ATOM     31  C   UNL     1       0.395  -3.391   1.007  0.00  0.00    +0.022 C 
BRANCH  31  32
ATOM     32  C   UNL     1       1.528  -4.381   0.727  0.00  0.00    +0.002 C 
BRANCH  32  33
ATOM     33  C   UNL     1       2.210  -4.762   2.042  0.00  0.00    -0.000 C 
BRANCH  33  35
ATOM     34  C   UNL     1       4.026  -6.132   3.076  0.00  0.00    +0.004 C 
ATOM     35  C   UNL     1       3.343  -5.751   1.761  0.00  0.00    -0.003 C 
ENDBRANCH  33  35
ENDBRANCH  32  33
ENDBRANCH  31  32
ENDBRANCH  30  31
ENDBRANCH   1  30
TORSDOF 9
