REMARK  Name = ZINC16812530
REMARK  12 active torsions:
REMARK  status: ('A' for Active; 'I' for Inactive)
REMARK    1  A    between atoms: C_1  and  C_2
REMARK    2  A    between atoms: C_2  and  C_3
REMARK    3  A    between atoms: C_3  and  C_4
REMARK    4  A    between atoms: C_4  and  C_5
REMARK    5  A    between atoms: C_5  and  C_6
REMARK    6  A    between atoms: C_6  and  N_7
REMARK    7  A    between atoms: C_16  and  C_18
REMARK    8  A    between atoms: C_18  and  O_20
REMARK    9  A    between atoms: O_20  and  C_21
REMARK   10  A    between atoms: C_21  and  C_23
REMARK   11  A    between atoms: C_21  and  C_29
REMARK   12  A    between atoms: C_34  and  C_37
REMARK                            x       y       z     vdW  Elec       q    Type
REMARK                         _______ _______ _______ _____ _____    ______ ____
ROOT
ATOM      1  C   UNL     1      -0.278  -1.890   4.496  0.00  0.00    +0.361 C 
ATOM      2  O   UNL     1       0.239  -2.389   5.476  0.00  0.00    -0.243 OA
ENDROOT
BRANCH   1  12
ATOM      3  N   UNL     1      -0.020   1.094   2.454  0.00  0.00    -0.228 N 
ATOM      4  C   UNL     1       0.965   1.859   2.966  0.00  0.00    +0.275 A 
ATOM      5  O   UNL     1       1.256   2.925   2.455  0.00  0.00    -0.266 OA
ATOM      6  C   UNL     1       1.675   1.380   4.160  0.00  0.00    +0.050 A 
ATOM      7  C   UNL     1       2.702   2.096   4.768  0.00  0.00    +0.014 A 
ATOM      8  C   UNL     1       3.322   1.574   5.883  0.00  0.00    +0.001 A 
ATOM      9  C   UNL     1       2.933   0.346   6.402  0.00  0.00    +0.001 A 
ATOM     10  C   UNL     1       1.918  -0.379   5.814  0.00  0.00    +0.011 A 
ATOM     11  C   UNL     1       1.279   0.129   4.688  0.00  0.00    +0.021 A 
ATOM     12  C   UNL     1       0.187  -0.581   4.002  0.00  0.00    +0.176 A 
ATOM     13  N   UNL     1      -0.366  -0.036   2.945  0.00  0.00    -0.161 NA
BRANCH   3  14
ATOM     14  C   UNL     1      -0.729   1.579   1.267  0.00  0.00    +0.147 C 
BRANCH  14  15
ATOM     15  C   UNL     1      -0.013   1.086   0.008  0.00  0.00    +0.023 C 
BRANCH  15  16
ATOM     16  C   UNL     1      -0.753   1.593  -1.232  0.00  0.00    +0.002 C 
BRANCH  16  17
ATOM     17  C   UNL     1      -0.037   1.099  -2.490  0.00  0.00    -0.000 C 
BRANCH  17  19
ATOM     18  C   UNL     1      -0.060   1.113  -4.989  0.00  0.00    +0.004 C 
ATOM     19  C   UNL     1      -0.777   1.606  -3.730  0.00  0.00    -0.003 C 
ENDBRANCH  17  19
ENDBRANCH  16  17
ENDBRANCH  15  16
ENDBRANCH  14  15
ENDBRANCH   3  14
ENDBRANCH   1  12
BRANCH   1  20
ATOM     20  O   UNL     1      -1.278  -2.533   3.862  0.00  0.00    -0.442 OA
BRANCH  20  21
ATOM     21  C   UNL     1      -1.684  -3.818   4.404  0.00  0.00    +0.292 C 
BRANCH  21  22
ATOM     22  C   UNL     1      -2.200  -4.693   3.290  0.00  0.00    +0.264 C 
ATOM     23  O   UNL     1      -2.222  -4.275   2.152  0.00  0.00    -0.271 OA
ATOM     24  N   UNL     1      -2.635  -5.939   3.559  0.00  0.00    -0.264 N 
ATOM     25  C   UNL     1      -3.112  -6.749   2.529  0.00  0.00    +0.168 A 
ATOM     26  C   UNL     1      -3.204  -6.412   1.152  0.00  0.00    +0.091 A 
ATOM     27  C   UNL     1      -3.722  -7.522   0.578  0.00  0.00    +0.136 A 
ATOM     28  O   UNL     1      -3.906  -8.412   1.563  0.00  0.00    -0.358 OA
ATOM     29  N   UNL     1      -3.559  -7.973   2.635  0.00  0.00    -0.063 NA
ATOM     30  C   UNL     1      -4.031  -7.719  -0.884  0.00  0.00    +0.089 C 
ATOM     31  H   UNL     1      -2.618  -6.273   4.470  0.00  0.00    +0.156 HD
ENDBRANCH  21  22
BRANCH  21  32
ATOM     32  C   UNL     1      -2.774  -3.610   5.424  0.00  0.00    +0.002 A 
ATOM     33  C   UNL     1      -3.763  -2.671   5.198  0.00  0.00    +0.008 A 
ATOM     34  C   UNL     1      -4.765  -2.484   6.132  0.00  0.00    +0.000 A 
ATOM     35  C   UNL     1      -4.772  -3.228   7.296  0.00  0.00    +0.000 A 
ATOM     36  C   UNL     1      -3.780  -4.163   7.525  0.00  0.00    +0.000 A 
ATOM     37  C   UNL     1      -2.780  -4.354   6.589  0.00  0.00    +0.008 A 
ENDBRANCH  21  32
ENDBRANCH  20  21
ENDBRANCH   1  20
TORSDOF 10
