REMARK  Name = ZINC01097790
REMARK  9 active torsions:
REMARK  status: ('A' for Active; 'I' for Inactive)
REMARK    1  A    between atoms: C_1  and  C_2
REMARK    2  A    between atoms: C_9  and  N_38
REMARK    3  A    between atoms: C_10  and  C_36
REMARK    4  A    between atoms: C_11  and  C_13
REMARK    5  A    between atoms: C_16  and  O_19
REMARK    6  A    between atoms: O_19  and  C_20
REMARK    7  A    between atoms: C_20  and  C_22
REMARK    8  A    between atoms: C_23  and  C_35
REMARK    9  A    between atoms: C_26  and  C_27
REMARK                            x       y       z     vdW  Elec       q    Type
REMARK                         _______ _______ _______ _____ _____    ______ ____
ROOT
ATOM      1  C   UNL     1      -1.189   2.697  -0.955  0.00  0.00    -0.034 A 
ATOM      2  C   UNL     1      -1.124   1.329  -0.766  0.00  0.00    +0.008 A 
ATOM      3  C   UNL     1       0.100   0.714  -0.585  0.00  0.00    +0.046 A 
ATOM      4  C   UNL     1       1.264   1.468  -0.602  0.00  0.00    +0.132 A 
ATOM      5  C   UNL     1       1.196   2.840  -0.797  0.00  0.00    +0.046 A 
ATOM      6  C   UNL     1      -0.030   3.451  -0.973  0.00  0.00    +0.008 A 
ENDROOT
BRANCH   1  17
ATOM      7  C   UNL     1      -2.277   4.608   1.821  0.00  0.00    +0.068 C 
ATOM      8  C   UNL     1      -3.314   3.629   1.333  0.00  0.00    +0.068 A 
ATOM      9  C   UNL     1      -3.402   3.107   0.049  0.00  0.00    +0.049 A 
ATOM     10  C   UNL     1      -4.473   2.259   0.009  0.00  0.00    +0.222 A 
ATOM     11  N   UNL     1      -5.032   2.253   1.230  0.00  0.00    -0.246 N 
ATOM     12  H   UNL     1      -5.917   1.631   1.426  0.00  0.00    +0.192 HD
ATOM     13  N   UNL     1      -4.290   3.120   2.047  0.00  0.00    -0.176 NA
ATOM     14  O   UNL     1      -4.832   1.585  -1.112  0.00  0.00    -0.423 OA
ATOM     15  C   UNL     1      -4.276   1.972  -2.278  0.00  0.00    +0.200 C 
ATOM     16  C   UNL     1      -3.209   2.797  -2.366  0.00  0.00    +0.098 C 
ATOM     17  C   UNL     1      -2.525   3.367  -1.149  0.00  0.00    +0.101 C 
BRANCH  15  18
ATOM     18  N   UNL     1      -4.827   1.501  -3.444  0.00  0.00    -0.328 N 
ATOM     19  H   UNL     1      -4.398   1.797  -4.413  0.00  0.00    +0.145 HD
ATOM     20  H   UNL     1      -5.696   0.828  -3.409  0.00  0.00    +0.145 HD
ENDBRANCH  15  18
BRANCH  16  21
ATOM     21  C   UNL     1      -2.709   3.142  -3.663  0.00  0.00    +0.101 C 
ATOM     22  N   UNL     1      -2.313   3.416  -4.691  0.00  0.00    -0.191 NA
ENDBRANCH  16  21
ENDBRANCH   1  17
BRANCH   4  23
ATOM     23  O   UNL     1       2.469   0.863  -0.429  0.00  0.00    -0.422 OA
BRANCH  23  24
ATOM     24  C   UNL     1       3.136   1.142   0.709  0.00  0.00    +0.350 C 
ATOM     25  O   UNL     1       2.615   1.830   1.565  0.00  0.00    -0.244 OA
BRANCH  24  26
ATOM     26  C   UNL     1       4.493   0.613   0.914  0.00  0.00    +0.129 A 
ATOM     27  C   UNL     1       5.697   1.225   0.668  0.00  0.00    +0.149 A 
ATOM     28  O   UNL     1       6.645   0.352   1.015  0.00  0.00    -0.358 OA
ATOM     29  N   UNL     1       6.207  -0.695   1.424  0.00  0.00    -0.077 NA
ATOM     30  C   UNL     1       4.898  -0.712   1.431  0.00  0.00    +0.130 A 
ATOM     31  C   UNL     1       5.907   2.612   0.117  0.00  0.00    +0.090 C 
BRANCH  30  32
ATOM     32  C   UNL     1       4.013  -1.819   1.865  0.00  0.00    +0.041 A 
ATOM     33  C   UNL     1       3.092  -1.619   2.893  0.00  0.00    +0.052 A 
ATOM     34  C   UNL     1       2.267  -2.654   3.289  0.00  0.00    +0.021 A 
ATOM     35  C   UNL     1       2.359  -3.889   2.675  0.00  0.00    +0.003 A 
ATOM     36  C   UNL     1       3.273  -4.096   1.658  0.00  0.00    +0.021 A 
ATOM     37  C   UNL     1       4.101  -3.068   1.249  0.00  0.00    +0.052 A 
ATOM     38 CL   UNL     1       5.249  -3.330  -0.026  0.00  0.00    -0.083 Cl
ATOM     39 CL   UNL     1       2.980  -0.070   3.670  0.00  0.00    -0.083 Cl
ENDBRANCH  30  32
ENDBRANCH  24  26
ENDBRANCH  23  24
ENDBRANCH   4  23
TORSDOF 7
