REMARK  Name = ZINC12436523
REMARK  4 active torsions:
REMARK  status: ('A' for Active; 'I' for Inactive)
REMARK    1  A    between atoms: C_1  and  O_2
REMARK    2  A    between atoms: O_2  and  C_3
REMARK    3  A    between atoms: C_5  and  N_26
REMARK    4  A    between atoms: C_10  and  C_19
REMARK                            x       y       z     vdW  Elec       q    Type
REMARK                         _______ _______ _______ _____ _____    ______ ____
ROOT
ATOM      1  C   UNL     1      -0.182  -2.602   3.600  0.00  0.00    +0.143 A 
ATOM      2  C   UNL     1       0.331  -3.354   4.640  0.00  0.00    +0.080 A 
ATOM      3  C   UNL     1       1.319  -2.824   5.448  0.00  0.00    +0.130 A 
ATOM      4  C   UNL     1       1.792  -1.549   5.215  0.00  0.00    +0.039 A 
ATOM      5  C   UNL     1       1.285  -0.783   4.173  0.00  0.00    -0.014 A 
ATOM      6  C   UNL     1       0.296  -1.309   3.363  0.00  0.00    +0.074 A 
ATOM      7  N   UNL     1      -0.254  -0.592   2.297  0.00  0.00    -0.337 N 
ATOM      8  C   UNL     1      -0.155   0.854   2.494  0.00  0.00    +0.078 C 
ATOM      9  C   UNL     1       1.314   1.244   2.680  0.00  0.00    +0.024 C 
ATOM     10  C   UNL     1       1.842   0.597   3.978  0.00  0.00    +0.048 C 
ATOM     11  C   UNL     1       1.365   1.524   5.073  0.00  0.00    -0.023 C 
ATOM     12  C   UNL     1       1.095   2.709   4.584  0.00  0.00    -0.030 C 
ATOM     13  C   UNL     1       1.361   2.742   3.092  0.00  0.00    +0.033 C 
ATOM     14  H   UNL     1      -1.209  -0.870   2.129  0.00  0.00    +0.146 HD
ENDROOT
BRANCH   8  15
ATOM     15  C   UNL     1      -0.723   1.577   1.271  0.00  0.00    +0.014 C 
ATOM     16  C   UNL     1      -2.217   1.266   1.143  0.00  0.00    +0.010 C 
ATOM     17  C   UNL     1      -2.797   2.136   0.027  0.00  0.00    +0.027 C 
ATOM     18  C   UNL     1      -1.946   2.033  -1.205  0.00  0.00    -0.031 C 
ATOM     19  C   UNL     1      -0.733   1.580  -1.212  0.00  0.00    -0.031 C 
ATOM     20  C   UNL     1      -0.013   1.086   0.008  0.00  0.00    +0.032 C 
ENDBRANCH   8  15
BRANCH   3  21
ATOM     21  N   UNL     1       1.871  -3.625   6.564  0.00  0.00    +0.057 N 
ATOM     22  O   UNL     1       1.454  -4.750   6.770  0.00  0.00    -0.126 OA
ATOM     23  O   UNL     1       2.743  -3.158   7.276  0.00  0.00    -0.126 OA
ENDBRANCH   3  21
BRANCH   1  25
ATOM     24  C   UNL     1      -1.598  -4.446   3.101  0.00  0.00    +0.277 C 
ATOM     25  O   UNL     1      -1.155  -3.120   2.803  0.00  0.00    -0.493 OA
ENDBRANCH   1  25
TORSDOF 3
