REMARK  Name = ZINC13052498
REMARK  11 active torsions:
REMARK  status: ('A' for Active; 'I' for Inactive)
REMARK    1  A    between atoms: C_1  and  C_2
REMARK    2  A    between atoms: C_2  and  C_4
REMARK    3  A    between atoms: C_2  and  O_34
REMARK    4  A    between atoms: C_4  and  N_5
REMARK    5  A    between atoms: C_11  and  C_32
REMARK    6  A    between atoms: C_15  and  S_16
REMARK    7  A    between atoms: S_16  and  C_17
REMARK    8  A    between atoms: C_17  and  C_19
REMARK    9  A    between atoms: C_17  and  C_20
REMARK   10  A    between atoms: N_22  and  C_23
REMARK   11  A    between atoms: N_22  and  C_24
REMARK                            x       y       z     vdW  Elec       q    Type
REMARK                         _______ _______ _______ _____ _____    ______ ____
ROOT
ATOM      1  N   UNL     1      -1.202   3.496   0.034  0.00  0.00    -0.285 N 
ATOM      2  C   UNL     1      -1.280   2.146   0.032  0.00  0.00    +0.262 A 
ATOM      3  O   UNL     1      -2.355   1.576   0.044  0.00  0.00    -0.267 OA
ATOM      4  C   UNL     1      -0.017   1.390   0.010  0.00  0.00    +0.065 A 
ATOM      5  C   UNL     1       0.002  -0.004   0.002  0.00  0.00    +0.016 A 
ATOM      6  C   UNL     1       1.195  -0.668  -0.013  0.00  0.00    +0.016 A 
ATOM      7  C   UNL     1       2.405   0.038  -0.020  0.00  0.00    +0.065 A 
ATOM      8  C   UNL     1       2.409   1.428  -0.013  0.00  0.00    +0.043 A 
ATOM      9  C   UNL     1       1.194   2.119   0.002  0.00  0.00    +0.080 A 
ATOM     10  N   UNL     1       1.151   3.472   0.010  0.00  0.00    -0.223 NA
ATOM     11  C   UNL     1       0.013   4.121   0.025  0.00  0.00    +0.173 A 
ENDROOT
BRANCH   7  12
ATOM     12  C   UNL     1       3.686  -0.700  -0.036  0.00  0.00    +0.387 C 
ATOM     13  O   UNL     1       4.738  -0.092  -0.042  0.00  0.00    -0.241 OA
ATOM     14  O   UNL     1       3.688  -2.047  -0.043  0.00  0.00    -0.241 OA
ENDBRANCH   7  12
BRANCH   1  15
ATOM     15  C   UNL     1      -2.429   4.295   0.050  0.00  0.00    +0.158 C 
BRANCH  15  17
ATOM     16  C   UNL     1      -4.081   5.518  -1.371  0.00  0.00    +0.039 C 
ATOM     17  C   UNL     1      -2.871   4.581  -1.386  0.00  0.00    +0.131 C 
BRANCH  17  18
ATOM     18  O   UNL     1      -3.227   3.355  -2.028  0.00  0.00    -0.390 OA
ATOM     19  H   UNL     1      -3.517   3.460  -2.945  0.00  0.00    +0.210 HD
ENDBRANCH  17  18
ENDBRANCH  15  17
ENDBRANCH   1  15
BRANCH  11  20
ATOM     20  S   UNL     1       0.051   5.883   0.035  0.00  0.00    -0.075 S 
BRANCH  20  21
ATOM     21  C   UNL     1       1.840   6.158   0.019  0.00  0.00    +0.137 C 
ATOM     22  C   UNL     1       2.424   5.641  -1.297  0.00  0.00    +0.029 C 
BRANCH  21  23
ATOM     23  C   UNL     1       2.122   7.633   0.148  0.00  0.00    +0.229 C 
ATOM     24  O   UNL     1       1.259   8.441  -0.118  0.00  0.00    -0.274 OA
ATOM     25  N   UNL     1       3.335   8.053   0.560  0.00  0.00    -0.299 N 
ATOM     26  C   UNL     1       4.378   7.076   0.882  0.00  0.00    +0.132 C 
BRANCH  25  27
ATOM     27  C   UNL     1       3.610   9.487   0.686  0.00  0.00    +0.098 C 
ATOM     28  C   UNL     1       4.795   9.869  -0.215  0.00  0.00    +0.046 C 
ATOM     29  C   UNL     1       5.295  11.289   0.145  0.00  0.00    +0.168 C 
ATOM     30  S   UNL     1       4.848  11.436   1.923  0.00  0.00    -0.029 S 
ATOM     31  O   UNL     1       3.904  12.487   2.077  0.00  0.00    -0.174 OA
ATOM     32  O   UNL     1       6.037  11.444   2.701  0.00  0.00    -0.174 OA
ATOM     33  C   UNL     1       3.991   9.821   2.156  0.00  0.00    +0.188 C 
ENDBRANCH  25  27
ENDBRANCH  21  23
ENDBRANCH  20  21
ENDBRANCH  11  20
TORSDOF 8
