REMARK  Name = ZINC01313134
REMARK  6 active torsions:
REMARK  status: ('A' for Active; 'I' for Inactive)
REMARK    1  A    between atoms: C_1  and  C_2
REMARK    2  A    between atoms: C_16  and  C_35
REMARK    3  A    between atoms: C_18  and  C_27
REMARK    4  A    between atoms: C_27  and  C_29
REMARK    5  A    between atoms: C_35  and  C_37
REMARK    6  A    between atoms: C_41  and  N_43
REMARK                            x       y       z     vdW  Elec       q    Type
REMARK                         _______ _______ _______ _____ _____    ______ ____
ROOT
ATOM      1  C   UNL     1       0.328   1.402  -0.070  0.00  0.00    +0.044 C 
ATOM      2  C   UNL     1       0.273  -0.104  -0.083  0.00  0.00    -0.044 C 
ATOM      3  C   UNL     1      -0.907  -0.714  -0.022  0.00  0.00    +0.000 C 
ATOM      4  C   UNL     1      -0.993  -2.216  -0.028  0.00  0.00    +0.118 C 
ATOM      5  C   UNL     1      -2.230  -2.715  -0.772  0.00  0.00    +0.108 C 
ATOM      6  C   UNL     1      -3.251  -1.648  -0.972  0.00  0.00    -0.008 A 
ATOM      7  C   UNL     1      -3.192  -0.422  -1.598  0.00  0.00    +0.006 A 
ATOM      8  C   UNL     1      -4.354   0.342  -1.603  0.00  0.00    +0.000 A 
ATOM      9  C   UNL     1      -5.514  -0.110  -1.007  0.00  0.00    +0.002 A 
ATOM     10  C   UNL     1      -5.582  -1.341  -0.374  0.00  0.00    +0.023 A 
ATOM     11  C   UNL     1      -4.423  -2.118  -0.362  0.00  0.00    +0.038 A 
ATOM     12  N   UNL     1      -4.209  -3.370   0.190  0.00  0.00    -0.284 N 
ATOM     13  C   UNL     1      -2.942  -3.799  -0.004  0.00  0.00    +0.231 C 
ATOM     14  O   UNL     1      -2.470  -4.853   0.367  0.00  0.00    -0.274 OA
ATOM     15  C   UNL     1      -1.698  -3.255  -2.115  0.00  0.00    +0.110 C 
ATOM     16  C   UNL     1      -0.278  -3.750  -1.715  0.00  0.00    +0.157 C 
ATOM     17  N   UNL     1       0.189  -2.740  -0.749  0.00  0.00    -0.311 N 
ATOM     18  C   UNL     1       1.464  -2.237  -0.526  0.00  0.00    +0.038 A 
ATOM     19  C   UNL     1       1.528  -0.874  -0.170  0.00  0.00    -0.001 A 
ATOM     20  C   UNL     1       2.765  -0.297   0.088  0.00  0.00    +0.010 A 
ATOM     21  C   UNL     1       3.912  -1.060  -0.025  0.00  0.00    +0.001 A 
ATOM     22  C   UNL     1       3.840  -2.393  -0.392  0.00  0.00    +0.002 A 
ATOM     23  C   UNL     1       2.615  -2.984  -0.635  0.00  0.00    +0.024 A 
ATOM     24  H   UNL     1      -4.888  -3.878   0.661  0.00  0.00    +0.155 HD
ENDROOT
BRANCH  16  25
ATOM     25  C   UNL     1      -0.354  -5.106  -1.062  0.00  0.00    +0.184 C 
ATOM     26  O   UNL     1      -0.307  -5.201   0.145  0.00  0.00    -0.290 OA
BRANCH  25  27
ATOM     27  C   UNL     1      -0.485  -6.315  -1.891  0.00  0.00    +0.019 A 
ATOM     28  C   UNL     1      -0.534  -6.210  -3.285  0.00  0.00    +0.011 A 
ATOM     29  C   UNL     1      -0.657  -7.348  -4.054  0.00  0.00    +0.001 A 
ATOM     30  C   UNL     1      -0.732  -8.591  -3.451  0.00  0.00    +0.000 A 
ATOM     31  C   UNL     1      -0.684  -8.703  -2.072  0.00  0.00    +0.001 A 
ATOM     32  C   UNL     1      -0.556  -7.575  -1.289  0.00  0.00    +0.011 A 
ENDBRANCH  25  27
ENDBRANCH  16  25
BRANCH  15  33
ATOM     33  C   UNL     1      -1.617  -2.157  -3.144  0.00  0.00    +0.170 C 
ATOM     34  O   UNL     1      -0.632  -1.453  -3.204  0.00  0.00    -0.292 OA
BRANCH  33  35
ATOM     35  C   UNL     1      -2.735  -1.940  -4.077  0.00  0.00    +0.020 A 
ATOM     36  C   UNL     1      -3.876  -2.747  -4.008  0.00  0.00    +0.011 A 
ATOM     37  C   UNL     1      -4.918  -2.537  -4.885  0.00  0.00    +0.003 A 
ATOM     38  C   UNL     1      -4.838  -1.532  -5.833  0.00  0.00    +0.033 A 
ATOM     39  C   UNL     1      -3.713  -0.729  -5.908  0.00  0.00    +0.127 A 
ATOM     40  C   UNL     1      -2.664  -0.923  -5.034  0.00  0.00    +0.044 A 
BRANCH  39  41
ATOM     41  N   UNL     1      -3.638   0.343  -6.926  0.00  0.00    +0.056 N 
ATOM     42  O   UNL     1      -4.558   0.516  -7.690  0.00  0.00    -0.126 OA
ATOM     43  O   UNL     1      -2.655   1.044  -6.993  0.00  0.00    -0.126 OA
ENDBRANCH  39  41
ENDBRANCH  33  35
ENDBRANCH  15  33
TORSDOF 5
