REMARK  Name = ZINC38751436
REMARK  8 active torsions:
REMARK  status: ('A' for Active; 'I' for Inactive)
REMARK    1  A    between atoms: C_1  and  C_2
REMARK    2  A    between atoms: C_7  and  C_12
REMARK    3  A    between atoms: C_14  and  C_17
REMARK    4  A    between atoms: C_17  and  N_18
REMARK    5  A    between atoms: C_19  and  C_21
REMARK    6  A    between atoms: C_21  and  C_22
REMARK    7  A    between atoms: C_22  and  C_23
REMARK    8  A    between atoms: C_22  and  C_29
REMARK                            x       y       z     vdW  Elec       q    Type
REMARK                         _______ _______ _______ _____ _____    ______ ____
ROOT
ATOM      1  N   UNL     1       9.856  -3.196   0.107  0.00  0.00    -0.310 N 
ATOM      2  C   UNL     1      11.108  -3.549  -0.244  0.00  0.00    +0.214 C 
ATOM      3  O   UNL     1      11.933  -2.695  -0.489  0.00  0.00    -0.276 OA
ATOM      4  H   UNL     1       9.196  -3.879   0.303  0.00  0.00    +0.149 HD
ENDROOT
BRANCH   1   5
ATOM      5  C   UNL     1       9.491  -1.779   0.192  0.00  0.00    +0.163 C 
BRANCH   5   8
ATOM      6  C   UNL     1       6.215  -1.412   1.860  0.00  0.00    +0.168 A 
ATOM      7  C   UNL     1       7.574  -1.477   1.908  0.00  0.00    +0.077 A 
ATOM      8  C   UNL     1       8.046  -1.657   0.600  0.00  0.00    +0.101 A 
ATOM      9  N   UNL     1       7.019  -1.699  -0.203  0.00  0.00    -0.081 NA
ATOM     10  O   UNL     1       5.844  -1.551   0.574  0.00  0.00    -0.354 OA
BRANCH   6  16
ATOM     11  C   UNL     1       1.308   1.186   5.389  0.00  0.00    +0.052 C 
ATOM     12  C   UNL     1       1.403  -0.340   5.436  0.00  0.00    +0.175 C 
ATOM     13  C   UNL     1       1.583  -0.922   4.014  0.00  0.00    +0.083 C 
ATOM     14  C   UNL     1       3.093  -1.015   3.902  0.00  0.00    -0.002 A 
ATOM     15  C   UNL     1       3.927  -1.185   2.824  0.00  0.00    +0.019 A 
ATOM     16  C   UNL     1       5.310  -1.229   3.014  0.00  0.00    +0.020 A 
ATOM     17  C   UNL     1       5.831  -1.098   4.303  0.00  0.00    +0.015 A 
ATOM     18  C   UNL     1       4.986  -0.932   5.377  0.00  0.00    +0.046 A 
ATOM     19  C   UNL     1       3.605  -0.891   5.189  0.00  0.00    +0.124 A 
ATOM     20  O   UNL     1       2.604  -0.755   6.109  0.00  0.00    -0.488 OA
ENDBRANCH   6  16
ENDBRANCH   5   8
ENDBRANCH   1   5
BRANCH   2  21
ATOM     21  C   UNL     1      11.484  -5.006  -0.331  0.00  0.00    +0.108 C 
BRANCH  21  22
ATOM     22  C   UNL     1      12.951  -5.130  -0.746  0.00  0.00    +0.058 C 
BRANCH  22  23
ATOM     23  C   UNL     1      13.361  -6.580  -0.714  0.00  0.00    -0.040 A 
ATOM     24  C   UNL     1      14.485  -6.966  -0.008  0.00  0.00    +0.004 A 
ATOM     25  C   UNL     1      14.861  -8.296   0.021  0.00  0.00    +0.000 A 
ATOM     26  C   UNL     1      14.112  -9.241  -0.656  0.00  0.00    +0.000 A 
ATOM     27  C   UNL     1      12.987  -8.855  -1.361  0.00  0.00    +0.000 A 
ATOM     28  C   UNL     1      12.609  -7.526  -1.386  0.00  0.00    +0.004 A 
ENDBRANCH  22  23
BRANCH  22  29
ATOM     29  C   UNL     1      13.127  -4.589  -2.141  0.00  0.00    -0.040 A 
ATOM     30  C   UNL     1      12.310  -5.036  -3.163  0.00  0.00    +0.004 A 
ATOM     31  C   UNL     1      12.471  -4.540  -4.444  0.00  0.00    +0.000 A 
ATOM     32  C   UNL     1      13.448  -3.596  -4.701  0.00  0.00    +0.000 A 
ATOM     33  C   UNL     1      14.264  -3.148  -3.679  0.00  0.00    +0.000 A 
ATOM     34  C   UNL     1      14.100  -3.642  -2.398  0.00  0.00    +0.004 A 
ENDBRANCH  22  29
ENDBRANCH  21  22
ENDBRANCH   2  21
TORSDOF 7
