REMARK  Name = ZINC34704159
REMARK  8 active torsions:
REMARK  status: ('A' for Active; 'I' for Inactive)
REMARK    1  A    between atoms: CG_2  and  CB_7
REMARK    2  A    between atoms: CB_7  and  CA_8
REMARK    3  A    between atoms: CA_8  and  C_10
REMARK    4  A    between atoms: CA_8  and  N_13
REMARK    5  A    between atoms: C_14  and  C_16
REMARK    6  A    between atoms: C_18  and  C_28
REMARK    7  A    between atoms: C_28  and  C_30
REMARK    8  A    between atoms: C_28  and  O_41
REMARK                            x       y       z     vdW  Elec       q    Type
REMARK                         _______ _______ _______ _____ _____    ______ ____
ROOT
ATOM      1  C   UNK A   0       3.750   2.123   4.300  0.00  0.00    +0.238 C 
ATOM      2  C   UNK A   0       5.110   2.862   4.242  0.00  0.00    +0.190 C 
ATOM      3  O   UNK A   0       5.745   2.404   5.460  0.00  0.00    -0.340 OA
ATOM      4  C   UNK A   0       4.676   2.299   6.415  0.00  0.00    +0.172 C 
ATOM      5  O   UNK A   0       3.440   2.111   5.709  0.00  0.00    -0.333 OA
ATOM      6  C   UNK A   0       4.929   1.101   7.331  0.00  0.00    +0.065 C 
ATOM      7  C   UNK A   0       3.797   0.992   8.354  0.00  0.00    +0.005 C 
ATOM      8  C   UNK A   0       3.737   2.274   9.187  0.00  0.00    +0.000 C 
ATOM      9  C   UNK A   0       3.475   3.468   8.267  0.00  0.00    +0.005 C 
ATOM     10  C   UNK A   0       4.608   3.582   7.244  0.00  0.00    +0.065 C 
ENDROOT
BRANCH   1  12
ATOM     11  N   HIS A   1       2.791   2.986   2.190  0.00  0.00    -0.300 N 
ATOM     12  C   UNK A   0       2.699   2.880   3.530  0.00  0.00    +0.245 C 
ATOM     13  O   UNK A   0       1.770   3.394   4.117  0.00  0.00    -0.273 OA
ATOM     14  H   HIS A   1       3.533   2.575   1.721  0.00  0.00    +0.150 HD
BRANCH  11  15
ATOM     15  CA  HIS A   1       1.769   3.723   1.442  0.00  0.00    +0.192 C 
BRANCH  15  16
ATOM     16  C   HIS A   1       2.110   5.191   1.437  0.00  0.00    +0.376 C 
ATOM     17  O   HIS A   1       1.221   6.023   1.385  0.00  0.00    -0.244 OA
ATOM     18  OXT HIS A   1       3.276   5.546   1.485  0.00  0.00    -0.244 OA
ENDBRANCH  15  16
BRANCH  15  19
ATOM     19  CB  HIS A   1       1.719   3.206   0.002  0.00  0.00    +0.088 C 
BRANCH  19  21
ATOM     20  CD2 HIS A   1      -0.016   1.337   0.009  0.00  0.00    +0.105 A 
ATOM     21  CG  HIS A   1       1.259   1.771  -0.000  0.00  0.00    +0.035 A 
ATOM     22  ND1 HIS A   1       2.056   0.658  -0.014  0.00  0.00    -0.350 N 
ATOM     23  HD1 HIS A   1       3.026   0.645  -0.023  0.00  0.00    +0.166 HD
ATOM     24  CE1 HIS A   1       1.240  -0.418  -0.012  0.00  0.00    +0.171 A 
ATOM     25  NE2 HIS A   1       0.002  -0.004   0.002  0.00  0.00    -0.352 N 
ATOM     26  HE2 HIS A   1      -0.781  -0.576   0.007  0.00  0.00    +0.166 HD
ENDBRANCH  19  21
ENDBRANCH  15  19
ENDBRANCH  11  15
ENDBRANCH   1  12
BRANCH   2  27
ATOM     27  C   UNK A   0       5.912   2.436   3.011  0.00  0.00    +0.177 C 
BRANCH  27  28
ATOM     28  C   UNK A   0       7.295   3.089   3.053  0.00  0.00    +0.178 C 
ATOM     29  C   UNK A   0       8.209   2.526   1.935  0.00  0.00    +0.197 C 
ATOM     30  O   UNK A   0       9.534   2.712   2.472  0.00  0.00    -0.346 OA
ATOM     31  C   UNK A   0       9.404   2.827   3.894  0.00  0.00    +0.171 C 
ATOM     32  O   UNK A   0       8.017   2.700   4.247  0.00  0.00    -0.340 OA
ATOM     33  C   UNK A   0      10.206   1.718   4.577  0.00  0.00    +0.065 C 
ATOM     34  C   UNK A   0      10.058   1.842   6.095  0.00  0.00    +0.005 C 
ATOM     35  C   UNK A   0      10.579   3.208   6.548  0.00  0.00    +0.000 C 
ATOM     36  C   UNK A   0       9.772   4.314   5.867  0.00  0.00    +0.005 C 
ATOM     37  C   UNK A   0       9.919   4.194   4.349  0.00  0.00    +0.065 C 
ENDBRANCH  27  28
BRANCH  27  38
ATOM     38  O   UNK A   0       6.057   1.014   3.005  0.00  0.00    -0.386 OA
ATOM     39  H   UNK A   0       6.516   0.662   3.781  0.00  0.00    +0.210 HD
ENDBRANCH  27  38
ENDBRANCH   2  27
TORSDOF 8
