REMARK  Name = ZINC02138942
REMARK  8 active torsions:
REMARK  status: ('A' for Active; 'I' for Inactive)
REMARK    1  A    between atoms: C_1  and  C_2
REMARK    2  A    between atoms: C_4  and  C_36
REMARK    3  A    between atoms: C_13  and  C_15
REMARK    4  A    between atoms: C_15  and  C_16
REMARK    5  A    between atoms: N_21  and  C_24
REMARK    6  A    between atoms: C_24  and  C_25
REMARK    7  A    between atoms: C_30  and  O_31
REMARK    8  A    between atoms: O_31  and  C_32
REMARK                            x       y       z     vdW  Elec       q    Type
REMARK                         _______ _______ _______ _____ _____    ______ ____
ROOT
ATOM      1  C   UNL     1       5.729   0.829   3.503  0.00  0.00    +0.044 C 
ATOM      2  C   UNL     1       4.852   1.915   2.933  0.00  0.00    -0.050 A 
ATOM      3  C   UNL     1       5.285   3.228   2.939  0.00  0.00    +0.008 A 
ATOM      4  C   UNL     1       4.487   4.226   2.420  0.00  0.00    -0.029 A 
ATOM      5  C   UNL     1       3.238   3.918   1.884  0.00  0.00    +0.039 A 
ATOM      6  C   UNL     1       2.814   2.592   1.883  0.00  0.00    -0.027 A 
ATOM      7  C   UNL     1       3.614   1.599   2.403  0.00  0.00    +0.008 A 
ATOM      8  C   UNL     1       1.453   2.597   1.247  0.00  0.00    +0.050 C 
ATOM      9  C   UNL     1       1.411   1.710  -0.002  0.00  0.00    +0.088 C 
ATOM     10  C   UNL     1      -0.013   1.086   0.008  0.00  0.00    +0.073 C 
ATOM     11  C   UNL     1      -0.689   1.665   1.269  0.00  0.00    -0.049 C 
ATOM     12  C   UNL     1      -0.657   1.668  -1.230  0.00  0.00    +0.224 C 
ATOM     13  O   UNL     1      -1.786   1.439  -1.606  0.00  0.00    -0.275 OA
ATOM     14  N   UNL     1       0.214   2.476  -1.846  0.00  0.00    -0.237 N 
ATOM     15  C   UNL     1       1.404   2.573  -1.243  0.00  0.00    +0.225 C 
ATOM     16  O   UNL     1       2.333   3.249  -1.631  0.00  0.00    -0.275 OA
ATOM     17  C   UNL     1       1.185   4.038   0.907  0.00  0.00    +0.211 C 
ATOM     18  O   UNL     1       0.190   4.484   0.376  0.00  0.00    -0.277 OA
ATOM     19  N   UNL     1       2.265   4.737   1.308  0.00  0.00    -0.286 N 
ATOM     20  C   UNL     1       4.966   5.655   2.432  0.00  0.00    +0.045 C 
ATOM     21  H   UNL     1       2.355   5.698   1.209  0.00  0.00    +0.155 HD
ATOM     22  N   UNL     1       0.424   2.064   2.125  0.00  0.00    +0.394 N 
ATOM     23  H   UNL     1       0.119   2.783   2.791  0.00  0.00    -0.083 HD
ATOM     24  H   UNL     1       0.784   1.251   2.639  0.00  0.00    -0.083 HD
ENDROOT
BRANCH  11  25
ATOM     25  C   UNL     1      -1.572   0.607   1.933  0.00  0.00    +0.080 C 
BRANCH  25  26
ATOM     26  C   UNL     1      -2.316   1.227   3.088  0.00  0.00    +0.209 C 
ATOM     27  O   UNL     1      -2.156   2.399   3.353  0.00  0.00    -0.276 OA
ATOM     28  N   UNL     1      -3.160   0.478   3.826  0.00  0.00    -0.329 N 
ATOM     29  H   UNL     1      -3.288  -0.460   3.614  0.00  0.00    +0.145 HD
ATOM     30  H   UNL     1      -3.639   0.877   4.569  0.00  0.00    +0.145 HD
ENDBRANCH  25  26
ENDBRANCH  11  25
BRANCH  14  31
ATOM     31  C   UNL     1      -0.109   3.195  -3.081  0.00  0.00    +0.155 C 
BRANCH  31  32
ATOM     32  C   UNL     1       0.257   2.343  -4.269  0.00  0.00    +0.012 A 
ATOM     33  C   UNL     1       1.437   2.575  -4.949  0.00  0.00    +0.009 A 
ATOM     34  C   UNL     1       1.774   1.794  -6.039  0.00  0.00    +0.001 A 
ATOM     35  C   UNL     1       0.931   0.778  -6.451  0.00  0.00    +0.004 A 
ATOM     36  C   UNL     1      -0.249   0.542  -5.775  0.00  0.00    +0.046 A 
ATOM     37  C   UNL     1      -0.587   1.321  -4.678  0.00  0.00    +0.125 A 
BRANCH  37  38
ATOM     38  O   UNL     1      -1.746   1.087  -4.007  0.00  0.00    -0.495 OA
ATOM     39  C   UNL     1      -2.567   0.018  -4.484  0.00  0.00    +0.277 C 
ENDBRANCH  37  38
ENDBRANCH  31  32
ENDBRANCH  14  31
TORSDOF 5
