REMARK  Name = ZINC35544599
REMARK  6 active torsions:
REMARK  status: ('A' for Active; 'I' for Inactive)
REMARK    1  A    between atoms: C_1  and  C_2
REMARK    2  A    between atoms: C_2  and  O_3
REMARK    3  A    between atoms: O_3  and  C_4
REMARK    4  A    between atoms: C_4  and  C_6
REMARK    5  A    between atoms: C_13  and  C_15
REMARK    6  A    between atoms: C_20  and  N_37
REMARK                            x       y       z     vdW  Elec       q    Type
REMARK                         _______ _______ _______ _____ _____    ______ ____
ROOT
ATOM      1  C   UNL     1       3.750  -5.844   4.873  0.00  0.00    +0.101 C 
ATOM      2  C   UNL     1       2.756  -6.633   5.725  0.00  0.00    +0.051 C 
ATOM      3  C   UNL     1       3.465  -7.133   6.957  0.00  0.00    -0.023 A 
ATOM      4  C   UNL     1       2.751  -7.325   8.125  0.00  0.00    +0.038 A 
ATOM      5  C   UNL     1       3.395  -7.774   9.263  0.00  0.00    +0.127 A 
ATOM      6  C   UNL     1       4.754  -8.031   9.236  0.00  0.00    +0.034 A 
ATOM      7  C   UNL     1       5.469  -7.845   8.070  0.00  0.00    +0.025 A 
ATOM      8  C   UNL     1       4.822  -7.399   6.921  0.00  0.00    +0.033 A 
ATOM      9  N   UNL     1       5.574  -7.245   5.743  0.00  0.00    -0.323 N 
ATOM     10  C   UNL     1       4.958  -6.723   4.536  0.00  0.00    +0.103 C 
ATOM     11  C   UNL     1       5.913  -5.913   3.675  0.00  0.00    +0.129 C 
ATOM     12  N   UNL     1       7.281  -6.388   3.743  0.00  0.00    -0.313 N 
ATOM     13  C   UNL     1       7.898  -6.818   4.987  0.00  0.00    +0.125 C 
ATOM     14  C   UNL     1       6.965  -7.689   5.796  0.00  0.00    +0.124 C 
ATOM     15  C   UNL     1       8.031  -6.434   2.574  0.00  0.00    +0.099 A 
ATOM     16  C   UNL     1       9.299  -7.008   2.591  0.00  0.00    +0.042 A 
ATOM     17  C   UNL     1      10.034  -7.048   1.420  0.00  0.00    +0.005 A 
ATOM     18  C   UNL     1       9.476  -6.509   0.268  0.00  0.00    +0.018 A 
ATOM     19  C   UNL     1       8.214  -5.955   0.324  0.00  0.00    +0.084 A 
ATOM     20  N   UNL     1       7.532  -5.936   1.454  0.00  0.00    -0.350 N 
ATOM     21  H   UNL     1       6.645  -5.544   1.464  0.00  0.00    +0.166 HD
ENDROOT
BRANCH   1  28
ATOM     22  C   UNL     1       1.863  -2.350   2.313  0.00  0.00    +0.115 C 
ATOM     23  C   UNL     1       1.293  -1.706   3.579  0.00  0.00    +0.018 C 
ATOM     24  C   UNL     1       2.016  -2.264   4.807  0.00  0.00    +0.020 C 
ATOM     25  C   UNL     1       1.784  -3.776   4.888  0.00  0.00    +0.108 C 
ATOM     26  N   UNL     1       2.197  -4.386   3.616  0.00  0.00    -0.300 N 
ATOM     27  C   UNL     1       1.631  -3.864   2.365  0.00  0.00    +0.122 C 
ATOM     28  C   UNL     1       3.078  -5.406   3.598  0.00  0.00    +0.221 C 
ATOM     29  O   UNL     1       3.330  -5.970   2.554  0.00  0.00    -0.275 OA
BRANCH  22  30
ATOM     30  C   UNL     1       1.173  -1.777   1.102  0.00  0.00    +0.312 C 
ATOM     31  O   UNL     1       0.559  -2.503   0.356  0.00  0.00    -0.250 OA
BRANCH  30  32
ATOM     32  O   UNL     1       1.240  -0.460   0.852  0.00  0.00    -0.465 OA
BRANCH  32  34
ATOM     33  C   UNL     1       0.750   1.528  -0.431  0.00  0.00    +0.048 C 
ATOM     34  C   UNL     1       0.562   0.015  -0.313  0.00  0.00    +0.229 C 
ENDBRANCH  32  34
ENDBRANCH  30  32
ENDBRANCH  22  30
ENDBRANCH   1  28
BRANCH   5  35
ATOM     35  N   UNL     1       2.629  -7.979  10.513  0.00  0.00    +0.056 N 
ATOM     36  O   UNL     1       1.442  -7.754  10.538  0.00  0.00    -0.126 OA
ATOM     37  O   UNL     1       3.191  -8.371  11.509  0.00  0.00    -0.126 OA
ENDBRANCH   5  35
TORSDOF 5
