REMARK  Name = ZINC35640929
REMARK  12 active torsions:
REMARK  status: ('A' for Active; 'I' for Inactive)
REMARK    1  A    between atoms: C_1  and  C_2
REMARK    2  A    between atoms: C_2  and  N_3
REMARK    3  A    between atoms: C_4  and  C_24
REMARK    4  A    between atoms: C_5  and  C_19
REMARK    5  A    between atoms: C_6  and  C_11
REMARK    6  A    between atoms: C_19  and  O_21
REMARK    7  A    between atoms: O_21  and  C_22
REMARK    8  A    between atoms: C_22  and  C_23
REMARK    9  A    between atoms: C_24  and  N_25
REMARK   10  A    between atoms: N_25  and  C_26
REMARK   11  A    between atoms: N_25  and  C_27
REMARK   12  A    between atoms: N_30  and  C_33
REMARK                            x       y       z     vdW  Elec       q    Type
REMARK                         _______ _______ _______ _____ _____    ______ ____
ROOT
ATOM      1  N   UNL     1       0.744  -0.444  -1.190  0.00  0.00    -0.258 N 
ATOM      2  C   UNL     1      -0.033  -0.576  -2.306  0.00  0.00    +0.041 C 
ATOM      3  C   UNL     1       0.483  -1.045  -3.462  0.00  0.00    +0.080 C 
ATOM      4  C   UNL     1       1.952  -1.419  -3.479  0.00  0.00    +0.144 C 
ATOM      5  N   UNL     1       2.701  -1.238  -2.224  0.00  0.00    -0.288 N 
ATOM      6  C   UNL     1       2.046  -0.753  -1.151  0.00  0.00    +0.307 C 
ATOM      7  O   UNL     1       2.656  -0.597  -0.111  0.00  0.00    -0.252 OA
ATOM      8  H   UNL     1       3.644  -1.459  -2.173  0.00  0.00    +0.151 HD
ENDROOT
BRANCH   4   9
ATOM      9  C   UNL     1       2.058  -2.868  -3.878  0.00  0.00    -0.021 A 
ATOM     10  C   UNL     1       1.827  -3.861  -2.944  0.00  0.00    +0.007 A 
ATOM     11  C   UNL     1       1.924  -5.190  -3.309  0.00  0.00    +0.022 A 
ATOM     12  C   UNL     1       2.253  -5.529  -4.609  0.00  0.00    +0.059 A 
ATOM     13  C   UNL     1       2.484  -4.535  -5.545  0.00  0.00    +0.060 A 
ATOM     14  C   UNL     1       2.381  -3.204  -5.179  0.00  0.00    +0.027 A 
ATOM     15 CL   UNL     1       2.898  -4.957  -7.177  0.00  0.00    -0.082 Cl
ATOM     16 CL   UNL     1       2.376  -7.198  -5.067  0.00  0.00    -0.082 Cl
ENDBRANCH   4   9
BRANCH   1  18
ATOM     17  C   UNL     1       0.233   1.597   0.057  0.00  0.00    +0.025 C 
ATOM     18  C   UNL     1       0.118   0.072   0.030  0.00  0.00    +0.111 C 
ENDBRANCH   1  18
BRANCH   3  19
ATOM     19  C   UNL     1      -0.320  -1.184  -4.619  0.00  0.00    +0.339 C 
ATOM     20  O   UNL     1      -0.765  -2.274  -4.923  0.00  0.00    -0.245 OA
BRANCH  19  21
ATOM     21  O   UNL     1      -0.592  -0.106  -5.384  0.00  0.00    -0.462 OA
BRANCH  21  22
ATOM     22  C   UNL     1      -1.410  -0.319  -6.537  0.00  0.00    +0.229 C 
ATOM     23  C   UNL     1      -1.608   1.007  -7.273  0.00  0.00    +0.048 C 
ENDBRANCH  21  22
ENDBRANCH  19  21
ENDBRANCH   3  19
BRANCH   2  24
ATOM     24  C   UNL     1      -1.489  -0.193  -2.246  0.00  0.00    +0.136 C 
BRANCH  24  25
ATOM     25  N   UNL     1      -2.202  -1.117  -1.353  0.00  0.00    -0.297 NA
ATOM     26  C   UNL     1      -2.221  -2.476  -1.910  0.00  0.00    +0.105 C 
BRANCH  25  27
ATOM     27  C   UNL     1      -3.564  -0.640  -1.081  0.00  0.00    +0.053 C 
ATOM     28  C   UNL     1      -3.501   0.732  -0.404  0.00  0.00    +0.000 C 
ATOM     29  C   UNL     1      -4.919   1.186  -0.052  0.00  0.00    -0.078 C 
ATOM     30  N   UNL     1      -5.536   0.216   0.861  0.00  0.00    +0.378 N 
ATOM     31  C   UNL     1      -5.665  -1.084   0.192  0.00  0.00    -0.078 C 
ATOM     32  C   UNL     1      -4.276  -1.626  -0.150  0.00  0.00    +0.000 C 
ATOM     33  C   UNL     1      -6.866   0.696   1.257  0.00  0.00    -0.096 C 
ATOM     34  H   UNL     1      -4.958   0.115   1.682  0.00  0.00    -0.082 HD
ENDBRANCH  25  27
ENDBRANCH  24  25
ENDBRANCH   2  24
TORSDOF 8
