REMARK  Name = ZINC16564888
REMARK  7 active torsions:
REMARK  status: ('A' for Active; 'I' for Inactive)
REMARK    1  A    between atoms: C_1  and  C_2
REMARK    2  A    between atoms: C_5  and  C_8
REMARK    3  A    between atoms: C_9  and  C_34
REMARK    4  A    between atoms: C_16  and  C_18
REMARK    5  A    between atoms: C_18  and  N_19
REMARK    6  A    between atoms: N_22  and  C_25
REMARK    7  A    between atoms: C_30  and  N_31
REMARK                            x       y       z     vdW  Elec       q    Type
REMARK                         _______ _______ _______ _____ _____    ______ ____
ROOT
ATOM      1  C   UNL     1       0.059  -4.255  -0.021  0.00  0.00    +0.007 A 
ATOM      2  C   UNL     1      -0.988  -4.957  -0.518  0.00  0.00    -0.003 A 
ATOM      3  S   UNL     1      -0.483  -6.653  -0.302  0.00  0.00    -0.075 S 
ATOM      4  C   UNL     1       1.103  -6.378   0.440  0.00  0.00    +0.092 A 
ATOM      5  C   UNL     1       1.208  -4.986   0.499  0.00  0.00    +0.080 A 
ATOM      6  C   UNL     1       2.467  -4.475   1.085  0.00  0.00    +0.282 A 
ATOM      7  O   UNL     1       2.660  -3.274   1.188  0.00  0.00    -0.265 OA
ATOM      8  N   UNL     1       3.393  -5.351   1.501  0.00  0.00    -0.197 NA
ATOM      9  C   UNL     1       3.227  -6.641   1.410  0.00  0.00    +0.095 A 
ATOM     10  N   UNL     1       2.101  -7.178   0.896  0.00  0.00    -0.339 N 
ATOM     11  C   UNL     1      -2.271  -4.430  -1.109  0.00  0.00    +0.052 C 
ATOM     12  H   UNL     1       2.009  -8.142   0.842  0.00  0.00    +0.167 HD
ENDROOT
BRANCH   1  17
ATOM     13  C   UNL     1      -0.018   1.503   0.010  0.00  0.00    +0.044 C 
ATOM     14  C   UNL     1       0.002  -0.004   0.002  0.00  0.00    -0.050 A 
ATOM     15  C   UNL     1       0.006  -0.686  -1.201  0.00  0.00    +0.004 A 
ATOM     16  C   UNL     1       0.024  -2.066  -1.215  0.00  0.00    +0.009 A 
ATOM     17  C   UNL     1       0.040  -2.772  -0.013  0.00  0.00    -0.016 A 
ATOM     18  C   UNL     1       0.036  -2.079   1.196  0.00  0.00    +0.009 A 
ATOM     19  C   UNL     1       0.023  -0.699   1.198  0.00  0.00    +0.004 A 
ENDBRANCH   1  17
BRANCH   9  20
ATOM     20  C   UNL     1       4.317  -7.558   1.901  0.00  0.00    -0.003 C 
BRANCH  20  21
ATOM     21  N   UNL     1       5.431  -6.757   2.424  0.00  0.00    +0.386 N 
ATOM     22  C   UNL     1       4.981  -6.005   3.602  0.00  0.00    -0.059 C 
ATOM     23  C   UNL     1       6.108  -5.082   4.080  0.00  0.00    +0.086 C 
ATOM     24  N   UNL     1       7.313  -5.896   4.302  0.00  0.00    -0.332 N 
ATOM     25  C   UNL     1       7.745  -6.804   3.229  0.00  0.00    +0.086 C 
ATOM     26  C   UNL     1       6.541  -7.646   2.792  0.00  0.00    -0.059 C 
ATOM     27  H   UNL     1       5.741  -6.110   1.714  0.00  0.00    -0.081 HD
BRANCH  24  28
ATOM     28  C   UNL     1       8.028  -5.807   5.499  0.00  0.00    +0.060 A 
ATOM     29  C   UNL     1       7.711  -6.643   6.563  0.00  0.00    +0.025 A 
ATOM     30  C   UNL     1       8.419  -6.553   7.744  0.00  0.00    +0.002 A 
ATOM     31  C   UNL     1       9.444  -5.633   7.870  0.00  0.00    +0.002 A 
ATOM     32  C   UNL     1       9.762  -4.800   6.814  0.00  0.00    +0.034 A 
ATOM     33  C   UNL     1       9.061  -4.888   5.627  0.00  0.00    +0.147 A 
BRANCH  33  34
ATOM     34  N   UNL     1       9.406  -3.999   4.495  0.00  0.00    +0.058 N 
ATOM     35  O   UNL     1      10.306  -3.199   4.606  0.00  0.00    -0.126 OA
ATOM     36  O   UNL     1       8.789  -4.074   3.458  0.00  0.00    -0.126 OA
ENDBRANCH  33  34
ENDBRANCH  24  28
ENDBRANCH  20  21
ENDBRANCH   9  20
TORSDOF 5
