REMARK  Name = ZINC04217203
REMARK  14 active torsions:
REMARK  status: ('A' for Active; 'I' for Inactive)
REMARK    1  A    between atoms: C_13  and  C_33
REMARK    2  A    between atoms: C_14  and  O_32
REMARK    3  A    between atoms: C_21  and  C_25
REMARK    4  A    between atoms: C_22  and  O_24
REMARK    5  A    between atoms: C_25  and  N_62
REMARK    6  A    between atoms: C_26  and  C_27
REMARK    7  A    between atoms: C_26  and  N_62
REMARK    8  A    between atoms: C_29  and  C_30
REMARK    9  A    between atoms: C_29  and  N_62
REMARK   10  A    between atoms: C_33  and  N_66
REMARK   11  A    between atoms: C_34  and  C_35
REMARK   12  A    between atoms: C_34  and  N_66
REMARK   13  A    between atoms: C_37  and  C_38
REMARK   14  A    between atoms: C_37  and  N_66
REMARK                            x       y       z     vdW  Elec       q    Type
REMARK                         _______ _______ _______ _____ _____    ______ ____
ROOT
ATOM      1  C   UNL     1       0.358   2.126  -0.170  0.00  0.00    +0.001 A 
ATOM      2  C   UNL     1       1.395   1.214  -0.197  0.00  0.00    +0.000 A 
ATOM      3  C   UNL     1       2.724   1.611  -0.080  0.00  0.00    +0.009 A 
ATOM      4  C   UNL     1       2.962   2.959   0.069  0.00  0.00    +0.019 A 
ATOM      5  C   UNL     1       1.912   3.896   0.103  0.00  0.00    +0.067 A 
ATOM      6  C   UNL     1       0.581   3.485  -0.015  0.00  0.00    +0.015 A 
ATOM      7  C   UNL     1       2.494   5.227   0.271  0.00  0.00    +0.341 C 
ATOM      8  O   UNL     1       1.860   6.261   0.338  0.00  0.00    -0.245 OA
ATOM      9  O   UNL     1       3.837   5.139   0.340  0.00  0.00    -0.440 OA
ATOM     10  C   UNL     1       4.229   3.739   0.222  0.00  0.00    +0.196 C 
ATOM     11  C   UNL     1       5.103   3.565  -0.992  0.00  0.00    +0.048 A 
ATOM     12  C   UNL     1       4.770   4.220  -2.165  0.00  0.00    +0.017 A 
ATOM     13  C   UNL     1       5.557   4.075  -3.291  0.00  0.00    -0.022 A 
ATOM     14  C   UNL     1       6.687   3.271  -3.248  0.00  0.00    +0.122 A 
ATOM     15  C   UNL     1       7.023   2.615  -2.076  0.00  0.00    +0.092 A 
ATOM     16  C   UNL     1       6.230   2.761  -0.944  0.00  0.00    +0.140 A 
ATOM     17  O   UNL     1       6.576   2.110   0.192  0.00  0.00    -0.455 OA
ATOM     18  C   UNL     1       6.096   2.525   1.389  0.00  0.00    +0.140 A 
ATOM     19  C   UNL     1       4.960   3.316   1.468  0.00  0.00    +0.048 A 
ATOM     20  C   UNL     1       4.487   3.724   2.702  0.00  0.00    +0.017 A 
ATOM     21  C   UNL     1       5.142   3.349   3.858  0.00  0.00    -0.022 A 
ATOM     22  C   UNL     1       6.280   2.558   3.785  0.00  0.00    +0.122 A 
ATOM     23  C   UNL     1       6.756   2.147   2.551  0.00  0.00    +0.092 A 
ENDROOT
BRANCH  22  24
ATOM     24  O   UNL     1       6.926   2.189   4.922  0.00  0.00    -0.506 OA
ATOM     25  H   UNL     1       6.612   1.356   5.300  0.00  0.00    +0.292 HD
ENDBRANCH  22  24
BRANCH  14  26
ATOM     26  O   UNL     1       7.463   3.128  -4.355  0.00  0.00    -0.506 OA
ATOM     27  H   UNL     1       7.203   2.392  -4.925  0.00  0.00    +0.292 HD
ENDBRANCH  14  26
BRANCH  21  28
ATOM     28  C   UNL     1       4.620   3.797   5.199  0.00  0.00    -0.038 C 
BRANCH  28  29
ATOM     29  N   UNL     1       3.978   2.646   5.870  0.00  0.00    +0.397 N 
ATOM     30  H   UNL     1       4.631   1.853   5.869  0.00  0.00    -0.080 HD
BRANCH  29  31
ATOM     31  C   UNL     1       3.649   2.996   7.268  0.00  0.00    +0.050 C 
BRANCH  31  32
ATOM     32  C   UNL     1       4.914   2.955   8.086  0.00  0.00    +0.340 C 
ATOM     33  O   UNL     1       5.976   2.747   7.548  0.00  0.00    -0.249 OA
ATOM     34  O   UNL     1       4.861   3.151   9.413  0.00  0.00    -0.249 OA
ENDBRANCH  31  32
ENDBRANCH  29  31
BRANCH  29  35
ATOM     35  C   UNL     1       2.751   2.259   5.144  0.00  0.00    +0.050 C 
BRANCH  35  36
ATOM     36  C   UNL     1       2.329   0.887   5.604  0.00  0.00    +0.340 C 
ATOM     37  O   UNL     1       2.996   0.290   6.415  0.00  0.00    -0.249 OA
ATOM     38  O   UNL     1       1.212   0.328   5.111  0.00  0.00    -0.249 OA
ENDBRANCH  35  36
ENDBRANCH  29  35
ENDBRANCH  28  29
ENDBRANCH  21  28
BRANCH  13  39
ATOM     39  C   UNL     1       5.188   4.790  -4.565  0.00  0.00    -0.038 C 
BRANCH  39  40
ATOM     40  N   UNL     1       6.116   5.924  -4.762  0.00  0.00    +0.397 N 
ATOM     41  H   UNL     1       7.081   5.581  -4.686  0.00  0.00    -0.080 HD
BRANCH  40  42
ATOM     42  C   UNL     1       5.918   6.512  -6.103  0.00  0.00    +0.050 C 
BRANCH  42  43
ATOM     43  C   UNL     1       6.604   5.636  -7.120  0.00  0.00    +0.340 C 
ATOM     44  O   UNL     1       7.162   4.623  -6.767  0.00  0.00    -0.249 OA
ATOM     45  O   UNL     1       6.596   5.980  -8.417  0.00  0.00    -0.249 OA
ENDBRANCH  42  43
ENDBRANCH  40  42
BRANCH  40  46
ATOM     46  C   UNL     1       5.888   6.949  -3.722  0.00  0.00    +0.050 C 
BRANCH  46  47
ATOM     47  C   UNL     1       7.059   7.897  -3.712  0.00  0.00    +0.340 C 
ATOM     48  O   UNL     1       7.980   7.727  -4.475  0.00  0.00    -0.249 OA
ATOM     49  O   UNL     1       7.080   8.930  -2.854  0.00  0.00    -0.249 OA
ENDBRANCH  46  47
ENDBRANCH  40  46
ENDBRANCH  39  40
ENDBRANCH  13  39
TORSDOF 14
