REMARK  Name = ZINC08768791
REMARK  5 active torsions:
REMARK  status: ('A' for Active; 'I' for Inactive)
REMARK    1  A    between atoms: C_1  and  C_2
REMARK    2  A    between atoms: C_2  and  C_33
REMARK    3  A    between atoms: C_9  and  C_10
REMARK    4  A    between atoms: C_9  and  N_73
REMARK    5  A    between atoms: C_14  and  O_16
REMARK                            x       y       z     vdW  Elec       q    Type
REMARK                         _______ _______ _______ _____ _____    ______ ____
ROOT
ATOM      1  C   UNL     1      -4.321   1.917   4.894  0.00  0.00    +0.117 A 
ATOM      2  N   UNL     1      -4.737   0.921   5.652  0.00  0.00    -0.233 NA
ATOM      3  C   UNL     1      -6.032   0.638   5.739  0.00  0.00    +0.082 A 
ATOM      4  C   UNL     1      -6.949   1.420   5.041  0.00  0.00    +0.046 A 
ATOM      5  C   UNL     1      -6.469   2.456   4.251  0.00  0.00    +0.220 A 
ATOM      6  N   UNL     1      -5.156   2.672   4.209  0.00  0.00    -0.200 NA
ATOM      7  C   UNL     1      -8.423   1.147   5.154  0.00  0.00    +0.007 C 
ATOM      8  C   UNL     1      -8.977   1.855   6.394  0.00  0.00    +0.012 C 
ATOM      9  C   UNL     1     -10.477   1.581   6.510  0.00  0.00    +0.001 C 
ATOM     10  C   UNL     1     -11.190   2.111   5.264  0.00  0.00    +0.000 C 
ATOM     11  C   UNL     1     -10.636   1.409   4.022  0.00  0.00    +0.001 C 
ATOM     12  C   UNL     1      -9.136   1.683   3.908  0.00  0.00    +0.012 C 
ATOM     13  C   UNL     1      -8.677  -0.355   5.275  0.00  0.00    +0.047 C 
ATOM     14  C   UNL     1      -7.827  -0.950   6.365  0.00  0.00    -0.037 A 
ATOM     15  C   UNL     1      -6.530  -0.479   6.573  0.00  0.00    +0.004 A 
ATOM     16  C   UNL     1      -5.720  -1.075   7.533  0.00  0.00    +0.010 A 
ATOM     17  C   UNL     1      -6.216  -2.108   8.304  0.00  0.00    +0.001 A 
ATOM     18  C   UNL     1      -7.512  -2.553   8.115  0.00  0.00    +0.000 A 
ATOM     19  C   UNL     1      -8.315  -1.977   7.147  0.00  0.00    +0.004 A 
ENDROOT
BRANCH   5  20
ATOM     20  O   UNL     1      -7.320   3.236   3.541  0.00  0.00    -0.492 OA
ATOM     21  H   UNL     1      -7.633   4.015   4.021  0.00  0.00    +0.294 HD
ENDBRANCH   5  20
BRANCH   1  22
ATOM     22  C   UNL     1      -2.844   2.206   4.815  0.00  0.00    -0.001 C 
BRANCH  22  35
ATOM     23  C   UNL     1      -2.685   2.038  -2.397  0.00  0.00    +0.041 C 
ATOM     24  C   UNL     1      -2.060   1.181  -1.274  0.00  0.00    +0.064 C 
ATOM     25  C   UNL     1      -2.878   1.398  -0.011  0.00  0.00    +0.039 C 
ATOM     26  C   UNL     1      -2.153   1.063   1.286  0.00  0.00    -0.039 C 
ATOM     27  C   UNL     1      -2.156  -0.446   1.531  0.00  0.00    +0.003 C 
ATOM     28  C   UNL     1      -1.549  -0.761   2.901  0.00  0.00    -0.018 C 
ATOM     29  C   UNL     1      -2.314  -0.007   3.990  0.00  0.00    -0.078 C 
ATOM     30  C   UNL     1      -2.907   1.750   2.439  0.00  0.00    -0.071 C 
ATOM     31  C   UNL     1      -0.719   1.590   1.268  0.00  0.00    +0.033 C 
ATOM     32  C   UNL     1      -0.013   1.082   0.008  0.00  0.00    +0.161 C 
ATOM     33  O   UNL     1      -0.706   1.588  -1.129  0.00  0.00    -0.374 OA
ATOM     34  C   UNL     1      -2.132  -0.282  -1.722  0.00  0.00    +0.041 C 
ATOM     35  N   UNL     1      -2.226   1.441   3.711  0.00  0.00    +0.385 N 
ATOM     36  H   UNL     1      -1.237   1.707   3.633  0.00  0.00    -0.081 HD
ENDBRANCH  22  35
ENDBRANCH   1  22
TORSDOF 3
