REMARK  Name = ZINC35954676
REMARK  15 active torsions:
REMARK  status: ('A' for Active; 'I' for Inactive)
REMARK    1  A    between atoms: C_1  and  C_2
REMARK    2  A    between atoms: C_2  and  C_3
REMARK    3  A    between atoms: C_3  and  N_4
REMARK    4  A    between atoms: N_4  and  C_5
REMARK    5  A    between atoms: N_4  and  C_14
REMARK    6  A    between atoms: C_5  and  C_6
REMARK    7  A    between atoms: C_9  and  O_13
REMARK    8  A    between atoms: C_10  and  O_12
REMARK    9  A    between atoms: C_14  and  C_15
REMARK   10  A    between atoms: C_16  and  C_34
REMARK   11  A    between atoms: N_18  and  C_28
REMARK   12  A    between atoms: C_19  and  N_20
REMARK   13  A    between atoms: N_23  and  C_26
REMARK   14  A    between atoms: C_26  and  C_27
REMARK   15  A    between atoms: C_34  and  C_35
REMARK                            x       y       z     vdW  Elec       q    Type
REMARK                         _______ _______ _______ _____ _____    ______ ____
ROOT
ATOM      1  C   UNL     1      -1.577  -2.000   0.347  0.00  0.00    -0.001 A 
ATOM      2  C   UNL     1      -1.138  -2.806   1.401  0.00  0.00    +0.066 A 
ATOM      3  N   UNL     1      -1.557  -2.283   2.525  0.00  0.00    -0.169 NA
ATOM      4  N   UNL     1      -2.281  -1.121   2.230  0.00  0.00    -0.218 N 
ATOM      5  C   UNL     1      -2.277  -0.960   0.879  0.00  0.00    +0.126 A 
ENDROOT
BRANCH   5   6
ATOM      6  N   UNL     1      -2.880   0.075   0.170  0.00  0.00    -0.318 N 
ATOM      7  C   UNL     1      -2.195   1.364  -0.015  0.00  0.00    +0.088 C 
ATOM      8  C   UNL     1      -2.235   1.726  -1.503  0.00  0.00    -0.060 C 
ATOM      9  N   UNL     1      -3.625   1.705  -1.974  0.00  0.00    +0.382 N 
ATOM     10  C   UNL     1      -4.163   0.341  -1.885  0.00  0.00    -0.060 C 
ATOM     11  C   UNL     1      -4.217  -0.091  -0.420  0.00  0.00    +0.088 C 
ATOM     12  H   UNL     1      -4.182   2.323  -1.403  0.00  0.00    -0.082 HD
BRANCH   9  13
ATOM     13  C   UNL     1      -3.674   2.157  -3.371  0.00  0.00    -0.082 C 
ATOM     14  C   UNL     1      -5.132   2.255  -3.825  0.00  0.00    -0.017 C 
ENDBRANCH   9  13
ENDBRANCH   5   6
BRANCH   4  15
ATOM     15  C   UNL     1      -2.895  -0.271   3.161  0.00  0.00    +0.067 A 
ATOM     16  C   UNL     1      -2.771   1.106   3.034  0.00  0.00    +0.028 A 
ATOM     17  C   UNL     1      -3.377   1.940   3.952  0.00  0.00    +0.002 A 
ATOM     18  C   UNL     1      -4.107   1.406   4.998  0.00  0.00    +0.000 A 
ATOM     19  C   UNL     1      -4.232   0.035   5.128  0.00  0.00    +0.002 A 
ATOM     20  C   UNL     1      -3.633  -0.805   4.209  0.00  0.00    +0.028 A 
ENDBRANCH   4  15
BRANCH   2  21
ATOM     21  C   UNL     1      -0.322  -4.065   1.266  0.00  0.00    +0.054 C 
ATOM     22  C   UNL     1       1.152  -3.747   1.526  0.00  0.00    +0.010 C 
ENDBRANCH   2  21
BRANCH   1  23
ATOM     23  C   UNL     1      -1.317  -2.237  -1.119  0.00  0.00    -0.037 C 
BRANCH  23  24
ATOM     24  N   UNL     1      -0.311  -1.280  -1.598  0.00  0.00    +0.385 N 
ATOM     25  H   UNL     1      -0.643  -0.339  -1.448  0.00  0.00    -0.081 HD
BRANCH  24  26
ATOM     26  C   UNL     1      -0.077  -1.492  -3.033  0.00  0.00    -0.078 C 
BRANCH  26  28
ATOM     27  C   UNL     1      -1.093  -1.340  -5.310  0.00  0.00    +0.002 C 
ATOM     28  C   UNL     1      -1.346  -1.146  -3.813  0.00  0.00    -0.022 C 
ENDBRANCH  26  28
ENDBRANCH  24  26
BRANCH  24  29
ATOM     29  C   UNL     1       0.945  -1.479  -0.862  0.00  0.00    -0.042 C 
BRANCH  29  30
ATOM     30  C   UNL     1       1.933  -0.412  -1.256  0.00  0.00    -0.060 A 
ATOM     31  C   UNL     1       2.787  -0.623  -2.323  0.00  0.00    +0.005 A 
ATOM     32  C   UNL     1       3.696   0.353  -2.689  0.00  0.00    +0.049 A 
ATOM     33  C   UNL     1       3.751   1.546  -1.986  0.00  0.00    +0.158 A 
ATOM     34  C   UNL     1       2.891   1.759  -0.913  0.00  0.00    +0.158 A 
ATOM     35  C   UNL     1       1.980   0.778  -0.554  0.00  0.00    +0.051 A 
BRANCH  34  36
ATOM     36  O   UNL     1       2.942   2.928  -0.220  0.00  0.00    -0.503 OA
ATOM     37  H   UNL     1       2.359   3.617  -0.568  0.00  0.00    +0.292 HD
ENDBRANCH  34  36
BRANCH  33  38
ATOM     38  O   UNL     1       4.644   2.507  -2.344  0.00  0.00    -0.503 OA
ATOM     39  H   UNL     1       4.305   3.136  -2.996  0.00  0.00    +0.292 HD
ENDBRANCH  33  38
ENDBRANCH  29  30
ENDBRANCH  24  29
ENDBRANCH  23  24
ENDBRANCH   1  23
TORSDOF 12
