REMARK  Name = ZINC09988516
REMARK  14 active torsions:
REMARK  status: ('A' for Active; 'I' for Inactive)
REMARK    1  A    between atoms: C_1  and  C_2
REMARK    2  A    between atoms: C_2  and  C_3
REMARK    3  A    between atoms: C_3  and  C_5
REMARK    4  A    between atoms: C_3  and  N_64
REMARK    5  A    between atoms: C_8  and  S_17
REMARK    6  A    between atoms: N_9  and  C_10
REMARK    7  A    between atoms: C_10  and  C_11
REMARK    8  A    between atoms: S_17  and  C_18
REMARK    9  A    between atoms: C_18  and  C_19
REMARK   10  A    between atoms: N_21  and  C_22
REMARK   11  A    between atoms: C_27  and  C_28
REMARK   12  A    between atoms: C_28  and  C_30
REMARK   13  A    between atoms: C_34  and  N_64
REMARK   14  A    between atoms: C_35  and  N_64
REMARK                            x       y       z     vdW  Elec       q    Type
REMARK                         _______ _______ _______ _____ _____    ______ ____
ROOT
ATOM      1  C   UNL     1      -0.010   0.305  -1.094  0.00  0.00    +0.121 A 
ATOM      2  N   UNL     1       0.084   1.533  -0.671  0.00  0.00    -0.135 NA
ATOM      3  N   UNL     1       1.252   2.002  -0.931  0.00  0.00    -0.123 NA
ATOM      4  C   UNL     1       1.973   1.089  -1.540  0.00  0.00    +0.192 A 
ATOM      5  N   UNL     1       1.190  -0.023  -1.663  0.00  0.00    -0.303 N 
ENDROOT
BRANCH   1   6
ATOM      6  C   UNL     1      -1.217  -0.590  -0.979  0.00  0.00    +0.000 C 
BRANCH   6   9
ATOM      7  C   UNL     1      -0.610  -1.342   1.241  0.00  0.00    -0.096 C 
ATOM      8  C   UNL     1      -1.942   0.660   0.964  0.00  0.00    -0.096 C 
ATOM      9  N   UNL     1      -1.657  -0.688   0.429  0.00  0.00    +0.383 N 
ATOM     10  H   UNL     1      -2.514  -1.252   0.472  0.00  0.00    -0.082 HD
ENDBRANCH   6   9
BRANCH   6  12
ATOM     11  C   UNL     1      -3.576  -0.939  -1.725  0.00  0.00    +0.002 C 
ATOM     12  C   UNL     1      -2.360  -0.013  -1.816  0.00  0.00    -0.011 C 
ENDBRANCH   6  12
ENDBRANCH   1   6
BRANCH   5  13
ATOM     13  C   UNL     1       1.559  -1.301  -2.276  0.00  0.00    +0.160 C 
BRANCH  13  14
ATOM     14  C   UNL     1       1.217  -1.271  -3.744  0.00  0.00    -0.028 A 
ATOM     15  C   UNL     1      -0.027  -1.694  -4.172  0.00  0.00    +0.005 A 
ATOM     16  C   UNL     1      -0.342  -1.662  -5.518  0.00  0.00    +0.000 A 
ATOM     17  C   UNL     1       0.590  -1.217  -6.436  0.00  0.00    +0.000 A 
ATOM     18  C   UNL     1       1.836  -0.798  -6.008  0.00  0.00    +0.000 A 
ATOM     19  C   UNL     1       2.150  -0.826  -4.662  0.00  0.00    +0.005 A 
ENDBRANCH  13  14
ENDBRANCH   5  13
BRANCH   4  20
ATOM     20  S   UNL     1       3.637   1.265  -2.094  0.00  0.00    -0.077 S 
BRANCH  20  21
ATOM     21  C   UNL     1       3.961   2.970  -1.579  0.00  0.00    +0.173 C 
BRANCH  21  22
ATOM     22  C   UNL     1       5.367   3.352  -1.960  0.00  0.00    +0.228 C 
ATOM     23  O   UNL     1       6.081   2.550  -2.526  0.00  0.00    -0.275 OA
ATOM     24  N   UNL     1       5.833   4.583  -1.674  0.00  0.00    -0.284 N 
ATOM     25  H   UNL     1       5.295   5.195  -1.147  0.00  0.00    +0.155 HD
BRANCH  24  26
ATOM     26  C   UNL     1       7.086   4.979  -2.136  0.00  0.00    +0.048 A 
ATOM     27  C   UNL     1       8.153   4.096  -2.093  0.00  0.00    +0.073 A 
ATOM     28  C   UNL     1       9.401   4.488  -2.552  0.00  0.00    +0.168 A 
ATOM     29  C   UNL     1       9.591   5.777  -3.060  0.00  0.00    +0.167 A 
ATOM     30  C   UNL     1       8.539   6.665  -3.107  0.00  0.00    +0.062 A 
ATOM     31  C   UNL     1       7.272   6.275  -2.652  0.00  0.00    +0.042 A 
ATOM     32  O   UNL     1      10.898   5.905  -3.439  0.00  0.00    -0.453 OA
ATOM     33  C   UNL     1      11.595   4.831  -2.783  0.00  0.00    +0.466 C 
ATOM     34  O   UNL     1      10.586   3.817  -2.616  0.00  0.00    -0.453 OA
BRANCH  31  35
ATOM     35  C   UNL     1       6.148   7.213  -2.707  0.00  0.00    +0.162 C 
ATOM     36  O   UNL     1       5.068   6.892  -2.258  0.00  0.00    -0.292 OA
ATOM     37  C   UNL     1       6.335   8.576  -3.321  0.00  0.00    +0.091 C 
ENDBRANCH  31  35
ENDBRANCH  24  26
ENDBRANCH  21  22
ENDBRANCH  20  21
ENDBRANCH   4  20
TORSDOF 10
