REMARK  Name = ZINC22431798
REMARK  11 active torsions:
REMARK  status: ('A' for Active; 'I' for Inactive)
REMARK    1  A    between atoms: C_1  and  C_2
REMARK    2  A    between atoms: C_5  and  S_8
REMARK    3  A    between atoms: S_8  and  N_11
REMARK    4  A    between atoms: N_11  and  C_12
REMARK    5  A    between atoms: N_11  and  C_29
REMARK    6  A    between atoms: C_12  and  C_13
REMARK    7  A    between atoms: N_15  and  C_16
REMARK    8  A    between atoms: C_16  and  C_17
REMARK    9  A    between atoms: C_20  and  N_23
REMARK   10  A    between atoms: C_27  and  C_28
REMARK   11  A    between atoms: C_34  and  C_35
REMARK                            x       y       z     vdW  Elec       q    Type
REMARK                         _______ _______ _______ _____ _____    ______ ____
ROOT
ATOM      1  N   UNL     1       7.590   9.973  -1.799  0.00  0.00    -0.194 N 
ENDROOT
BRANCH   1   2
ATOM      2  C   UNL     1       7.034  10.829  -2.754  0.00  0.00    +0.055 A 
ATOM      3  C   UNL     1       5.939  11.618  -2.427  0.00  0.00    +0.026 A 
ATOM      4  C   UNL     1       5.392  12.464  -3.372  0.00  0.00    +0.022 A 
ATOM      5  C   UNL     1       5.934  12.525  -4.644  0.00  0.00    +0.041 A 
ATOM      6  C   UNL     1       7.025  11.740  -4.972  0.00  0.00    +0.025 A 
ATOM      7  C   UNL     1       7.580  10.897  -4.029  0.00  0.00    -0.026 A 
ATOM      8  C   UNL     1       8.773  10.048  -4.385  0.00  0.00    +0.046 C 
ATOM      9 CL   UNL     1       5.244  13.589  -5.829  0.00  0.00    -0.084 Cl
ENDBRANCH   1   2
BRANCH   1  10
ATOM     10  S   UNL     1       8.843  10.493  -0.850  0.00  0.00    +0.075 S 
ATOM     11  O   UNL     1       8.873  11.909  -0.956  0.00  0.00    -0.150 OA
ATOM     12  O   UNL     1       8.712   9.825   0.397  0.00  0.00    -0.150 OA
BRANCH  10  17
ATOM     13  C   UNL     1      13.943   8.469  -3.361  0.00  0.00    +0.044 C 
ATOM     14  C   UNL     1      12.669   8.974  -2.734  0.00  0.00    -0.050 A 
ATOM     15  C   UNL     1      12.239  10.264  -2.985  0.00  0.00    +0.005 A 
ATOM     16  C   UNL     1      11.071  10.728  -2.410  0.00  0.00    +0.029 A 
ATOM     17  C   UNL     1      10.332   9.902  -1.584  0.00  0.00    +0.109 A 
ATOM     18  C   UNL     1      10.764   8.613  -1.329  0.00  0.00    +0.029 A 
ATOM     19  C   UNL     1      11.930   8.148  -1.908  0.00  0.00    +0.005 A 
ENDBRANCH  10  17
ENDBRANCH   1  10
BRANCH   1  20
ATOM     20  C   UNL     1       7.064   8.615  -1.639  0.00  0.00    +0.227 C 
BRANCH  20  21
ATOM     21  C   UNL     1       5.876   8.643  -0.711  0.00  0.00    +0.232 C 
ATOM     22  O   UNL     1       5.506   9.694  -0.232  0.00  0.00    -0.274 OA
ATOM     23  N   UNL     1       5.225   7.501  -0.415  0.00  0.00    -0.310 N 
ATOM     24  H   UNL     1       5.561   6.548  -0.850  0.00  0.00    +0.149 HD
BRANCH  23  25
ATOM     25  C   UNL     1       4.071   7.528   0.487  0.00  0.00    +0.139 C 
BRANCH  25  26
ATOM     26  C   UNL     1       3.529   6.132   0.652  0.00  0.00    -0.030 A 
ATOM     27  C   UNL     1       4.009   5.321   1.664  0.00  0.00    +0.007 A 
ATOM     28  C   UNL     1       3.514   4.040   1.818  0.00  0.00    +0.026 A 
ATOM     29  C   UNL     1       2.535   3.568   0.956  0.00  0.00    +0.048 A 
ATOM     30  C   UNL     1       2.059   4.382  -0.063  0.00  0.00    +0.026 A 
ATOM     31  C   UNL     1       2.554   5.663  -0.209  0.00  0.00    +0.007 A 
BRANCH  29  32
ATOM     32  N   UNL     1       2.031   2.268   1.109  0.00  0.00    -0.305 N 
ATOM     33  C   UNL     1       2.767   1.118   1.234  0.00  0.00    +0.110 A 
ATOM     34  C   UNL     1       1.890   0.105   1.358  0.00  0.00    +0.102 A 
ATOM     35  N   UNL     1       0.650   0.615   1.307  0.00  0.00    -0.350 N 
ATOM     36  C   UNL     1       0.722   1.910   1.163  0.00  0.00    +0.088 A 
ATOM     37  C   UNL     1      -0.452   2.851   1.067  0.00  0.00    +0.084 C 
ATOM     38  H   UNL     1      -0.222  -0.050   1.384  0.00  0.00    +0.166 HD
ENDBRANCH  29  32
ENDBRANCH  25  26
ENDBRANCH  23  25
ENDBRANCH  20  21
ENDBRANCH   1  20
TORSDOF 8
