REMARK  Name = ZINC33376654
REMARK  5 active torsions:
REMARK  status: ('A' for Active; 'I' for Inactive)
REMARK    1  A    between atoms: C_2  and  C_9
REMARK    2  A    between atoms: N_11  and  S_12
REMARK    3  A    between atoms: S_12  and  C_15
REMARK    4  A    between atoms: C_17  and  C_25
REMARK    5  A    between atoms: C_19  and  C_21
REMARK                            x       y       z     vdW  Elec       q    Type
REMARK                         _______ _______ _______ _____ _____    ______ ____
ROOT
ATOM      1  S   UNL     1       2.395   5.840   0.009  0.00  0.00    +0.100 S 
ATOM      2  O   UNL     1       1.840   6.263  -1.229  0.00  0.00    -0.146 OA
ATOM      3  O   UNL     1       1.863   6.250   1.262  0.00  0.00    -0.146 OA
ENDROOT
BRANCH   1   4
ATOM      4  C   UNL     1       4.087   6.329  -0.004  0.00  0.00    +0.114 A 
ATOM      5  C   UNL     1       4.764   6.509   1.188  0.00  0.00    +0.041 A 
ATOM      6  C   UNL     1       6.092   6.893   1.177  0.00  0.00    +0.057 A 
ATOM      7  C   UNL     1       6.744   7.096  -0.025  0.00  0.00    +0.024 A 
ATOM      8  C   UNL     1       6.067   6.915  -1.217  0.00  0.00    +0.057 A 
ATOM      9  C   UNL     1       4.740   6.527  -1.206  0.00  0.00    +0.041 A 
BRANCH   8  10
ATOM     10  C   UNL     1       6.777   7.136  -2.527  0.00  0.00    +0.417 C 
ATOM     11  F   UNL     1       8.101   7.516  -2.282  0.00  0.00    -0.166 F 
ATOM     12  F   UNL     1       6.762   5.952  -3.272  0.00  0.00    -0.166 F 
ATOM     13  F   UNL     1       6.127   8.146  -3.245  0.00  0.00    -0.166 F 
ENDBRANCH   8  10
BRANCH   6  14
ATOM     14  C   UNL     1       6.830   7.090   2.477  0.00  0.00    +0.417 C 
ATOM     15  F   UNL     1       7.424   5.884   2.864  0.00  0.00    -0.166 F 
ATOM     16  F   UNL     1       7.819   8.065   2.308  0.00  0.00    -0.166 F 
ATOM     17  F   UNL     1       5.931   7.505   3.465  0.00  0.00    -0.166 F 
ENDBRANCH   6  14
ENDBRANCH   1   4
BRANCH   1  20
ATOM     18  C   UNL     1       1.224   3.555   0.009  0.00  0.00    +0.145 C 
ATOM     19  N   UNL     1       0.044   4.266   0.024  0.00  0.00    -0.341 N 
ATOM     20  N   UNL     1       2.363   4.184   0.002  0.00  0.00    -0.113 NA
ATOM     21  H   UNL     1      -0.805   3.798   0.029  0.00  0.00    +0.144 HD
ATOM     22  H   UNL     1       0.063   5.236   0.028  0.00  0.00    +0.144 HD
BRANCH  18  24
ATOM     23  C   UNL     1      -0.017   1.378   0.010  0.00  0.00    +0.051 A 
ATOM     24  C   UNL     1       1.196   2.073   0.002  0.00  0.00    +0.022 A 
ATOM     25  C   UNL     1       2.381   1.333  -0.013  0.00  0.00    +0.051 A 
ATOM     26  C   UNL     1       2.310  -0.048  -0.020  0.00  0.00    +0.132 A 
ATOM     27  N   UNL     1       1.144  -0.666  -0.013  0.00  0.00    -0.224 NA
ATOM     28  C   UNL     1       0.002  -0.004   0.002  0.00  0.00    +0.132 A 
ATOM     29 CL   UNL     1      -1.496  -0.881   0.012  0.00  0.00    -0.062 Cl
ATOM     30 CL   UNL     1       3.773  -0.981  -0.039  0.00  0.00    -0.062 Cl
ENDBRANCH  18  24
ENDBRANCH   1  20
TORSDOF 5
