REMARK  Name = ZINC36032519
REMARK  8 active torsions:
REMARK  status: ('A' for Active; 'I' for Inactive)
REMARK    1  A    between atoms: C_1  and  C_2
REMARK    2  A    between atoms: C_2  and  C_3
REMARK    3  A    between atoms: C_2  and  C_4
REMARK    4  A    between atoms: C_4  and  C_5
REMARK    5  A    between atoms: N_9  and  C_24
REMARK    6  A    between atoms: C_17  and  C_19
REMARK    7  A    between atoms: C_24  and  C_25
REMARK    8  A    between atoms: C_29  and  C_31
REMARK                            x       y       z     vdW  Elec       q    Type
REMARK                         _______ _______ _______ _____ _____    ______ ____
ROOT
ATOM      1  C   UNL     1      -1.472  -2.248  -0.832  0.00  0.00    +0.019 C 
ATOM      2  C   UNL     1      -2.796  -2.964  -0.674  0.00  0.00    +0.201 C 
ATOM      3  O   UNL     1      -3.553  -2.855   0.267  0.00  0.00    -0.277 OA
ATOM      4  N   UNL     1      -2.993  -3.743  -1.758  0.00  0.00    -0.309 N 
ATOM      5  C   UNL     1      -1.854  -3.607  -2.671  0.00  0.00    +0.006 C 
ATOM      6  N   UNL     1      -1.139  -2.375  -2.272  0.00  0.00    +0.401 N 
ATOM      7  C   UNL     1      -2.345  -3.477  -4.112  0.00  0.00    +0.025 C 
ATOM      8  C   UNL     1      -3.115  -4.742  -4.504  0.00  0.00    +0.108 C 
ATOM      9  N   UNL     1      -2.261  -5.912  -4.250  0.00  0.00    -0.295 N 
ATOM     10  C   UNL     1      -1.680  -6.086  -2.913  0.00  0.00    +0.108 C 
ATOM     11  C   UNL     1      -0.922  -4.809  -2.534  0.00  0.00    +0.025 C 
ATOM     12  C   UNL     1      -2.018  -6.808  -5.227  0.00  0.00    +0.282 C 
ATOM     13  O   UNL     1      -1.405  -7.829  -4.977  0.00  0.00    -0.267 OA
ATOM     14  H   UNL     1      -1.484  -1.580  -2.789  0.00  0.00    -0.082 HD
ATOM     15  H   UNL     1      -0.144  -2.481  -2.399  0.00  0.00    -0.082 HD
ENDROOT
BRANCH  12  16
ATOM     16  C   UNL     1      -2.490  -6.552  -6.592  0.00  0.00    +0.189 A 
ATOM     17  C   UNL     1      -2.443  -7.431  -7.636  0.00  0.00    +0.054 A 
ATOM     18  C   UNL     1      -2.999  -6.773  -8.743  0.00  0.00    +0.042 A 
ATOM     19  C   UNL     1      -3.358  -5.536  -8.332  0.00  0.00    +0.196 A 
ATOM     20  O   UNL     1      -3.054  -5.409  -7.034  0.00  0.00    -0.458 OA
ENDBRANCH  12  16
BRANCH   1  21
ATOM     21  C   UNL     1      -1.614  -0.774  -0.447  0.00  0.00    -0.004 C 
BRANCH  21  23
ATOM     22  C   UNL     1      -0.420   1.416  -0.301  0.00  0.00    +0.007 C 
ATOM     23  C   UNL     1      -0.255  -0.082  -0.565  0.00  0.00    -0.018 C 
ATOM     24  C   UNL     1       0.711  -0.677   0.462  0.00  0.00    +0.007 C 
ENDBRANCH  21  23
ENDBRANCH   1  21
BRANCH   4  25
ATOM     25  C   UNL     1      -4.164  -4.593  -1.987  0.00  0.00    +0.141 C 
BRANCH  25  26
ATOM     26  C   UNL     1      -5.320  -3.742  -2.446  0.00  0.00    -0.030 A 
ATOM     27  C   UNL     1      -6.293  -3.353  -1.544  0.00  0.00    +0.005 A 
ATOM     28  C   UNL     1      -7.353  -2.573  -1.964  0.00  0.00    +0.001 A 
ATOM     29  C   UNL     1      -7.441  -2.181  -3.287  0.00  0.00    +0.012 A 
ATOM     30  C   UNL     1      -6.468  -2.568  -4.189  0.00  0.00    +0.055 A 
ATOM     31  C   UNL     1      -5.405  -3.345  -3.767  0.00  0.00    +0.017 A 
BRANCH  30  32
ATOM     32  C   UNL     1      -6.564  -2.141  -5.631  0.00  0.00    +0.417 C 
ATOM     33  F   UNL     1      -7.714  -1.366  -5.812  0.00  0.00    -0.166 F 
ATOM     34  F   UNL     1      -5.435  -1.388  -5.970  0.00  0.00    -0.166 F 
ATOM     35  F   UNL     1      -6.631  -3.274  -6.449  0.00  0.00    -0.166 F 
ENDBRANCH  30  32
ENDBRANCH  25  26
ENDBRANCH   4  25
TORSDOF 6
