REMARK  Name = ZINC09763519
REMARK  9 active torsions:
REMARK  status: ('A' for Active; 'I' for Inactive)
REMARK    1  A    between atoms: C_4  and  C_7
REMARK    2  A    between atoms: C_7  and  C_8
REMARK    3  A    between atoms: C_8  and  N_9
REMARK    4  A    between atoms: N_9  and  C_10
REMARK    5  A    between atoms: C_10  and  C_11
REMARK    6  A    between atoms: C_17  and  C_19
REMARK    7  A    between atoms: C_29  and  C_30
REMARK    8  A    between atoms: C_29  and  N_68
REMARK    9  A    between atoms: C_33  and  O_36
REMARK                            x       y       z     vdW  Elec       q    Type
REMARK                         _______ _______ _______ _____ _____    ______ ____
ROOT
ATOM      1  C   UNL     1      -6.575   0.126   1.338  0.00  0.00    +0.025 C 
ATOM      2  C   UNL     1      -6.864  -0.736   0.109  0.00  0.00    +0.029 C 
ATOM      3  C   UNL     1      -8.210  -1.400   0.252  0.00  0.00    -0.047 A 
ATOM      4  C   UNL     1      -8.505  -2.478  -0.569  0.00  0.00    +0.004 A 
ATOM      5  C   UNL     1      -9.725  -3.116  -0.472  0.00  0.00    +0.000 A 
ATOM      6  C   UNL     1     -10.659  -2.677   0.449  0.00  0.00    +0.000 A 
ATOM      7  C   UNL     1     -10.366  -1.605   1.267  0.00  0.00    +0.002 A 
ATOM      8  C   UNL     1      -9.139  -0.964   1.172  0.00  0.00    -0.061 A 
ATOM      9  C   UNL     1      -8.864   0.198   2.090  0.00  0.00    -0.041 C 
ATOM     10  N   UNL     1      -7.744   0.998   1.567  0.00  0.00    +0.393 N 
ATOM     11  H   UNL     1      -8.024   1.425   0.675  0.00  0.00    -0.080 HD
ENDROOT
BRANCH   1  13
ATOM     12  N   UNL     1      -4.141   0.542   1.477  0.00  0.00    -0.298 N 
ATOM     13  C   UNL     1      -5.356   0.975   1.087  0.00  0.00    +0.203 C 
ATOM     14  O   UNL     1      -5.468   2.048   0.533  0.00  0.00    -0.277 OA
BRANCH  12  15
ATOM     15  C   UNL     1      -3.989  -0.800   2.045  0.00  0.00    +0.112 C 
BRANCH  15  16
ATOM     16  C   UNL     1      -4.171  -0.735   3.563  0.00  0.00    +0.054 C 
BRANCH  16  20
ATOM     17  C   UNL     1      -3.729  -4.645   5.224  0.00  0.00    +0.000 A 
ATOM     18  C   UNL     1      -2.626  -3.823   5.089  0.00  0.00    +0.000 A 
ATOM     19  C   UNL     1      -2.768  -2.559   4.548  0.00  0.00    +0.004 A 
ATOM     20  C   UNL     1      -4.015  -2.115   4.147  0.00  0.00    -0.046 A 
ATOM     21  C   UNL     1      -5.117  -2.939   4.279  0.00  0.00    +0.004 A 
ATOM     22  C   UNL     1      -4.975  -4.203   4.819  0.00  0.00    +0.000 A 
ENDBRANCH  16  20
ENDBRANCH  15  16
ENDBRANCH  12  15
BRANCH  12  23
ATOM     23  C   UNL     1      -2.971   1.413   1.333  0.00  0.00    +0.142 C 
BRANCH  23  24
ATOM     24  C   UNL     1      -2.301   1.139   0.012  0.00  0.00    -0.030 A 
ATOM     25  C   UNL     1      -1.352   0.139  -0.087  0.00  0.00    +0.005 A 
ATOM     26  C   UNL     1      -0.740  -0.115  -1.301  0.00  0.00    +0.000 A 
ATOM     27  C   UNL     1      -1.069   0.638  -2.412  0.00  0.00    +0.000 A 
ATOM     28  C   UNL     1      -2.015   1.641  -2.312  0.00  0.00    +0.000 A 
ATOM     29  C   UNL     1      -2.630   1.892  -1.100  0.00  0.00    +0.005 A 
ENDBRANCH  23  24
ENDBRANCH  12  23
ENDBRANCH   1  13
BRANCH  10  30
ATOM     30  C   UNL     1      -7.398   2.071   2.526  0.00  0.00    -0.041 C 
BRANCH  30  31
ATOM     31  C   UNL     1      -8.636   2.869   2.845  0.00  0.00    -0.064 A 
ATOM     32  C   UNL     1      -8.970   3.965   2.072  0.00  0.00    +0.005 A 
ATOM     33  C   UNL     1     -10.107   4.694   2.359  0.00  0.00    +0.045 A 
ATOM     34  C   UNL     1     -10.909   4.332   3.431  0.00  0.00    +0.117 A 
ATOM     35  C   UNL     1     -10.569   3.235   4.209  0.00  0.00    +0.045 A 
ATOM     36  C   UNL     1      -9.434   2.505   3.914  0.00  0.00    +0.005 A 
BRANCH  34  37
ATOM     37  O   UNL     1     -12.026   5.051   3.720  0.00  0.00    -0.507 OA
ATOM     38  H   UNL     1     -11.875   5.783   4.334  0.00  0.00    +0.292 HD
ENDBRANCH  34  37
ENDBRANCH  30  31
ENDBRANCH  10  30
TORSDOF 9
