REMARK  Name = ZINC09517259
REMARK  9 active torsions:
REMARK  status: ('A' for Active; 'I' for Inactive)
REMARK    1  A    between atoms: C_1  and  C_2
REMARK    2  A    between atoms: C_2  and  O_3
REMARK    3  A    between atoms: O_3  and  C_4
REMARK    4  A    between atoms: C_4  and  C_6
REMARK    5  A    between atoms: N_9  and  C_12
REMARK    6  A    between atoms: C_12  and  C_14
REMARK    7  A    between atoms: C_12  and  C_21
REMARK    8  A    between atoms: C_22  and  O_30
REMARK    9  A    between atoms: C_27  and  C_29
REMARK                            x       y       z     vdW  Elec       q    Type
REMARK                         _______ _______ _______ _____ _____    ______ ____
ROOT
ATOM      1  C   UNL     1      -6.177  -4.732  -1.389  0.00  0.00    +0.007 C 
ENDROOT
BRANCH   1   2
ATOM      2  C   UNL     1      -6.012  -6.229  -1.425  0.00  0.00    +0.045 A 
ATOM      3  C   UNL     1      -6.566  -7.160  -0.639  0.00  0.00    +0.225 A 
ATOM      4  N   UNL     1      -6.290  -8.492  -0.829  0.00  0.00    -0.173 N 
ATOM      5  C   UNL     1      -5.438  -8.814  -1.841  0.00  0.00    +0.199 A 
ATOM      6  S   UNL     1      -5.029  -7.229  -2.533  0.00  0.00    -0.050 S 
ATOM      7  N   UNL     1      -5.281 -10.109  -1.887  0.00  0.00    -0.205 NA
ATOM      8  C   UNL     1      -6.010 -10.674  -0.927  0.00  0.00    +0.150 A 
ATOM      9  N   UNL     1      -6.639  -9.744  -0.259  0.00  0.00    -0.147 NA
ATOM     10  C   UNL     1      -6.097 -12.154  -0.654  0.00  0.00    +0.090 C 
BRANCH   3  11
ATOM     11  O   UNL     1      -7.412  -6.782   0.358  0.00  0.00    -0.492 OA
ATOM     12  H   UNL     1      -7.765  -7.520   0.874  0.00  0.00    +0.294 HD
ENDBRANCH   3  11
ENDBRANCH   1   2
BRANCH   1  16
ATOM     13  C   UNL     1      -2.881  -2.427   0.017  0.00  0.00    +0.094 C 
ATOM     14  C   UNL     1      -3.645  -1.967  -1.229  0.00  0.00    -0.004 C 
ATOM     15  C   UNL     1      -5.020  -2.637  -1.253  0.00  0.00    -0.077 C 
ATOM     16  N   UNL     1      -4.857  -4.096  -1.288  0.00  0.00    +0.388 N 
ATOM     17  C   UNL     1      -4.189  -4.551  -0.063  0.00  0.00    -0.077 C 
ATOM     18  C   UNL     1      -2.782  -3.955   0.007  0.00  0.00    -0.004 C 
ATOM     19  H   UNL     1      -4.300  -4.352  -2.089  0.00  0.00    -0.080 HD
BRANCH  13  20
ATOM     20  C   UNL     1      -1.496  -1.832   0.006  0.00  0.00    +0.310 C 
ATOM     21  O   UNL     1      -0.528  -2.555  -0.007  0.00  0.00    -0.251 OA
BRANCH  20  22
ATOM     22  O   UNL     1      -1.339  -0.499   0.012  0.00  0.00    -0.465 OA
BRANCH  22  24
ATOM     23  C   UNL     1      -0.019   1.526   0.010  0.00  0.00    +0.048 C 
ATOM     24  C   UNL     1       0.002  -0.004   0.002  0.00  0.00    +0.229 C 
ENDBRANCH  22  24
ENDBRANCH  20  22
ENDBRANCH  13  20
ENDBRANCH   1  16
BRANCH   1  25
ATOM     25  C   UNL     1      -6.861  -4.272  -2.651  0.00  0.00    -0.038 A 
ATOM     26  C   UNL     1      -6.108  -3.838  -3.726  0.00  0.00    +0.004 A 
ATOM     27  C   UNL     1      -6.735  -3.416  -4.884  0.00  0.00    +0.000 A 
ATOM     28  C   UNL     1      -8.115  -3.428  -4.967  0.00  0.00    +0.001 A 
ATOM     29  C   UNL     1      -8.868  -3.862  -3.893  0.00  0.00    +0.020 A 
ATOM     30  C   UNL     1      -8.242  -4.290  -2.736  0.00  0.00    +0.043 A 
ATOM     31 CL   UNL     1      -9.187  -4.841  -1.389  0.00  0.00    -0.083 Cl
ENDBRANCH   1  25
TORSDOF 7
