REMARK  Name = ZINC13498980
REMARK  14 active torsions:
REMARK  status: ('A' for Active; 'I' for Inactive)
REMARK    1  A    between atoms: C_1  and  C_2
REMARK    2  A    between atoms: C_6  and  C_15
REMARK    3  A    between atoms: C_13  and  C_14
REMARK    4  A    between atoms: C_15  and  N_72
REMARK    5  A    between atoms: C_16  and  N_72
REMARK    6  A    between atoms: C_22  and  C_24
REMARK    7  A    between atoms: C_22  and  C_33
REMARK    8  A    between atoms: C_22  and  N_72
REMARK    9  A    between atoms: N_28  and  C_29
REMARK   10  A    between atoms: C_29  and  C_30
REMARK   11  A    between atoms: C_30  and  O_31
REMARK   12  A    between atoms: O_31  and  C_32
REMARK   13  A    between atoms: C_33  and  C_34
REMARK   14  A    between atoms: C_33  and  C_35
REMARK                            x       y       z     vdW  Elec       q    Type
REMARK                         _______ _______ _______ _____ _____    ______ ____
ROOT
ATOM      1  N   UNL     1      -5.455   4.268  -1.047  0.00  0.00    +0.391 N 
ATOM      2  H   UNL     1      -4.633   4.781  -1.386  0.00  0.00    -0.080 HD
ENDROOT
BRANCH   1   3
ATOM      3  C   UNL     1      -5.418   2.892  -1.583  0.00  0.00    -0.067 C 
ATOM      4  C   UNL     1      -5.263   2.958  -3.104  0.00  0.00    -0.015 C 
ATOM      5  C   UNL     1      -5.200   1.539  -3.673  0.00  0.00    -0.002 C 
ATOM      6  C   UNL     1      -6.488   0.791  -3.323  0.00  0.00    -0.000 C 
ATOM      7  C   UNL     1      -6.642   0.725  -1.802  0.00  0.00    -0.002 C 
ATOM      8  C   UNL     1      -6.706   2.144  -1.233  0.00  0.00    -0.015 C 
ENDBRANCH   1   3
BRANCH   1   9
ATOM      9  C   UNL     1      -5.425   4.236   0.431  0.00  0.00    -0.036 C 
BRANCH   9  15
ATOM     10  C   UNL     1       1.285   6.625   2.641  0.00  0.00    +0.044 C 
ATOM     11  C   UNL     1       0.333   5.505   2.308  0.00  0.00    -0.047 A 
ATOM     12  C   UNL     1      -0.940   5.796   1.907  0.00  0.00    +0.013 A 
ATOM     13  C   UNL     1      -1.824   4.758   1.598  0.00  0.00    -0.001 A 
ATOM     14  C   UNL     1      -3.196   5.034   1.165  0.00  0.00    +0.017 A 
ATOM     15  C   UNL     1      -4.008   3.986   0.879  0.00  0.00    +0.001 A 
ATOM     16  C   UNL     1      -3.531   2.663   0.999  0.00  0.00    +0.251 A 
ATOM     17  O   UNL     1      -4.277   1.736   0.737  0.00  0.00    -0.268 OA
ATOM     18  N   UNL     1      -2.273   2.400   1.396  0.00  0.00    -0.322 N 
ATOM     19  H   UNL     1      -1.978   1.479   1.468  0.00  0.00    +0.169 HD
ATOM     20  C   UNL     1      -1.396   3.420   1.696  0.00  0.00    +0.049 A 
ATOM     21  C   UNL     1      -0.097   3.148   2.112  0.00  0.00    +0.030 A 
ATOM     22  C   UNL     1       0.757   4.188   2.411  0.00  0.00    -0.046 A 
ATOM     23  C   UNL     1       2.166   3.891   2.855  0.00  0.00    +0.044 C 
ENDBRANCH   9  15
ENDBRANCH   1   9
BRANCH   1  24
ATOM     24  C   UNL     1      -6.677   4.958  -1.511  0.00  0.00    +0.006 C 
BRANCH  24  25
ATOM     25  C   UNL     1      -7.875   4.502  -0.718  0.00  0.00    +0.138 A 
ATOM     26  N   UNL     1      -7.903   4.212   0.560  0.00  0.00    -0.115 NA
ATOM     27  N   UNL     1      -9.105   3.864   0.863  0.00  0.00    -0.023 NA
ATOM     28  N   UNL     1      -9.845   3.923  -0.189  0.00  0.00    -0.044 NA
ATOM     29  N   UNL     1      -9.124   4.318  -1.183  0.00  0.00    -0.229 N 
BRANCH  29  30
ATOM     30  C   UNL     1      -9.579   4.523  -2.560  0.00  0.00    +0.175 C 
BRANCH  30  31
ATOM     31  C   UNL     1      -9.564   3.188  -3.307  0.00  0.00    +0.183 C 
BRANCH  31  32
ATOM     32  O   UNL     1      -9.924   3.402  -4.673  0.00  0.00    -0.381 OA
ATOM     33  C   UNL     1      -9.941   2.212  -5.464  0.00  0.00    +0.194 C 
ENDBRANCH  31  32
ENDBRANCH  30  31
ENDBRANCH  29  30
ENDBRANCH  24  25
BRANCH  24  34
ATOM     34  C   UNL     1      -6.489   6.465  -1.329  0.00  0.00    -0.024 C 
ATOM     35  C   UNL     1      -5.332   6.945  -2.208  0.00  0.00    +0.006 C 
ATOM     36  C   UNL     1      -7.773   7.192  -1.734  0.00  0.00    +0.006 C 
ENDBRANCH  24  34
ENDBRANCH   1  24
TORSDOF 9
