REMARK  Name = ZINC36587100
REMARK  15 active torsions:
REMARK  status: ('A' for Active; 'I' for Inactive)
REMARK    1  A    between atoms: C_1  and  C_2
REMARK    2  A    between atoms: C_5  and  C_8
REMARK    3  A    between atoms: C_8  and  C_10
REMARK    4  A    between atoms: C_8  and  N_17
REMARK    5  A    between atoms: N_12  and  C_13
REMARK    6  A    between atoms: C_13  and  C_14
REMARK    7  A    between atoms: C_13  and  C_15
REMARK    8  A    between atoms: C_13  and  C_16
REMARK    9  A    between atoms: N_17  and  C_28
REMARK   10  A    between atoms: C_18  and  C_20
REMARK   11  A    between atoms: C_24  and  O_27
REMARK   12  A    between atoms: C_25  and  O_26
REMARK   13  A    between atoms: C_28  and  C_29
REMARK   14  A    between atoms: C_28  and  C_30
REMARK   15  A    between atoms: C_28  and  C_31
REMARK                            x       y       z     vdW  Elec       q    Type
REMARK                         _______ _______ _______ _____ _____    ______ ____
ROOT
ATOM      1  N   UNL     1       1.786  -4.959   2.246  0.00  0.00    -0.277 N 
ATOM      2  C   UNL     1       2.395  -4.287   3.243  0.00  0.00    +0.252 C 
ATOM      3  O   UNL     1       1.735  -3.805   4.143  0.00  0.00    -0.270 OA
ENDROOT
BRANCH   2   4
ATOM      4  C   UNL     1       3.863  -4.138   3.243  0.00  0.00    +0.082 A 
ATOM      5  C   UNL     1       4.587  -4.320   2.062  0.00  0.00    +0.017 A 
ATOM      6  C   UNL     1       5.958  -4.179   2.065  0.00  0.00    +0.005 A 
ATOM      7  C   UNL     1       6.625  -3.856   3.236  0.00  0.00    +0.049 A 
ATOM      8  C   UNL     1       5.921  -3.672   4.413  0.00  0.00    +0.159 A 
ATOM      9  C   UNL     1       4.536  -3.806   4.425  0.00  0.00    +0.171 A 
BRANCH   9  10
ATOM     10  O   UNL     1       3.842  -3.621   5.576  0.00  0.00    -0.503 OA
ATOM     11  H   UNL     1       3.729  -4.425   6.101  0.00  0.00    +0.292 HD
ENDBRANCH   9  10
BRANCH   8  12
ATOM     12  O   UNL     1       6.583  -3.356   5.559  0.00  0.00    -0.503 OA
ATOM     13  H   UNL     1       6.687  -2.405   5.703  0.00  0.00    +0.292 HD
ENDBRANCH   8  12
ENDBRANCH   2   4
BRANCH   1  14
ATOM     14  C   UNL     1       2.329  -4.902   0.886  0.00  0.00    +0.030 C 
ATOM     15  C   UNL     1       1.194  -5.080  -0.124  0.00  0.00    +0.031 C 
ATOM     16  C   UNL     1       3.002  -3.546   0.662  0.00  0.00    +0.031 C 
ATOM     17  C   UNL     1       3.357  -6.019   0.700  0.00  0.00    +0.031 C 
ENDBRANCH   1  14
BRANCH   1  18
ATOM     18  C   UNL     1       0.581  -5.745   2.521  0.00  0.00    +0.193 C 
BRANCH  18  23
ATOM     19  C   UNL     1      -4.101  -2.475   1.638  0.00  0.00    +0.044 C 
ATOM     20  C   UNL     1      -2.880  -3.328   1.868  0.00  0.00    -0.050 A 
ATOM     21  C   UNL     1      -2.909  -4.675   1.558  0.00  0.00    +0.004 A 
ATOM     22  C   UNL     1      -1.789  -5.457   1.769  0.00  0.00    +0.006 A 
ATOM     23  C   UNL     1      -0.639  -4.892   2.290  0.00  0.00    -0.018 A 
ATOM     24  C   UNL     1      -0.610  -3.546   2.599  0.00  0.00    +0.006 A 
ATOM     25  C   UNL     1      -1.729  -2.762   2.384  0.00  0.00    +0.004 A 
ENDBRANCH  18  23
BRANCH  18  26
ATOM     26  C   UNL     1       0.603  -6.213   3.953  0.00  0.00    +0.239 C 
ATOM     27  O   UNL     1       1.616  -6.104   4.611  0.00  0.00    -0.273 OA
ATOM     28  N   UNL     1      -0.503  -6.753   4.503  0.00  0.00    -0.309 N 
ATOM     29  H   UNL     1      -1.313  -6.841   3.976  0.00  0.00    +0.149 HD
BRANCH  28  30
ATOM     30  C   UNL     1      -0.481  -7.208   5.895  0.00  0.00    +0.026 C 
ATOM     31  C   UNL     1      -0.151  -6.029   6.812  0.00  0.00    +0.031 C 
ATOM     32  C   UNL     1      -1.853  -7.776   6.267  0.00  0.00    +0.031 C 
ATOM     33  C   UNL     1       0.582  -8.296   6.060  0.00  0.00    +0.031 C 
ENDBRANCH  28  30
ENDBRANCH  18  26
ENDBRANCH   1  18
TORSDOF 8
