REMARK  Name = ZINC39657863
REMARK  5 active torsions:
REMARK  status: ('A' for Active; 'I' for Inactive)
REMARK    1  A    between atoms: C_3  and  C_13
REMARK    2  A    between atoms: C_7  and  C_9
REMARK    3  A    between atoms: C_17  and  C_26
REMARK    4  A    between atoms: N_28  and  C_29
REMARK    5  A    between atoms: C_32  and  C_35
REMARK                            x       y       z     vdW  Elec       q    Type
REMARK                         _______ _______ _______ _____ _____    ______ ____
ROOT
ATOM      1  C   UNL     1       3.602   0.550  -0.580  0.00  0.00    +0.236 C 
ATOM      2  O   UNL     1       3.962  -0.346   0.154  0.00  0.00    -0.274 OA
ATOM      3  N   UNL     1       4.509   1.403  -1.096  0.00  0.00    -0.299 N 
ATOM      4  C   UNL     1       4.263   2.553  -1.997  0.00  0.00    +0.121 C 
ATOM      5  C   UNL     1       5.228   3.653  -1.498  0.00  0.00    +0.100 C 
ATOM      6  C   UNL     1       6.351   2.891  -0.775  0.00  0.00    -0.004 C 
ATOM      7  C   UNL     1       5.976   1.406  -0.886  0.00  0.00    +0.115 C 
ATOM      8  C   UNL     1       6.411   3.305   0.692  0.00  0.00    -0.010 C 
ATOM      9  C   UNL     1       7.571   2.577   1.377  0.00  0.00    -0.082 C 
ATOM     10  N   UNL     1       8.829   2.914   0.700  0.00  0.00    +0.379 N 
ATOM     11  C   UNL     1       8.799   2.429  -0.685  0.00  0.00    -0.082 C 
ATOM     12  C   UNL     1       7.691   3.151  -1.456  0.00  0.00    -0.010 C 
ATOM     13  H   UNL     1       8.953   3.916   0.702  0.00  0.00    -0.086 HD
ATOM     14  H   UNL     1       9.599   2.482   1.190  0.00  0.00    -0.086 HD
ENDROOT
BRANCH   1  17
ATOM     15  C   UNL     1       0.012   1.420  -0.054  0.00  0.00    +0.021 C 
ATOM     16  C   UNL     1       1.510   1.827  -0.045  0.00  0.00    +0.033 C 
ATOM     17  C   UNL     1       2.141   0.711  -0.913  0.00  0.00    +0.162 C 
ATOM     18  N   UNL     1       1.395  -0.510  -0.559  0.00  0.00    -0.283 N 
ATOM     19  C   UNL     1       0.074  -0.122  -0.043  0.00  0.00    +0.109 C 
ATOM     20  C   UNL     1       1.847  -1.773  -0.689  0.00  0.00    +0.320 C 
ATOM     21  O   UNL     1       2.958  -1.977  -1.130  0.00  0.00    -0.266 OA
BRANCH  20  22
ATOM     22  C   UNL     1       0.972  -2.932  -0.286  0.00  0.00    +0.470 C 
ATOM     23  F   UNL     1       1.655  -4.132  -0.511  0.00  0.00    -0.162 F 
ATOM     24  F   UNL     1       0.653  -2.825   1.072  0.00  0.00    -0.162 F 
ATOM     25  F   UNL     1      -0.203  -2.915  -1.044  0.00  0.00    -0.162 F 
ENDBRANCH  20  22
ENDBRANCH   1  17
BRANCH   5  26
ATOM     26  C   UNL     1       5.784   4.431  -2.663  0.00  0.00    +0.218 C 
ATOM     27  O   UNL     1       5.981   3.877  -3.724  0.00  0.00    -0.275 OA
ATOM     28  N   UNL     1       6.064   5.742  -2.525  0.00  0.00    -0.312 N 
ATOM     29  H   UNL     1       5.907   6.185  -1.677  0.00  0.00    +0.149 HD
BRANCH  28  30
ATOM     30  C   UNL     1       6.605   6.498  -3.658  0.00  0.00    +0.073 C 
ATOM     31  C   UNL     1       8.125   6.329  -3.704  0.00  0.00    +0.023 C 
ATOM     32  C   UNL     1       8.736   6.852  -2.403  0.00  0.00    +0.016 C 
ATOM     33  C   UNL     1       8.392   8.334  -2.237  0.00  0.00    +0.102 C 
ATOM     34  C   UNL     1       6.872   8.503  -2.190  0.00  0.00    +0.016 C 
ATOM     35  C   UNL     1       6.261   7.980  -3.492  0.00  0.00    +0.023 C 
BRANCH  33  36
ATOM     36  C   UNL     1       8.995   8.849  -0.955  0.00  0.00    +0.359 C 
ATOM     37  O   UNL     1       9.498   9.959  -0.921  0.00  0.00    -0.246 OA
ATOM     38  O   UNL     1       8.979   8.156   0.048  0.00  0.00    -0.246 OA
ENDBRANCH  33  36
ENDBRANCH  28  30
ENDBRANCH   5  26
TORSDOF 5
