REMARK  Name = ZINC00647902
REMARK  10 active torsions:
REMARK  status: ('A' for Active; 'I' for Inactive)
REMARK    1  A    between atoms: C_1  and  C_2
REMARK    2  A    between atoms: C_4  and  C_36
REMARK    3  A    between atoms: C_5  and  C_17
REMARK    4  A    between atoms: C_7  and  C_8
REMARK    5  A    between atoms: C_8  and  O_9
REMARK    6  A    between atoms: O_9  and  C_10
REMARK    7  A    between atoms: C_26  and  C_34
REMARK    8  A    between atoms: C_27  and  N_33
REMARK    9  A    between atoms: C_28  and  C_29
REMARK   10  A    between atoms: C_28  and  C_31
REMARK                            x       y       z     vdW  Elec       q    Type
REMARK                         _______ _______ _______ _____ _____    ______ ____
ROOT
ATOM      1  C   UNL     1      -2.824   1.747  -0.094  0.00  0.00    +0.066 C 
ATOM      2  C   UNL     1      -3.292   3.125  -0.566  0.00  0.00    +0.030 C 
ATOM      3  C   UNL     1      -2.162   4.127  -0.588  0.00  0.00    +0.009 C 
ATOM      4  C   UNL     1      -1.572   4.323  -1.960  0.00  0.00    +0.005 C 
ATOM      5  C   UNL     1      -2.689   4.794  -2.902  0.00  0.00    +0.027 C 
ATOM      6  C   UNL     1      -3.742   3.717  -2.941  0.00  0.00    -0.022 C 
ATOM      7  C   UNL     1      -3.982   2.961  -1.888  0.00  0.00    -0.029 C 
ATOM      8  C   UNL     1      -4.952   1.841  -2.006  0.00  0.00    +0.074 C 
ATOM      9  C   UNL     1      -4.959   0.865  -1.064  0.00  0.00    +0.054 C 
ATOM     10  C   UNL     1      -4.047   0.856   0.126  0.00  0.00    +0.188 C 
ENDROOT
BRANCH   1  15
ATOM     11  C   UNL     1       0.098   2.298   4.861  0.00  0.00    +0.044 C 
ATOM     12  C   UNL     1      -0.665   2.152   3.570  0.00  0.00    -0.044 A 
ATOM     13  C   UNL     1      -0.105   1.464   2.509  0.00  0.00    +0.007 A 
ATOM     14  C   UNL     1      -0.805   1.330   1.325  0.00  0.00    -0.047 A 
ATOM     15  C   UNL     1      -2.063   1.888   1.199  0.00  0.00    -0.038 A 
ATOM     16  C   UNL     1      -2.625   2.572   2.260  0.00  0.00    +0.011 A 
ATOM     17  C   UNL     1      -1.925   2.706   3.445  0.00  0.00    -0.007 A 
ATOM     18  C   UNL     1      -0.194   0.580   0.170  0.00  0.00    +0.044 C 
BRANCH  17  19
ATOM     19  C   UNL     1      -2.537   3.455   4.601  0.00  0.00    +0.264 C 
BRANCH  19  20
ATOM     20  O   UNL     1      -3.833   3.928   4.229  0.00  0.00    -0.487 OA
BRANCH  20  21
ATOM     21  C   UNL     1      -4.525   4.630   5.166  0.00  0.00    +0.121 A 
ATOM     22  C   UNL     1      -3.971   4.853   6.417  0.00  0.00    +0.047 A 
ATOM     23  C   UNL     1      -4.674   5.570   7.366  0.00  0.00    +0.019 A 
ATOM     24  C   UNL     1      -5.935   6.057   7.071  0.00  0.00    +0.018 A 
ATOM     25  C   UNL     1      -6.492   5.831   5.825  0.00  0.00    +0.019 A 
ATOM     26  C   UNL     1      -5.790   5.119   4.872  0.00  0.00    +0.047 A 
ATOM     27 BR   UNL     1      -6.898   7.033   8.373  0.00  0.00    -0.050 Br
ENDBRANCH  20  21
ENDBRANCH  19  20
ENDBRANCH  17  19
ENDBRANCH   1  15
BRANCH   9  28
ATOM     28  N   UNL     1      -5.845  -0.166  -1.207  0.00  0.00    -0.358 N 
ATOM     29  H   UNL     1      -5.875  -0.973  -0.460  0.00  0.00    +0.142 HD
ATOM     30  H   UNL     1      -6.527  -0.189  -2.069  0.00  0.00    +0.142 HD
ENDBRANCH   9  28
BRANCH  10  31
ATOM     31  C   UNL     1      -3.598  -0.523   0.377  0.00  0.00    +0.091 C 
ATOM     32  N   UNL     1      -3.252  -1.587   0.571  0.00  0.00    -0.194 NA
ENDBRANCH  10  31
BRANCH  10  33
ATOM     33  C   UNL     1      -4.788   1.340   1.302  0.00  0.00    +0.091 C 
ATOM     34  N   UNL     1      -5.360   1.713   2.210  0.00  0.00    -0.194 NA
ENDBRANCH  10  33
BRANCH   8  35
ATOM     35  C   UNL     1      -5.871   1.792  -3.104  0.00  0.00    +0.101 C 
ATOM     36  N   UNL     1      -6.599   1.754  -3.974  0.00  0.00    -0.191 NA
ENDBRANCH   8  35
TORSDOF 8
