REMARK  Name = ZINC62039040
REMARK  8 active torsions:
REMARK  status: ('A' for Active; 'I' for Inactive)
REMARK    1  A    between atoms: C_1  and  C_2
REMARK    2  A    between atoms: C_10  and  C_14
REMARK    3  A    between atoms: C_15  and  S_17
REMARK    4  A    between atoms: S_17  and  C_18
REMARK    5  A    between atoms: C_18  and  C_19
REMARK    6  A    between atoms: N_21  and  C_22
REMARK    7  A    between atoms: C_24  and  N_29
REMARK    8  A    between atoms: C_27  and  O_28
REMARK                            x       y       z     vdW  Elec       q    Type
REMARK                         _______ _______ _______ _____ _____    ______ ____
ROOT
ATOM      1  S   UNL     1       0.083  -2.803   2.769  0.00  0.00    -0.096 S 
ENDROOT
BRANCH   1  15
ATOM      2  C   UNL     1       0.039   1.501   0.009  0.00  0.00    +0.088 C 
ATOM      3  C   UNL     1       0.057  -0.006   0.001  0.00  0.00    +0.128 A 
ATOM      4  N   UNL     1       0.069  -0.645  -1.153  0.00  0.00    -0.225 NA
ATOM      5  C   UNL     1       0.085  -1.964  -1.184  0.00  0.00    +0.113 A 
ATOM      6  C   UNL     1       0.090  -2.728   0.000  0.00  0.00    +0.043 A 
ATOM      7  C   UNL     1       0.106  -4.181  -0.179  0.00  0.00    -0.025 A 
ATOM      8  C   UNL     1       0.115  -4.641  -1.447  0.00  0.00    -0.004 A 
ATOM      9  S   UNL     1       0.102  -3.190  -2.465  0.00  0.00    -0.073 S 
ATOM     10  C   UNL     1       0.133  -6.071  -1.893  0.00  0.00    +0.046 C 
ATOM     11  C   UNL     1       0.513  -6.949  -0.693  0.00  0.00    -0.009 C 
ATOM     12  C   UNL     1      -0.333  -6.527   0.512  0.00  0.00    +0.008 C 
ATOM     13  C   UNL     1       0.113  -5.148   1.001  0.00  0.00    +0.037 C 
ATOM     14  C   UNL     1       0.241  -8.418  -1.025  0.00  0.00    +0.008 C 
ATOM     15  C   UNL     1       0.078  -1.980   1.211  0.00  0.00    +0.109 A 
ATOM     16  N   UNL     1       0.066  -0.658   1.150  0.00  0.00    -0.225 NA
ENDBRANCH   1  15
BRANCH   1  17
ATOM     17  C   UNL     1       0.063  -1.452   3.979  0.00  0.00    +0.171 C 
BRANCH  17  18
ATOM     18  C   UNL     1       0.066  -2.025   5.372  0.00  0.00    +0.228 C 
ATOM     19  O   UNL     1       0.079  -3.227   5.534  0.00  0.00    -0.275 OA
ATOM     20  N   UNL     1       0.053  -1.202   6.440  0.00  0.00    -0.282 N 
ATOM     21  H   UNL     1       0.108  -0.242   6.312  0.00  0.00    +0.155 HD
BRANCH  20  22
ATOM     22  C   UNL     1      -0.039  -1.733   7.733  0.00  0.00    +0.078 A 
ATOM     23  C   UNL     1       0.569  -2.944   8.033  0.00  0.00    +0.059 A 
ATOM     24  C   UNL     1       0.477  -3.466   9.309  0.00  0.00    +0.128 A 
ATOM     25  C   UNL     1      -0.220  -2.785  10.289  0.00  0.00    +0.036 A 
ATOM     26  C   UNL     1      -0.829  -1.578   9.998  0.00  0.00    +0.049 A 
ATOM     27  C   UNL     1      -0.736  -1.045   8.723  0.00  0.00    +0.138 A 
BRANCH  24  28
ATOM     28  N   UNL     1       1.126  -4.758   9.627  0.00  0.00    +0.056 N 
ATOM     29  O   UNL     1       1.736  -5.355   8.770  0.00  0.00    -0.126 OA
ATOM     30  O   UNL     1       1.046  -5.216  10.743  0.00  0.00    -0.126 OA
ENDBRANCH  24  28
BRANCH  27  31
ATOM     31  O   UNL     1      -1.329   0.145   8.437  0.00  0.00    -0.505 OA
ATOM     32  H   UNL     1      -2.242   0.065   8.127  0.00  0.00    +0.292 HD
ENDBRANCH  27  31
ENDBRANCH  20  22
ENDBRANCH  17  18
ENDBRANCH   1  17
TORSDOF 6
