REMARK  Name = ZINC32964428
REMARK  4 active torsions:
REMARK  status: ('A' for Active; 'I' for Inactive)
REMARK    1  A    between atoms: C_3  and  C_15
REMARK    2  A    between atoms: N_4  and  C_6
REMARK    3  A    between atoms: C_9  and  N_12
REMARK    4  A    between atoms: C_25  and  C_27
REMARK                            x       y       z     vdW  Elec       q    Type
REMARK                         _______ _______ _______ _____ _____    ______ ____
ROOT
ATOM      1  C   UNL     1       3.302   0.433  -0.306  0.00  0.00    +0.042 C 
ATOM      2  C   UNL     1       3.850  -0.838  -0.284  0.00  0.00    +0.082 C 
ATOM      3  C   UNL     1       3.029  -2.041   0.021  0.00  0.00    +0.153 C 
ATOM      4  N   UNL     1       1.769  -2.153  -0.314  0.00  0.00    -0.283 NA
ATOM      5  N   UNL     1       3.741  -3.048   0.706  0.00  0.00    -0.152 N 
ATOM      6  C   UNL     1       5.114  -3.056   0.576  0.00  0.00    +0.181 C 
ATOM      7  N   UNL     1       5.862  -2.175  -0.038  0.00  0.00    -0.152 NA
ATOM      8  C   UNL     1       5.285  -1.074  -0.567  0.00  0.00    +0.273 C 
ATOM      9  O   UNL     1       5.926  -0.294  -1.254  0.00  0.00    -0.268 OA
ATOM     10  S   UNL     1       5.561  -4.526   1.461  0.00  0.00    -0.037 S 
ATOM     11  C   UNL     1       3.923  -4.969   2.023  0.00  0.00    +0.106 C 
ATOM     12  N   UNL     1       3.186  -4.038   1.488  0.00  0.00    -0.169 NA
ATOM     13  H   UNL     1       1.342  -1.457  -0.838  0.00  0.00    +0.188 HD
ENDROOT
BRANCH  11  14
ATOM     14  C   UNL     1       3.502  -6.125   2.893  0.00  0.00    +0.022 C 
ATOM     15  C   UNL     1       1.976  -6.157   2.996  0.00  0.00    +0.017 C 
ATOM     16  C   UNL     1       1.549  -7.331   3.879  0.00  0.00    -0.010 C 
ATOM     17  C   UNL     1       2.046  -8.640   3.263  0.00  0.00    +0.007 C 
ATOM     18  C   UNL     1       3.572  -8.609   3.160  0.00  0.00    -0.010 C 
ATOM     19  C   UNL     1       3.999  -7.435   2.276  0.00  0.00    +0.017 C 
ATOM     20  C   UNL     1       4.174  -8.442   4.556  0.00  0.00    +0.007 C 
ATOM     21  C   UNL     1       3.677  -7.133   5.173  0.00  0.00    -0.010 C 
ATOM     22  C   UNL     1       2.151  -7.164   5.276  0.00  0.00    +0.007 C 
ATOM     23  C   UNL     1       4.104  -5.959   4.290  0.00  0.00    +0.017 C 
ENDBRANCH  11  14
BRANCH   1  26
ATOM     24  C   UNL     1       0.188   0.441   1.515  0.00  0.00    +0.020 A 
ATOM     25  C   UNL     1       1.360  -0.206   1.123  0.00  0.00    +0.027 A 
ATOM     26  C   UNL     1       2.060   0.675   0.310  0.00  0.00    +0.047 A 
ATOM     27  N   UNL     1       1.314   1.833   0.220  0.00  0.00    -0.316 N 
ATOM     28  C   UNL     1       0.182   1.677   0.954  0.00  0.00    +0.092 A 
BRANCH  27  29
ATOM     29  C   UNL     1       1.664   2.978  -0.508  0.00  0.00    +0.047 A 
ATOM     30  C   UNL     1       2.909   3.565  -0.324  0.00  0.00    +0.028 A 
ATOM     31  C   UNL     1       3.252   4.694  -1.042  0.00  0.00    +0.035 A 
ATOM     32  C   UNL     1       2.357   5.238  -1.945  0.00  0.00    +0.126 A 
ATOM     33  C   UNL     1       1.117   4.656  -2.131  0.00  0.00    +0.035 A 
ATOM     34  C   UNL     1       0.770   3.524  -1.419  0.00  0.00    +0.028 A 
BRANCH  32  35
ATOM     35  N   UNL     1       2.728   6.448  -2.714  0.00  0.00    +0.056 N 
ATOM     36  O   UNL     1       3.843   6.904  -2.622  0.00  0.00    -0.126 OA
ATOM     37  O   UNL     1       1.915   6.979  -3.434  0.00  0.00    -0.126 OA
ENDBRANCH  32  35
ENDBRANCH  27  29
ENDBRANCH   1  26
TORSDOF 4
