REMARK  Name = ZINC20293792
REMARK  5 active torsions:
REMARK  status: ('A' for Active; 'I' for Inactive)
REMARK    1  A    between atoms: C_1  and  C_2
REMARK    2  A    between atoms: C_3  and  N_15
REMARK    3  A    between atoms: N_6  and  C_9
REMARK    4  A    between atoms: N_7  and  C_8
REMARK    5  A    between atoms: C_16  and  C_18
REMARK                            x       y       z     vdW  Elec       q    Type
REMARK                         _______ _______ _______ _____ _____    ______ ____
ROOT
ATOM      1  C   UNL     1      -0.668  -2.075  -6.913  0.00  0.00    +0.067 C 
ATOM      2  C   UNL     1       0.216  -2.490  -5.766  0.00  0.00    +0.059 A 
ATOM      3  C   UNL     1       0.491  -1.745  -4.671  0.00  0.00    +0.122 A 
ATOM      4  C   UNL     1       1.391  -2.532  -3.826  0.00  0.00    +0.293 A 
ATOM      5  O   UNL     1       1.862  -2.192  -2.756  0.00  0.00    -0.264 OA
ATOM      6  N   UNL     1       1.595  -3.707  -4.457  0.00  0.00    -0.216 N 
ATOM      7  N   UNL     1       0.875  -3.686  -5.657  0.00  0.00    -0.282 N 
ATOM      8  C   UNL     1       0.834  -4.771  -6.641  0.00  0.00    +0.171 C 
ENDROOT
BRANCH   6   9
ATOM      9  C   UNL     1       2.392  -4.759  -3.996  0.00  0.00    +0.067 A 
ATOM     10  C   UNL     1       1.902  -6.058  -4.003  0.00  0.00    +0.028 A 
ATOM     11  C   UNL     1       2.694  -7.096  -3.553  0.00  0.00    +0.002 A 
ATOM     12  C   UNL     1       3.969  -6.841  -3.083  0.00  0.00    +0.000 A 
ATOM     13  C   UNL     1       4.458  -5.547  -3.068  0.00  0.00    +0.002 A 
ATOM     14  C   UNL     1       3.674  -4.506  -3.523  0.00  0.00    +0.028 A 
ENDBRANCH   6   9
BRANCH   3  15
ATOM     15  N   UNL     1       0.008  -0.451  -4.399  0.00  0.00    -0.274 N 
ATOM     16  C   UNL     1      -0.679  -0.213  -3.264  0.00  0.00    +0.270 C 
ATOM     17  O   UNL     1      -0.961  -1.133  -2.520  0.00  0.00    -0.268 OA
ATOM     18  H   UNL     1       0.191   0.366  -5.112  0.00  0.00    +0.155 HD
BRANCH  16  19
ATOM     19  C   UNL     1      -1.091   1.170  -2.922  0.00  0.00    +0.171 A 
ATOM     20  C   UNL     1      -1.811   1.589  -1.779  0.00  0.00    +0.027 A 
ATOM     21  C   UNL     1      -1.943   2.923  -1.933  0.00  0.00    +0.141 A 
ATOM     22  O   UNL     1      -1.327   3.239  -3.075  0.00  0.00    -0.359 OA
ATOM     23  N   UNL     1      -0.862   2.260  -3.619  0.00  0.00    -0.073 NA
ATOM     24  C   UNL     1      -2.672   3.841  -0.987  0.00  0.00    +0.077 C 
ATOM     25  C   UNL     1      -2.238   3.529   0.449  0.00  0.00    +0.008 C 
ATOM     26  C   UNL     1      -3.131   2.439   1.035  0.00  0.00    +0.001 C 
ATOM     27  C   UNL     1      -3.561   1.447  -0.041  0.00  0.00    +0.005 C 
ATOM     28  C   UNL     1      -2.324   0.764  -0.635  0.00  0.00    +0.041 C 
ENDBRANCH  16  19
ENDBRANCH   3  15
TORSDOF 3
