REMARK  Name = ZINC33701781
REMARK  9 active torsions:
REMARK  status: ('A' for Active; 'I' for Inactive)
REMARK    1  A    between atoms: C_1  and  C_2
REMARK    2  A    between atoms: C_5  and  O_11
REMARK    3  A    between atoms: C_6  and  C_8
REMARK    4  A    between atoms: C_8  and  C_9
REMARK    5  A    between atoms: C_8  and  C_10
REMARK    6  A    between atoms: O_11  and  C_12
REMARK    7  A    between atoms: C_12  and  C_13
REMARK    8  A    between atoms: N_23  and  N_24
REMARK    9  A    between atoms: C_25  and  C_27
REMARK                            x       y       z     vdW  Elec       q    Type
REMARK                         _______ _______ _______ _____ _____    ______ ____
ROOT
ATOM      1  C   UNL     1      -3.998  -1.173   3.805  0.00  0.00    +0.168 A 
ATOM      2  N   UNL     1      -4.448  -0.649   2.706  0.00  0.00    -0.228 NA
ATOM      3  C   UNL     1      -5.724  -0.850   2.293  0.00  0.00    +0.078 A 
ATOM      4  C   UNL     1      -6.208  -0.287   1.110  0.00  0.00    +0.028 A 
ATOM      5  C   UNL     1      -7.511  -0.518   0.729  0.00  0.00    +0.002 A 
ATOM      6  C   UNL     1      -8.351  -1.304   1.506  0.00  0.00    +0.001 A 
ATOM      7  C   UNL     1      -7.897  -1.870   2.677  0.00  0.00    +0.015 A 
ATOM      8  C   UNL     1      -6.582  -1.649   3.081  0.00  0.00    +0.066 A 
ATOM      9  C   UNL     1      -6.041  -2.227   4.320  0.00  0.00    +0.279 A 
ATOM     10  O   UNL     1      -6.727  -2.924   5.045  0.00  0.00    -0.265 OA
ATOM     11  N   UNL     1      -4.749  -1.957   4.621  0.00  0.00    -0.206 N 
ENDROOT
BRANCH  11  12
ATOM     12  N   UNL     1      -4.183  -2.488   5.788  0.00  0.00    -0.215 N 
ATOM     13  C   UNL     1      -4.501  -1.966   6.989  0.00  0.00    +0.282 C 
ATOM     14  O   UNL     1      -5.278  -1.037   7.060  0.00  0.00    -0.269 OA
ATOM     15  H   UNL     1      -3.479  -3.330   5.724  0.00  0.00    +0.176 HD
BRANCH  13  16
ATOM     16  C   UNL     1      -3.892  -2.536   8.244  0.00  0.00    +0.268 C 
ATOM     17 CL   UNL     1      -4.510  -1.632   9.677  0.00  0.00    -0.074 Cl
ATOM     18 CL   UNL     1      -4.341  -4.276   8.392  0.00  0.00    -0.074 Cl
ATOM     19 CL   UNL     1      -2.098  -2.383   8.164  0.00  0.00    -0.074 Cl
ENDBRANCH  13  16
ENDBRANCH  11  12
BRANCH   1  20
ATOM     20  C   UNL     1      -2.567  -0.902   4.193  0.00  0.00    +0.305 C 
BRANCH  20  21
ATOM     21  O   UNL     1      -1.956  -0.068   3.206  0.00  0.00    -0.484 OA
BRANCH  21  26
ATOM     22  C   UNL     1       3.429   1.358   4.042  0.00  0.00    +0.044 C 
ATOM     23  C   UNL     1       1.989   0.973   3.817  0.00  0.00    -0.050 A 
ATOM     24  C   UNL     1       1.339   0.165   4.731  0.00  0.00    +0.007 A 
ATOM     25  C   UNL     1       0.020  -0.189   4.527  0.00  0.00    +0.046 A 
ATOM     26  C   UNL     1      -0.656   0.273   3.406  0.00  0.00    +0.125 A 
ATOM     27  C   UNL     1       0.000   1.080   2.488  0.00  0.00    -0.003 A 
ATOM     28  C   UNL     1       1.320   1.430   2.696  0.00  0.00    +0.010 A 
BRANCH  27  29
ATOM     29  C   UNL     1      -0.729   1.579   1.267  0.00  0.00    +0.016 C 
ATOM     30  C   UNL     1      -0.013   1.086   0.008  0.00  0.00    +0.012 C 
ATOM     31  C   UNL     1      -0.750   3.109   1.275  0.00  0.00    +0.012 C 
ENDBRANCH  27  29
ENDBRANCH  21  26
ENDBRANCH  20  21
ENDBRANCH   1  20
TORSDOF 6
