REMARK  Name = ZINC20158497
REMARK  4 active torsions:
REMARK  status: ('A' for Active; 'I' for Inactive)
REMARK    1  A    between atoms: C_3  and  C_9
REMARK    2  A    between atoms: C_12  and  C_14
REMARK    3  A    between atoms: C_14  and  N_15
REMARK    4  A    between atoms: N_15  and  C_16
REMARK                            x       y       z     vdW  Elec       q    Type
REMARK                         _______ _______ _______ _____ _____    ______ ____
ROOT
ATOM      1  C   UNL     1       0.633   3.202   0.013  0.00  0.00    +0.136 A 
ATOM      2  C   UNL     1       1.109   1.929   0.002  0.00  0.00    +0.050 A 
ATOM      3  C   UNL     1      -0.013   1.076   0.008  0.00  0.00    +0.043 A 
ATOM      4  C   UNL     1      -1.107   1.862   0.017  0.00  0.00    +0.089 A 
ATOM      5  O   UNL     1      -0.713   3.146   0.026  0.00  0.00    -0.462 OA
ENDROOT
BRANCH   1   8
ATOM      6  C   UNL     1       3.251   5.737   0.920  0.00  0.00    +0.021 A 
ATOM      7  C   UNL     1       2.489   4.587   0.930  0.00  0.00    +0.014 A 
ATOM      8  C   UNL     1       1.449   4.434   0.011  0.00  0.00    +0.031 A 
ATOM      9  C   UNL     1       1.180   5.453  -0.906  0.00  0.00    +0.030 A 
ATOM     10  C   UNL     1       1.946   6.600  -0.902  0.00  0.00    +0.036 A 
ATOM     11  C   UNL     1       2.980   6.743   0.009  0.00  0.00    +0.042 A 
ATOM     12 CL   UNL     1       3.939   8.190   0.007  0.00  0.00    -0.084 Cl
ATOM     13 BR   UNL     1      -0.231   5.259  -2.150  0.00  0.00    -0.050 Br
ENDBRANCH   1   8
BRANCH   4  14
ATOM     14  C   UNL     1      -2.535   1.381   0.020  0.00  0.00    -0.007 C 
BRANCH  14  15
ATOM     15  N   UNL     1      -2.993   1.217   1.406  0.00  0.00    +0.386 N 
ATOM     16  H   UNL     1      -2.356   0.480   1.918  0.00  0.00    -0.085 HD
ATOM     17  H   UNL     1      -2.930   2.182   1.930  0.00  0.00    -0.085 HD
BRANCH  15  18
ATOM     18  C   UNL     1      -4.384   0.747   1.448  0.00  0.00    -0.071 C 
ATOM     19  C   UNL     1      -5.330   1.946   1.347  0.00  0.00    -0.016 C 
ATOM     20  C   UNL     1      -6.779   1.457   1.391  0.00  0.00    -0.002 C 
ATOM     21  C   UNL     1      -7.029   0.720   2.708  0.00  0.00    -0.000 C 
ATOM     22  C   UNL     1      -6.083  -0.478   2.810  0.00  0.00    -0.002 C 
ATOM     23  C   UNL     1      -4.634   0.011   2.766  0.00  0.00    -0.016 C 
ENDBRANCH  15  18
ENDBRANCH  14  15
ENDBRANCH   4  14
TORSDOF 4
