REMARK  Name = ZINC44021859
REMARK  15 active torsions:
REMARK  status: ('A' for Active; 'I' for Inactive)
REMARK    1  A    between atoms: C_1  and  C_2
REMARK    2  A    between atoms: C_2  and  C_3
REMARK    3  A    between atoms: C_3  and  C_4
REMARK    4  A    between atoms: C_4  and  C_6
REMARK    5  A    between atoms: C_4  and  N_11
REMARK    6  A    between atoms: C_6  and  O_8
REMARK    7  A    between atoms: O_8  and  C_9
REMARK    8  A    between atoms: C_9  and  C_10
REMARK    9  A    between atoms: N_11  and  C_12
REMARK   10  A    between atoms: C_12  and  C_14
REMARK   11  A    between atoms: C_12  and  C_15
REMARK   12  A    between atoms: C_27  and  C_29
REMARK   13  A    between atoms: C_29  and  O_31
REMARK   14  A    between atoms: O_31  and  C_32
REMARK   15  A    between atoms: C_32  and  C_33
REMARK                            x       y       z     vdW  Elec       q    Type
REMARK                         _______ _______ _______ _____ _____    ______ ____
ROOT
ATOM      1  C   UNL     1       0.411  -1.758   2.169  0.00  0.00    +0.202 C 
ATOM      2  O   UNL     1      -0.783  -1.552   2.223  0.00  0.00    -0.277 OA
ATOM      3  N   UNL     1       0.919  -2.906   2.661  0.00  0.00    -0.286 N 
ATOM      4  C   UNL     1       0.148  -4.024   3.209  0.00  0.00    +0.080 C 
ATOM      5  C   UNL     1      -1.142  -3.587   3.865  0.00  0.00    +0.023 C 
ATOM      6  C   UNL     1      -0.872  -2.755   5.119  0.00  0.00    +0.002 C 
ATOM      7  C   UNL     1      -0.055  -3.605   6.098  0.00  0.00    +0.000 C 
ATOM      8  C   UNL     1       1.292  -3.930   5.456  0.00  0.00    +0.005 C 
ATOM      9  C   UNL     1       1.095  -4.740   4.191  0.00  0.00    +0.012 C 
ATOM     10  C   UNL     1       2.440  -4.647   3.407  0.00  0.00    +0.039 C 
ATOM     11  C   UNL     1       2.348  -3.259   2.736  0.00  0.00    +0.185 C 
ENDROOT
BRANCH   1  12
ATOM     12  C   UNL     1       1.326  -0.732   1.552  0.00  0.00    +0.014 C 
ATOM     13  C   UNL     1       1.811  -1.234   0.191  0.00  0.00    -0.004 C 
BRANCH  12  14
ATOM     14  N   UNL     1       0.598   0.532   1.378  0.00  0.00    +0.395 N 
ATOM     15  H   UNL     1       0.286   0.867   2.277  0.00  0.00    -0.084 HD
ATOM     16  H   UNL     1      -0.200   0.380   0.780  0.00  0.00    -0.084 HD
BRANCH  14  17
ATOM     17  C   UNL     1       1.486   1.528   0.766  0.00  0.00    +0.040 C 
BRANCH  17  18
ATOM     18  C   UNL     1       0.691   2.757   0.406  0.00  0.00    +0.293 C 
ATOM     19  O   UNL     1      -0.494   2.798   0.637  0.00  0.00    -0.253 OA
BRANCH  18  20
ATOM     20  O   UNL     1       1.300   3.806  -0.170  0.00  0.00    -0.466 OA
BRANCH  20  21
ATOM     21  C   UNL     1       0.485   4.937  -0.483  0.00  0.00    +0.228 C 
ATOM     22  C   UNL     1       1.347   6.024  -1.129  0.00  0.00    +0.048 C 
ENDBRANCH  20  21
ENDBRANCH  18  20
ENDBRANCH  17  18
BRANCH  17  23
ATOM     23  C   UNL     1       2.589   1.906   1.757  0.00  0.00    -0.005 C 
BRANCH  23  25
ATOM     24  C   UNL     1       3.055   2.804   4.041  0.00  0.00    +0.004 C 
ATOM     25  C   UNL     1       1.960   2.507   3.015  0.00  0.00    -0.004 C 
ENDBRANCH  23  25
ENDBRANCH  17  23
ENDBRANCH  14  17
ENDBRANCH  12  14
ENDBRANCH   1  12
BRANCH  11  26
ATOM     26  C   UNL     1       2.936  -3.316   1.350  0.00  0.00    +0.328 C 
ATOM     27  O   UNL     1       2.227  -3.557   0.402  0.00  0.00    -0.249 OA
BRANCH  26  28
ATOM     28  O   UNL     1       4.248  -3.100   1.168  0.00  0.00    -0.459 OA
BRANCH  28  29
ATOM     29  C   UNL     1       4.738  -3.170  -0.173  0.00  0.00    +0.267 C 
BRANCH  29  30
ATOM     30  C   UNL     1       6.221  -2.901  -0.181  0.00  0.00    -0.010 A 
ATOM     31  C   UNL     1       6.688  -1.608  -0.318  0.00  0.00    +0.007 A 
ATOM     32  C   UNL     1       8.049  -1.362  -0.326  0.00  0.00    +0.000 A 
ATOM     33  C   UNL     1       8.941  -2.409  -0.196  0.00  0.00    +0.000 A 
ATOM     34  C   UNL     1       8.473  -3.703  -0.059  0.00  0.00    +0.000 A 
ATOM     35  C   UNL     1       7.113  -3.948  -0.047  0.00  0.00    +0.007 A 
ENDBRANCH  29  30
ENDBRANCH  28  29
ENDBRANCH  26  28
ENDBRANCH  11  26
TORSDOF 12
