REMARK  Name = ZINC08747597
REMARK  9 active torsions:
REMARK  status: ('A' for Active; 'I' for Inactive)
REMARK    1  A    between atoms: C_1  and  C_2
REMARK    2  A    between atoms: C_2  and  C_4
REMARK    3  A    between atoms: C_2  and  N_58
REMARK    4  A    between atoms: C_8  and  N_10
REMARK    5  A    between atoms: C_13  and  N_58
REMARK    6  A    between atoms: C_14  and  N_15
REMARK    7  A    between atoms: C_14  and  N_58
REMARK    8  A    between atoms: N_18  and  C_30
REMARK    9  A    between atoms: C_19  and  C_21
REMARK                            x       y       z     vdW  Elec       q    Type
REMARK                         _______ _______ _______ _____ _____    ______ ____
ROOT
ATOM      1  N   UNL     1      -2.385   7.717   1.678  0.00  0.00    -0.257 N 
ATOM      2  C   UNL     1      -2.489   7.949   3.003  0.00  0.00    +0.181 A 
ATOM      3  S   UNL     1      -1.235   7.792   4.157  0.00  0.00    -0.011 S 
ATOM      4  N   UNL     1      -3.759   8.326   3.253  0.00  0.00    -0.271 N 
ATOM      5  C   UNL     1      -4.454   8.328   2.059  0.00  0.00    +0.167 A 
ATOM      6  N   UNL     1      -3.639   7.970   1.105  0.00  0.00    -0.152 NA
ENDROOT
BRANCH   5   7
ATOM      7  C   UNL     1      -5.880   8.682   1.889  0.00  0.00    +0.023 A 
ATOM      8  C   UNL     1      -6.561   9.348   2.909  0.00  0.00    +0.015 A 
ATOM      9  C   UNL     1      -7.891   9.678   2.749  0.00  0.00    +0.050 A 
ATOM     10  C   UNL     1      -8.555   9.350   1.577  0.00  0.00    +0.166 A 
ATOM     11  C   UNL     1      -7.880   8.684   0.554  0.00  0.00    +0.167 A 
ATOM     12  C   UNL     1      -6.546   8.356   0.707  0.00  0.00    +0.061 A 
ATOM     13  O   UNL     1      -8.748   8.480  -0.480  0.00  0.00    -0.453 OA
ATOM     14  C   UNL     1      -9.842   9.386  -0.248  0.00  0.00    +0.466 C 
ATOM     15  O   UNL     1      -9.845   9.561   1.181  0.00  0.00    -0.453 OA
ENDBRANCH   5   7
BRANCH   4  16
ATOM     16  C   UNL     1      -4.283   8.660   4.509  0.00  0.00    +0.050 A 
ATOM     17  C   UNL     1      -5.277   7.876   5.078  0.00  0.00    +0.026 A 
ATOM     18  C   UNL     1      -5.788   8.204   6.319  0.00  0.00    +0.002 A 
ATOM     19  C   UNL     1      -5.318   9.319   6.989  0.00  0.00    +0.000 A 
ATOM     20  C   UNL     1      -4.332  10.105   6.422  0.00  0.00    +0.002 A 
ATOM     21  C   UNL     1      -3.813   9.779   5.184  0.00  0.00    +0.026 A 
ENDBRANCH   4  16
BRANCH   1  22
ATOM     22  C   UNL     1      -1.180   7.285   0.966  0.00  0.00    +0.072 C 
BRANCH  22  24
ATOM     23  C   UNL     1      -0.955   5.266   2.283  0.00  0.00    -0.093 C 
ATOM     24  N   UNL     1      -1.155   5.808   0.923  0.00  0.00    +0.395 N 
ATOM     25  H   UNL     1      -2.053   5.470   0.557  0.00  0.00    -0.079 HD
BRANCH  24  27
ATOM     26  C   UNL     1      -0.340   5.861  -1.385  0.00  0.00    -0.008 C 
ATOM     27  C   UNL     1      -0.070   5.347   0.031  0.00  0.00    -0.039 C 
BRANCH  27  28
ATOM     28  C   UNL     1      -0.050   3.840   0.022  0.00  0.00    -0.059 A 
ATOM     29  C   UNL     1      -1.238   3.133   0.029  0.00  0.00    +0.002 A 
ATOM     30  C   UNL     1      -1.219   1.751   0.017  0.00  0.00    +0.002 A 
ATOM     31  C   UNL     1      -0.013   1.076   0.008  0.00  0.00    +0.033 A 
ATOM     32  C   UNL     1       1.175   1.783   0.000  0.00  0.00    +0.126 A 
ATOM     33  C   UNL     1       1.156   3.166   0.008  0.00  0.00    +0.034 A 
BRANCH  32  34
ATOM     34  N   UNL     1       2.467   1.060  -0.015  0.00  0.00    +0.056 N 
ATOM     35  O   UNL     1       2.483  -0.157  -0.022  0.00  0.00    -0.126 OA
ATOM     36  O   UNL     1       3.513   1.684  -0.022  0.00  0.00    -0.126 OA
ENDBRANCH  32  34
ENDBRANCH  27  28
ENDBRANCH  24  27
ENDBRANCH  22  24
ENDBRANCH   1  22
TORSDOF 7
