REMARK  Name = ZINC16930942
REMARK  10 active torsions:
REMARK  status: ('A' for Active; 'I' for Inactive)
REMARK    1  A    between atoms: C_1  and  C_2
REMARK    2  A    between atoms: C_2  and  C_3
REMARK    3  A    between atoms: C_3  and  C_5
REMARK    4  A    between atoms: C_3  and  O_8
REMARK    5  A    between atoms: O_8  and  C_9
REMARK    6  A    between atoms: C_13  and  C_15
REMARK    7  A    between atoms: N_19  and  C_33
REMARK    8  A    between atoms: N_21  and  C_22
REMARK    9  A    between atoms: C_25  and  O_31
REMARK   10  A    between atoms: C_27  and  C_28
REMARK                            x       y       z     vdW  Elec       q    Type
REMARK                         _______ _______ _______ _____ _____    ______ ____
ROOT
ATOM      1  C   UNL     1      -6.253  -0.071  -3.725  0.00  0.00    +0.028 C 
ATOM      2  C   UNL     1      -7.554   0.311  -3.692  0.00  0.00    +0.078 C 
ATOM      3  C   UNL     1      -8.412   0.813  -4.784  0.00  0.00    +0.259 C 
ATOM      4  O   UNL     1      -7.989   0.940  -5.918  0.00  0.00    -0.269 OA
ATOM      5  N   UNL     1      -9.661   1.117  -4.473  0.00  0.00    -0.249 N 
ATOM      6  C   UNL     1     -10.121   0.966  -3.185  0.00  0.00    +0.168 C 
ATOM      7  N   UNL     1     -11.322   1.219  -2.710  0.00  0.00    -0.225 NA
ATOM      8  S   UNL     1      -8.694   0.337  -2.315  0.00  0.00    -0.049 S 
ATOM      9  C   UNL     1     -10.564   1.620  -5.511  0.00  0.00    +0.140 C 
ENDROOT
BRANCH   1  14
ATOM     10  C   UNL     1      -3.694  -1.451  -1.351  0.00  0.00    +0.122 A 
ATOM     11  C   UNL     1      -4.508  -1.938  -0.336  0.00  0.00    +0.046 A 
ATOM     12  C   UNL     1      -5.883  -1.816  -0.425  0.00  0.00    +0.004 A 
ATOM     13  C   UNL     1      -6.457  -1.211  -1.524  0.00  0.00    +0.008 A 
ATOM     14  C   UNL     1      -5.646  -0.717  -2.552  0.00  0.00    -0.020 A 
ATOM     15  C   UNL     1      -4.256  -0.836  -2.456  0.00  0.00    +0.053 A 
BRANCH  10  16
ATOM     16  O   UNL     1      -2.344  -1.575  -1.257  0.00  0.00    -0.477 OA
BRANCH  16  17
ATOM     17  C   UNL     1      -1.831  -2.200  -0.079  0.00  0.00    +0.285 C 
BRANCH  17  18
ATOM     18  C   UNL     1      -1.834  -3.695  -0.262  0.00  0.00    +0.396 C 
ATOM     19  O   UNL     1      -1.519  -4.423   0.664  0.00  0.00    -0.242 OA
ATOM     20  O   UNL     1      -2.151  -4.178  -1.335  0.00  0.00    -0.242 OA
ENDBRANCH  17  18
BRANCH  17  22
ATOM     21  C   UNL     1      -0.411  -0.221   0.480  0.00  0.00    +0.008 C 
ATOM     22  C   UNL     1      -0.400  -1.719   0.171  0.00  0.00    +0.053 C 
ENDBRANCH  17  22
ENDBRANCH  16  17
ENDBRANCH  10  16
ENDBRANCH   1  14
BRANCH   7  23
ATOM     23  C   UNL     1     -11.575   1.066  -1.381  0.00  0.00    +0.081 A 
ATOM     24  C   UNL     1     -10.768   1.703  -0.433  0.00  0.00    +0.032 A 
ATOM     25  C   UNL     1     -11.027   1.547   0.909  0.00  0.00    +0.047 A 
ATOM     26  C   UNL     1     -12.090   0.755   1.337  0.00  0.00    +0.118 A 
ATOM     27  C   UNL     1     -12.900   0.117   0.419  0.00  0.00    +0.062 A 
ATOM     28  C   UNL     1     -12.658   0.268  -0.951  0.00  0.00    +0.092 A 
BRANCH  28  29
ATOM     29  C   UNL     1     -13.518  -0.404  -1.933  0.00  0.00    +0.389 C 
ATOM     30  O   UNL     1     -14.455  -1.095  -1.555  0.00  0.00    -0.241 OA
ATOM     31  O   UNL     1     -13.298  -0.273  -3.130  0.00  0.00    -0.241 OA
ENDBRANCH  28  29
BRANCH  26  32
ATOM     32  O   UNL     1     -12.332   0.610   2.667  0.00  0.00    -0.507 OA
ATOM     33  H   UNL     1     -12.934   1.273   3.032  0.00  0.00    +0.292 HD
ENDBRANCH  26  32
ENDBRANCH   7  23
TORSDOF 8
