REMARK  Name = ZINC01202127
REMARK  8 active torsions:
REMARK  status: ('A' for Active; 'I' for Inactive)
REMARK    1  A    between atoms: C_1  and  C_2
REMARK    2  A    between atoms: C_2  and  C_4
REMARK    3  A    between atoms: C_2  and  N_17
REMARK    4  A    between atoms: N_6  and  N_7
REMARK    5  A    between atoms: C_8  and  C_9
REMARK    6  A    between atoms: C_12  and  O_16
REMARK    7  A    between atoms: C_14  and  O_15
REMARK    8  A    between atoms: N_17  and  C_18
REMARK                            x       y       z     vdW  Elec       q    Type
REMARK                         _______ _______ _______ _____ _____    ______ ____
ROOT
ATOM      1  C   UNL     1       0.000   1.080   2.488  0.00  0.00    +0.252 C 
ATOM      2  O   UNL     1      -0.572   0.370   3.288  0.00  0.00    -0.272 OA
ATOM      3  N   UNL     1       1.288   1.422   2.691  0.00  0.00    -0.205 N 
ATOM      4  H   UNL     1       1.746   1.990   2.051  0.00  0.00    +0.177 HD
ENDROOT
BRANCH   1   6
ATOM      5  C   UNL     1      -0.013   1.086   0.008  0.00  0.00    +0.038 C 
ATOM      6  C   UNL     1      -0.729   1.579   1.267  0.00  0.00    +0.155 C 
BRANCH   6   7
ATOM      7  N   UNL     1      -2.103   1.072   1.277  0.00  0.00    -0.333 N 
ATOM      8  H   UNL     1      -2.316   0.256   1.757  0.00  0.00    +0.147 HD
BRANCH   7   9
ATOM      9  C   UNL     1      -3.108   1.764   0.596  0.00  0.00    +0.028 A 
ATOM     10  C   UNL     1      -2.807   2.936  -0.086  0.00  0.00    +0.024 A 
ATOM     11  C   UNL     1      -3.801   3.615  -0.762  0.00  0.00    +0.017 A 
ATOM     12  C   UNL     1      -5.099   3.135  -0.751  0.00  0.00    +0.018 A 
ATOM     13  C   UNL     1      -5.403   1.971  -0.068  0.00  0.00    +0.017 A 
ATOM     14  C   UNL     1      -4.412   1.284   0.605  0.00  0.00    +0.024 A 
ATOM     15 BR   UNL     1      -6.459   4.071  -1.673  0.00  0.00    -0.050 Br
ENDBRANCH   7   9
ENDBRANCH   6   7
ENDBRANCH   1   6
BRANCH   3  16
ATOM     16  N   UNL     1       1.965   0.958   3.826  0.00  0.00    -0.188 NA
ATOM     17  C   UNL     1       3.206   1.287   4.021  0.00  0.00    +0.142 C 
BRANCH  17  18
ATOM     18  C   UNL     1       3.918   0.799   5.214  0.00  0.00    +0.036 A 
ATOM     19  C   UNL     1       5.254   1.152   5.427  0.00  0.00    +0.016 A 
ATOM     20  C   UNL     1       5.916   0.694   6.545  0.00  0.00    +0.046 A 
ATOM     21  C   UNL     1       5.261  -0.118   7.463  0.00  0.00    +0.120 A 
ATOM     22  C   UNL     1       3.935  -0.474   7.261  0.00  0.00    +0.091 A 
ATOM     23  C   UNL     1       3.258  -0.016   6.144  0.00  0.00    +0.129 A 
BRANCH  23  24
ATOM     24  O   UNL     1       1.959  -0.360   5.947  0.00  0.00    -0.506 OA
ATOM     25  H   UNL     1       1.840  -1.177   5.444  0.00  0.00    +0.292 HD
ENDBRANCH  23  24
BRANCH  21  26
ATOM     26  O   UNL     1       5.921  -0.565   8.563  0.00  0.00    -0.507 OA
ATOM     27  H   UNL     1       5.851   0.021   9.329  0.00  0.00    +0.292 HD
ENDBRANCH  21  26
ENDBRANCH  17  18
ENDBRANCH   3  16
TORSDOF 7
