REMARK  Name = ZINC39448887
REMARK  8 active torsions:
REMARK  status: ('A' for Active; 'I' for Inactive)
REMARK    1  A    between atoms: C_1  and  O_2
REMARK    2  A    between atoms: O_2  and  C_3
REMARK    3  A    between atoms: C_6  and  C_11
REMARK    4  A    between atoms: C_8  and  O_9
REMARK    5  A    between atoms: O_9  and  C_10
REMARK    6  A    between atoms: C_16  and  S_18
REMARK    7  A    between atoms: S_18  and  C_19
REMARK    8  A    between atoms: C_19  and  C_20
REMARK                            x       y       z     vdW  Elec       q    Type
REMARK                         _______ _______ _______ _____ _____    ______ ____
ROOT
ATOM      1  C   UNL     1      -4.987  -2.627   0.035  0.00  0.00    +0.200 C 
ATOM      2  N   UNL     1      -4.878  -3.909  -0.670  0.00  0.00    -0.336 N 
ATOM      3  C   UNL     1      -5.153  -3.988  -1.945  0.00  0.00    +0.190 C 
ATOM      4  N   UNL     1      -5.582  -2.927  -2.647  0.00  0.00    -0.195 NA
ATOM      5  C   UNL     1      -5.986  -1.827  -2.037  0.00  0.00    +0.159 C 
ATOM      6  N   UNL     1      -5.984  -1.799  -0.661  0.00  0.00    -0.300 N 
ATOM      7  N   UNL     1      -4.996  -5.199  -2.590  0.00  0.00    -0.329 N 
ATOM      8  H   UNL     1      -4.687  -5.974  -2.096  0.00  0.00    +0.145 HD
ATOM      9  H   UNL     1      -5.196  -5.273  -3.536  0.00  0.00    +0.145 HD
ATOM     10  H   UNL     1      -6.618  -1.255  -0.168  0.00  0.00    +0.150 HD
ATOM     11  H   UNL     1      -4.601  -4.704  -0.186  0.00  0.00    +0.164 HD
ENDROOT
BRANCH   1  15
ATOM     12  C   UNL     1      -1.201  -0.638   0.010  0.00  0.00    +0.162 A 
ATOM     13  C   UNL     1      -2.374   0.099   0.019  0.00  0.00    +0.050 A 
ATOM     14  C   UNL     1      -3.596  -0.546   0.027  0.00  0.00    +0.011 A 
ATOM     15  C   UNL     1      -3.652  -1.928   0.026  0.00  0.00    -0.004 A 
ATOM     16  C   UNL     1      -2.485  -2.669   0.017  0.00  0.00    +0.056 A 
ATOM     17  C   UNL     1      -1.257  -2.028   0.003  0.00  0.00    +0.162 A 
BRANCH  12  19
ATOM     18  C   UNL     1      -0.017   1.425   0.010  0.00  0.00    +0.277 C 
ATOM     19  O   UNL     1       0.002  -0.004   0.002  0.00  0.00    -0.491 OA
ENDBRANCH  12  19
BRANCH  17  20
ATOM     20  O   UNL     1      -0.108  -2.756  -0.012  0.00  0.00    -0.491 OA
ATOM     21  C   UNL     1      -0.242  -4.179  -0.018  0.00  0.00    +0.277 C 
ENDBRANCH  17  20
ENDBRANCH   1  15
BRANCH   5  22
ATOM     22  S   UNL     1      -6.516  -0.425  -2.964  0.00  0.00    -0.081 S 
BRANCH  22  23
ATOM     23  C   UNL     1      -6.336  -0.949  -4.692  0.00  0.00    +0.173 C 
BRANCH  23  24
ATOM     24  C   UNL     1      -6.762   0.173  -5.603  0.00  0.00    +0.234 C 
ATOM     25  O   UNL     1      -7.149   1.223  -5.134  0.00  0.00    -0.274 OA
ATOM     26  N   UNL     1      -6.713   0.011  -6.940  0.00  0.00    -0.239 N 
ATOM     27  C   UNL     1      -6.275  -1.195  -7.507  0.00  0.00    +0.044 A 
ATOM     28  C   UNL     1      -6.934  -2.363  -7.141  0.00  0.00    +0.024 A 
ATOM     29  C   UNL     1      -6.571  -3.574  -7.694  0.00  0.00    +0.002 A 
ATOM     30  C   UNL     1      -5.545  -3.611  -8.620  0.00  0.00    +0.000 A 
ATOM     31  C   UNL     1      -4.884  -2.457  -8.970  0.00  0.00    +0.005 A 
ATOM     32  C   UNL     1      -5.222  -1.224  -8.409  0.00  0.00    -0.025 A 
ATOM     33  C   UNL     1      -4.341  -0.072  -8.835  0.00  0.00    +0.042 C 
ATOM     34  C   UNL     1      -4.687   1.237  -8.146  0.00  0.00    +0.042 C 
ATOM     35  C   UNL     1      -6.089   1.681  -8.480  0.00  0.00    -0.025 A 
ATOM     36  C   UNL     1      -7.103   1.039  -7.809  0.00  0.00    +0.044 A 
ATOM     37  C   UNL     1      -8.426   1.398  -8.003  0.00  0.00    +0.024 A 
ATOM     38  C   UNL     1      -8.714   2.404  -8.911  0.00  0.00    +0.002 A 
ATOM     39  C   UNL     1      -7.698   3.032  -9.607  0.00  0.00    +0.000 A 
ATOM     40  C   UNL     1      -6.361   2.672  -9.393  0.00  0.00    +0.005 A 
ENDBRANCH  23  24
ENDBRANCH  22  23
ENDBRANCH   5  22
TORSDOF 6
