REMARK  Name = ZINC19209091
REMARK  8 active torsions:
REMARK  status: ('A' for Active; 'I' for Inactive)
REMARK    1  A    between atoms: C_1  and  C_2
REMARK    2  A    between atoms: C_5  and  C_8
REMARK    3  A    between atoms: N_16  and  C_19
REMARK    4  A    between atoms: C_22  and  C_25
REMARK    5  A    between atoms: C_26  and  C_28
REMARK    6  A    between atoms: C_26  and  C_29
REMARK    7  A    between atoms: C_29  and  O_31
REMARK    8  A    between atoms: O_31  and  C_32
REMARK                            x       y       z     vdW  Elec       q    Type
REMARK                         _______ _______ _______ _____ _____    ______ ____
ROOT
ATOM      1  C   UNL     1      -1.403   1.863   0.783  0.00  0.00    +0.097 C 
ATOM      2  C   UNL     1      -0.156   1.673   0.023  0.00  0.00    +0.111 C 
ATOM      3  C   UNL     1      -0.019   0.099   0.008  0.00  0.00    +0.120 C 
ATOM      4  C   UNL     1       1.098   0.052  -1.002  0.00  0.00    +0.232 C 
ATOM      5  O   UNL     1       1.278  -0.790  -1.855  0.00  0.00    -0.274 OA
ATOM      6  N   UNL     1       1.866   1.154  -0.758  0.00  0.00    -0.210 N 
ATOM      7  C   UNL     1       1.224   2.088   0.018  0.00  0.00    +0.232 C 
ATOM      8  O   UNL     1       1.710   3.049   0.574  0.00  0.00    -0.274 OA
ATOM      9  C   UNL     1      -1.443  -0.223  -0.448  0.00  0.00    +0.127 C 
ATOM     10  N   UNL     1      -2.306   0.829   0.169  0.00  0.00    -0.294 NA
ATOM     11  C   UNL     1      -1.858  -1.609   0.048  0.00  0.00    +0.040 C 
ATOM     12  H   UNL     1      -2.943   0.389   0.950  0.00  0.00    +0.124 HD
ENDROOT
BRANCH   1  17
ATOM     13  C   UNL     1      -3.517   7.181  -0.018  0.00  0.00    +0.044 C 
ATOM     14  C   UNL     1      -2.966   5.794   0.191  0.00  0.00    -0.050 A 
ATOM     15  C   UNL     1      -2.251   5.500   1.337  0.00  0.00    +0.003 A 
ATOM     16  C   UNL     1      -1.746   4.228   1.529  0.00  0.00    +0.005 A 
ATOM     17  C   UNL     1      -1.955   3.250   0.574  0.00  0.00    -0.030 A 
ATOM     18  C   UNL     1      -2.665   3.546  -0.574  0.00  0.00    +0.005 A 
ATOM     19  C   UNL     1      -3.174   4.817  -0.764  0.00  0.00    +0.003 A 
ENDBRANCH   1  17
BRANCH   6  20
ATOM     20  C   UNL     1       3.170   1.316  -1.247  0.00  0.00    +0.044 A 
ATOM     21  C   UNL     1       3.751   0.321  -2.022  0.00  0.00    +0.024 A 
ATOM     22  C   UNL     1       5.034   0.486  -2.506  0.00  0.00    +0.005 A 
ATOM     23  C   UNL     1       5.744   1.635  -2.211  0.00  0.00    -0.050 A 
ATOM     24  C   UNL     1       5.170   2.625  -1.435  0.00  0.00    +0.005 A 
ATOM     25  C   UNL     1       3.885   2.469  -0.953  0.00  0.00    +0.024 A 
ATOM     26  C   UNL     1       7.146   1.808  -2.736  0.00  0.00    +0.044 C 
ENDBRANCH   6  20
BRANCH   9  27
ATOM     27  C   UNL     1      -1.537  -0.158  -1.951  0.00  0.00    +0.328 C 
ATOM     28  O   UNL     1      -1.401  -1.163  -2.608  0.00  0.00    -0.249 OA
BRANCH  27  29
ATOM     29  O   UNL     1      -1.770   1.016  -2.559  0.00  0.00    -0.467 OA
ATOM     30  C   UNL     1      -1.848   1.003  -4.009  0.00  0.00    +0.280 C 
ENDBRANCH  27  29
ENDBRANCH   9  27
TORSDOF 4
