REMARK  Name = ZINC39702029
REMARK  5 active torsions:
REMARK  status: ('A' for Active; 'I' for Inactive)
REMARK    1  A    between atoms: C_1  and  O_2
REMARK    2  A    between atoms: O_2  and  C_3
REMARK    3  A    between atoms: C_8  and  C_9
REMARK    4  A    between atoms: C_12  and  C_15
REMARK    5  A    between atoms: C_17  and  C_28
REMARK                            x       y       z     vdW  Elec       q    Type
REMARK                         _______ _______ _______ _____ _____    ______ ____
ROOT
ATOM      1  C   UNL     1       1.205  -5.178  -2.862  0.00  0.00    +0.154 C 
ATOM      2  C   UNL     1       0.833  -6.642  -2.733  0.00  0.00    -0.014 C 
ATOM      3  C   UNL     1      -0.044  -7.161  -3.690  0.00  0.00    +0.002 A 
ATOM      4  C   UNL     1      -0.443  -8.513  -3.644  0.00  0.00    +0.025 A 
ATOM      5  C   UNL     1      -1.298  -8.992  -4.588  0.00  0.00    +0.019 A 
ATOM      6  C   UNL     1      -1.789  -8.174  -5.604  0.00  0.00    +0.017 A 
ATOM      7  C   UNL     1      -1.439  -6.861  -5.700  0.00  0.00    +0.025 A 
ATOM      8  C   UNL     1      -0.560  -6.298  -4.758  0.00  0.00    +0.041 A 
ATOM      9  N   UNL     1      -0.217  -5.008  -4.855  0.00  0.00    -0.284 N 
ATOM     10  C   UNL     1       0.599  -4.407  -4.013  0.00  0.00    +0.230 C 
ATOM     11  O   UNL     1       0.865  -3.229  -4.162  0.00  0.00    -0.274 OA
ATOM     12 BR   UNL     1      -1.830 -10.806  -4.522  0.00  0.00    -0.050 Br
ATOM     13  H   UNL     1      -0.590  -4.488  -5.583  0.00  0.00    +0.155 HD
ENDROOT
BRANCH   2  14
ATOM     14  C   UNL     1       1.350  -7.449  -1.688  0.00  0.00    -0.020 A 
ATOM     15  C   UNL     1       0.484  -8.017  -0.739  0.00  0.00    +0.008 A 
ATOM     16  C   UNL     1       0.997  -8.799   0.272  0.00  0.00    +0.001 A 
ATOM     17  C   UNL     1       2.361  -9.026   0.355  0.00  0.00    +0.000 A 
ATOM     18  C   UNL     1       3.224  -8.470  -0.577  0.00  0.00    +0.001 A 
ATOM     19  C   UNL     1       2.731  -7.690  -1.598  0.00  0.00    +0.008 A 
ENDBRANCH   2  14
BRANCH   1  22
ATOM     20  C   UNL     1       0.198  -2.778  -0.028  0.00  0.00    +0.243 C 
ATOM     21  C   UNL     1       1.168  -3.061  -1.200  0.00  0.00    +0.107 C 
ATOM     22  C   UNL     1       0.812  -4.485  -1.583  0.00  0.00    +0.078 C 
ATOM     23  N   UNL     1       0.125  -4.998  -0.638  0.00  0.00    -0.092 NA
ATOM     24  O   UNL     1      -0.083  -4.112   0.445  0.00  0.00    -0.385 OA
BRANCH  20  30
ATOM     25  C   UNL     1       0.845  -0.571   0.970  0.00  0.00    +0.127 A 
ATOM     26  C   UNL     1       1.459   0.184   1.959  0.00  0.00    +0.046 A 
ATOM     27  C   UNL     1       2.096  -0.446   3.011  0.00  0.00    +0.004 A 
ATOM     28  C   UNL     1       2.123  -1.827   3.077  0.00  0.00    +0.001 A 
ATOM     29  C   UNL     1       1.512  -2.581   2.093  0.00  0.00    +0.011 A 
ATOM     30  C   UNL     1       0.869  -1.956   1.042  0.00  0.00    +0.037 A 
BRANCH  25  32
ATOM     31  C   UNL     1       0.232   1.475  -0.075  0.00  0.00    +0.277 C 
ATOM     32  O   UNL     1       0.217   0.046  -0.065  0.00  0.00    -0.495 OA
ENDBRANCH  25  32
ENDBRANCH  20  30
ENDBRANCH   1  22
TORSDOF 4
