REMARK  Name = ZINC64623206
REMARK  6 active torsions:
REMARK  status: ('A' for Active; 'I' for Inactive)
REMARK    1  A    between atoms: C_1  and  O_2
REMARK    2  A    between atoms: O_2  and  C_3
REMARK    3  A    between atoms: C_10  and  C_29
REMARK    4  A    between atoms: N_20  and  C_21
REMARK    5  A    between atoms: C_25  and  S_27
REMARK    6  A    between atoms: S_27  and  C_28
REMARK                            x       y       z     vdW  Elec       q    Type
REMARK                         _______ _______ _______ _____ _____    ______ ____
ROOT
ATOM      1  C   UNL     1       0.360  -0.230  -0.424  0.00  0.00    +0.121 A 
ATOM      2  C   UNL     1       1.122   0.624  -1.240  0.00  0.00    +0.047 A 
ATOM      3  C   UNL     1       1.975   0.161  -2.178  0.00  0.00    +0.029 A 
ATOM      4  C   UNL     1       2.132  -1.284  -2.372  0.00  0.00    +0.043 A 
ATOM      5  N   UNL     1       2.864  -1.980  -3.209  0.00  0.00    -0.375 N 
ATOM      6  C   UNL     1       2.685  -3.400  -2.912  0.00  0.00    +0.131 C 
ATOM      7  C   UNL     1       2.185  -4.181  -4.132  0.00  0.00    +0.134 C 
ATOM      8  N   UNL     1       1.655  -5.469  -3.657  0.00  0.00    -0.276 N 
ATOM      9  C   UNL     1       0.544  -5.513  -2.701  0.00  0.00    +0.114 C 
ATOM     10  C   UNL     1       0.940  -4.748  -1.425  0.00  0.00    +0.052 C 
ATOM     11  C   UNL     1       1.597  -3.456  -1.853  0.00  0.00    -0.035 C 
ATOM     12  C   UNL     1       1.323  -2.188  -1.516  0.00  0.00    +0.003 A 
ATOM     13  C   UNL     1       0.432  -1.578  -0.522  0.00  0.00    +0.055 A 
ATOM     14  C   UNL     1       2.196  -6.619  -4.105  0.00  0.00    +0.307 C 
ATOM     15  O   UNL     1       3.219  -6.595  -4.763  0.00  0.00    -0.252 OA
ATOM     16  N   UNL     1       1.604  -7.797  -3.824  0.00  0.00    -0.269 N 
ATOM     17  H   UNL     1       0.739  -7.812  -3.386  0.00  0.00    +0.156 HD
ATOM     18  H   UNL     1       3.428  -1.615  -3.909  0.00  0.00    +0.160 HD
ENDROOT
BRANCH   7  19
ATOM     19  C   UNL     1       3.325  -4.419  -5.088  0.00  0.00    -0.025 A 
ATOM     20  C   UNL     1       3.096  -4.413  -6.452  0.00  0.00    +0.008 A 
ATOM     21  C   UNL     1       4.141  -4.630  -7.329  0.00  0.00    +0.038 A 
ATOM     22  C   UNL     1       5.418  -4.854  -6.843  0.00  0.00    +0.123 A 
ATOM     23  C   UNL     1       5.647  -4.859  -5.477  0.00  0.00    +0.038 A 
ATOM     24  C   UNL     1       4.601  -4.636  -4.601  0.00  0.00    +0.008 A 
ATOM     25  F   UNL     1       6.441  -5.066  -7.700  0.00  0.00    -0.205 F 
ENDBRANCH   7  19
BRANCH  16  26
ATOM     26  C   UNL     1       2.237  -8.998  -4.165  0.00  0.00    +0.036 A 
ATOM     27  C   UNL     1       3.088  -9.047  -5.262  0.00  0.00    +0.023 A 
ATOM     28  C   UNL     1       3.714 -10.232  -5.600  0.00  0.00    +0.003 A 
ATOM     29  C   UNL     1       3.495 -11.371  -4.850  0.00  0.00    +0.015 A 
ATOM     30  C   UNL     1       2.644 -11.328  -3.751  0.00  0.00    +0.009 A 
ATOM     31  C   UNL     1       2.019 -10.137  -3.406  0.00  0.00    +0.038 A 
BRANCH  30  32
ATOM     32  S   UNL     1       2.365 -12.781  -2.795  0.00  0.00    -0.129 S 
ATOM     33  C   UNL     1       3.378 -14.045  -3.610  0.00  0.00    +0.090 C 
ENDBRANCH  30  32
ENDBRANCH  16  26
BRANCH   1  35
ATOM     34  C   UNL     1      -0.520   1.744   0.568  0.00  0.00    +0.277 C 
ATOM     35  O   UNL     1      -0.475   0.317   0.499  0.00  0.00    -0.495 OA
ENDBRANCH   1  35
TORSDOF 4
