REMARK  Name = ZINC50564092
REMARK  4 active torsions:
REMARK  status: ('A' for Active; 'I' for Inactive)
REMARK    1  A    between atoms: C_1  and  C_2
REMARK    2  A    between atoms: N_7  and  C_11
REMARK    3  A    between atoms: C_8  and  C_10
REMARK    4  A    between atoms: C_16  and  N_17
REMARK                            x       y       z     vdW  Elec       q    Type
REMARK                         _______ _______ _______ _____ _____    ______ ____
ROOT
ATOM      1  C   UNL     1       1.788  -2.769   1.399  0.00  0.00    +0.053 A 
ATOM      2  C   UNL     1       2.448  -3.199   0.258  0.00  0.00    +0.048 A 
ATOM      3  C   UNL     1       3.587  -3.984   0.371  0.00  0.00    +0.038 A 
ATOM      4  C   UNL     1       4.067  -4.337   1.625  0.00  0.00    -0.024 A 
ATOM      5  C   UNL     1       3.411  -3.909   2.764  0.00  0.00    +0.030 A 
ATOM      6  C   UNL     1       2.276  -3.121   2.658  0.00  0.00    +0.046 A 
ATOM      7  C   UNL     1       5.306  -5.187   1.742  0.00  0.00    +0.046 C 
ATOM      8  C   UNL     1       5.357  -6.177   0.578  0.00  0.00    +0.101 C 
ATOM      9  C   UNL     1       5.112  -5.456  -0.720  0.00  0.00    +0.218 C 
ATOM     10  O   UNL     1       5.694  -5.812  -1.723  0.00  0.00    -0.275 OA
ATOM     11  N   UNL     1       4.256  -4.420  -0.780  0.00  0.00    -0.285 N 
ATOM     12  H   UNL     1       4.100  -3.972  -1.627  0.00  0.00    +0.155 HD
ENDROOT
BRANCH   1  18
ATOM     13  C   UNL     1      -0.019   1.526   0.010  0.00  0.00    +0.009 C 
ATOM     14  C   UNL     1       0.002  -0.004   0.002  0.00  0.00    +0.006 C 
ATOM     15  C   UNL     1      -1.433  -0.534   0.015  0.00  0.00    +0.006 C 
ATOM     16  C   UNL     1      -1.414  -2.064  -0.027  0.00  0.00    +0.019 C 
ATOM     17  C   UNL     1      -0.692  -2.596   1.215  0.00  0.00    +0.105 C 
ATOM     18  N   UNL     1       0.639  -1.977   1.288  0.00  0.00    -0.325 N 
ATOM     19  C   UNL     1       0.742  -0.512   1.244  0.00  0.00    +0.073 C 
ATOM     20  C   UNL     1       0.104   0.084   2.500  0.00  0.00    +0.028 C 
ENDBRANCH   1  18
BRANCH   6  21
ATOM     21  N   UNL     1       1.614  -2.683   3.814  0.00  0.00    -0.357 N 
ATOM     22  H   UNL     1       0.818  -2.135   3.739  0.00  0.00    +0.142 HD
ATOM     23  H   UNL     1       1.953  -2.928   4.689  0.00  0.00    +0.142 HD
ENDBRANCH   6  21
TORSDOF 2
