REMARK  Name = ZINC65036823
REMARK  8 active torsions:
REMARK  status: ('A' for Active; 'I' for Inactive)
REMARK    1  A    between atoms: C_1  and  C_2
REMARK    2  A    between atoms: C_5  and  C_8
REMARK    3  A    between atoms: C_9  and  C_19
REMARK    4  A    between atoms: N_10  and  C_13
REMARK    5  A    between atoms: C_22  and  C_24
REMARK    6  A    between atoms: N_26  and  C_27
REMARK    7  A    between atoms: C_27  and  C_28
REMARK    8  A    between atoms: C_28  and  C_29
REMARK                            x       y       z     vdW  Elec       q    Type
REMARK                         _______ _______ _______ _____ _____    ______ ____
ROOT
ATOM      1  C   UNL     1      -0.130  -4.280  -0.170  0.00  0.00    +0.075 A 
ATOM      2  C   UNL     1      -0.650  -5.090   0.831  0.00  0.00    +0.110 A 
ATOM      3  N   UNL     1      -0.138  -6.351   0.605  0.00  0.00    -0.326 N 
ATOM      4  C   UNL     1       0.650  -6.275  -0.488  0.00  0.00    +0.175 A 
ATOM      5  N   UNL     1       0.648  -5.053  -0.947  0.00  0.00    -0.345 N 
ATOM      6  H   UNL     1       1.136  -4.749  -1.728  0.00  0.00    +0.167 HD
ENDROOT
BRANCH   1  11
ATOM      7  C   UNL     1      -1.143   1.343  -0.876  0.00  0.00    +0.044 C 
ATOM      8  C   UNL     1      -0.878  -0.129  -0.691  0.00  0.00    -0.050 A 
ATOM      9  C   UNL     1      -1.931  -0.994  -0.451  0.00  0.00    +0.004 A 
ATOM     10  C   UNL     1      -1.695  -2.342  -0.281  0.00  0.00    +0.010 A 
ATOM     11  C   UNL     1      -0.391  -2.834  -0.352  0.00  0.00    +0.000 A 
ATOM     12  C   UNL     1       0.667  -1.957  -0.595  0.00  0.00    +0.010 A 
ATOM     13  C   UNL     1       0.417  -0.611  -0.769  0.00  0.00    +0.004 A 
ENDBRANCH   1  11
BRANCH   3  14
ATOM     14  C   UNL     1      -0.401  -7.550   1.404  0.00  0.00    +0.089 C 
ATOM     15  C   UNL     1      -1.046  -8.620   0.521  0.00  0.00    +0.025 C 
ATOM     16  C   UNL     1      -1.321  -9.873   1.355  0.00  0.00    +0.002 C 
ATOM     17  C   UNL     1      -0.004 -10.406   1.923  0.00  0.00    +0.000 C 
ATOM     18  C   UNL     1       0.641  -9.336   2.806  0.00  0.00    +0.002 C 
ATOM     19  C   UNL     1       0.916  -8.084   1.972  0.00  0.00    +0.025 C 
ENDBRANCH   3  14
BRANCH   2  20
ATOM     20  C   UNL     1      -1.557  -4.687   1.909  0.00  0.00    +0.154 A 
ATOM     21  C   UNL     1      -1.361  -3.632   2.779  0.00  0.00    +0.052 A 
ATOM     22  C   UNL     1      -2.459  -3.603   3.639  0.00  0.00    +0.055 A 
ATOM     23  C   UNL     1      -3.288  -4.641   3.266  0.00  0.00    +0.190 A 
ATOM     24  O   UNL     1      -2.726  -5.279   2.217  0.00  0.00    -0.449 OA
BRANCH  23  25
ATOM     25  C   UNL     1      -4.561  -4.989   3.897  0.00  0.00    +0.279 C 
ATOM     26  O   UNL     1      -4.972  -4.336   4.839  0.00  0.00    -0.267 OA
ATOM     27  N   UNL     1      -5.279  -6.032   3.435  0.00  0.00    -0.309 N 
ATOM     28  H   UNL     1      -4.952  -6.552   2.685  0.00  0.00    +0.149 HD
BRANCH  27  29
ATOM     29  C   UNL     1      -6.555  -6.380   4.067  0.00  0.00    +0.109 C 
BRANCH  29  30
ATOM     30  C   UNL     1      -7.161  -7.592   3.357  0.00  0.00    +0.049 C 
BRANCH  30  31
ATOM     31  C   UNL     1      -8.473  -7.950   4.007  0.00  0.00    -0.072 C 
ATOM     32  C   UNL     1      -9.559  -7.480   3.482  0.00  0.00    -0.028 C 
ATOM     33  C   UNL     1     -10.935  -7.739   4.021  0.00  0.00    +0.027 C 
ATOM     34  C   UNL     1     -10.910  -8.938   4.972  0.00  0.00    +0.004 C 
ATOM     35  C   UNL     1      -9.768  -8.738   5.976  0.00  0.00    +0.005 C 
ATOM     36  C   UNL     1      -8.440  -8.835   5.218  0.00  0.00    +0.030 C 
ENDBRANCH  30  31
ENDBRANCH  29  30
ENDBRANCH  27  29
ENDBRANCH  23  25
ENDBRANCH   2  20
TORSDOF 7
