REMARK  Name = ZINC39898319
REMARK  6 active torsions:
REMARK  status: ('A' for Active; 'I' for Inactive)
REMARK    1  A    between atoms: C_1  and  C_2
REMARK    2  A    between atoms: C_2  and  C_3
REMARK    3  A    between atoms: C_3  and  N_4
REMARK    4  A    between atoms: C_5  and  C_23
REMARK    5  A    between atoms: C_8  and  C_15
REMARK    6  A    between atoms: C_20  and  O_21
REMARK                            x       y       z     vdW  Elec       q    Type
REMARK                         _______ _______ _______ _____ _____    ______ ____
ROOT
ATOM      1  N   UNL     1       0.762  -1.976   1.234  0.00  0.00    -0.285 N 
ATOM      2  C   UNL     1      -0.254  -2.853   1.829  0.00  0.00    +0.141 C 
ATOM      3  C   UNL     1       0.204  -4.261   1.564  0.00  0.00    +0.035 A 
ATOM      4  C   UNL     1      -0.044  -5.630   1.712  0.00  0.00    +0.102 A 
ATOM      5  N   UNL     1       0.950  -6.276   1.133  0.00  0.00    -0.173 NA
ATOM      6  N   UNL     1       1.800  -5.451   0.635  0.00  0.00    -0.272 N 
ATOM      7  H   UNL     1       2.609  -5.702   0.163  0.00  0.00    +0.189 HD
ATOM      8  C   UNL     1       1.395  -4.167   0.869  0.00  0.00    +0.126 A 
ATOM      9  C   UNL     1       1.711  -2.748   0.675  0.00  0.00    +0.265 C 
ATOM     10  O   UNL     1       2.694  -2.329   0.093  0.00  0.00    -0.268 OA
ENDROOT
BRANCH   4  11
ATOM     11  C   UNL     1      -1.211  -6.242   2.395  0.00  0.00    +0.045 A 
ATOM     12  C   UNL     1      -2.193  -5.434   2.960  0.00  0.00    +0.033 A 
ATOM     13  C   UNL     1      -3.278  -6.009   3.594  0.00  0.00    +0.042 A 
ATOM     14  C   UNL     1      -3.390  -7.387   3.670  0.00  0.00    +0.023 A 
ATOM     15  C   UNL     1      -2.420  -8.197   3.112  0.00  0.00    +0.047 A 
ATOM     16  C   UNL     1      -1.331  -7.633   2.468  0.00  0.00    +0.126 A 
ATOM     17 CL   UNL     1      -4.502  -5.000   4.299  0.00  0.00    -0.084 Cl
BRANCH  16  18
ATOM     18  O   UNL     1      -0.379  -8.429   1.914  0.00  0.00    -0.506 OA
ATOM     19  H   UNL     1       0.342  -8.658   2.516  0.00  0.00    +0.292 HD
ENDBRANCH  16  18
ENDBRANCH   4  11
BRANCH   2  20
ATOM     20  C   UNL     1      -0.348  -2.607   3.312  0.00  0.00    -0.022 A 
ATOM     21  C   UNL     1       0.801  -2.388   4.050  0.00  0.00    +0.007 A 
ATOM     22  C   UNL     1       0.716  -2.162   5.411  0.00  0.00    +0.020 A 
ATOM     23  C   UNL     1      -0.519  -2.155   6.035  0.00  0.00    +0.041 A 
ATOM     24  C   UNL     1      -1.668  -2.375   5.296  0.00  0.00    +0.020 A 
ATOM     25  C   UNL     1      -1.582  -2.595   3.934  0.00  0.00    +0.007 A 
ATOM     26 CL   UNL     1      -0.626  -1.873   7.744  0.00  0.00    -0.084 Cl
ENDBRANCH   2  20
BRANCH   1  27
ATOM     27  C   UNL     1       0.742  -0.511   1.242  0.00  0.00    +0.109 C 
BRANCH  27  29
ATOM     28  C   UNL     1      -0.019   1.526   0.010  0.00  0.00    +0.005 C 
ATOM     29  C   UNL     1       0.002  -0.004   0.002  0.00  0.00    +0.016 C 
ENDBRANCH  27  29
ENDBRANCH   1  27
TORSDOF 5
