REMARK  Name = ZINC01283555
REMARK  11 active torsions:
REMARK  status: ('A' for Active; 'I' for Inactive)
REMARK    1  A    between atoms: C_1  and  C_2
REMARK    2  A    between atoms: C_2  and  O_3
REMARK    3  A    between atoms: O_3  and  C_4
REMARK    4  A    between atoms: C_7  and  C_12
REMARK    5  A    between atoms: C_9  and  O_10
REMARK    6  A    between atoms: O_10  and  C_11
REMARK    7  A    between atoms: C_17  and  C_21
REMARK    8  A    between atoms: C_17  and  C_22
REMARK    9  A    between atoms: C_27  and  S_29
REMARK   10  A    between atoms: S_29  and  C_30
REMARK   11  A    between atoms: C_30  and  C_31
REMARK                            x       y       z     vdW  Elec       q    Type
REMARK                         _______ _______ _______ _____ _____    ______ ____
ROOT
ATOM      1  C   UNL     1       1.107  -6.044  -1.844  0.00  0.00    +0.176 C 
ATOM      2  C   UNL     1      -0.278  -6.651  -1.907  0.00  0.00    +0.041 C 
ATOM      3  C   UNL     1      -0.798  -7.361  -0.883  0.00  0.00    +0.020 C 
ATOM      4  C   UNL     1      -2.183  -7.956  -0.976  0.00  0.00    +0.058 C 
ATOM      5  C   UNL     1      -3.063  -7.076  -1.865  0.00  0.00    -0.023 C 
ATOM      6  C   UNL     1      -2.408  -6.979  -3.247  0.00  0.00    +0.086 C 
ATOM      7  C   UNL     1      -1.013  -6.444  -3.088  0.00  0.00    +0.164 C 
ATOM      8  O   UNL     1      -0.509  -5.818  -4.000  0.00  0.00    -0.292 OA
ATOM      9  C   UNL     1      -3.183  -5.679  -1.252  0.00  0.00    +0.011 C 
ATOM     10  C   UNL     1      -4.453  -7.703  -1.996  0.00  0.00    +0.011 C 
ATOM     11  N   UNL     1      -0.095  -7.579   0.277  0.00  0.00    -0.287 N 
ATOM     12  C   UNL     1       1.267  -7.324   0.271  0.00  0.00    +0.219 A 
ATOM     13  N   UNL     1       1.846  -6.609  -0.721  0.00  0.00    -0.220 N 
ATOM     14  N   UNL     1       3.207  -6.550  -0.424  0.00  0.00    -0.141 NA
ATOM     15  C   UNL     1       3.377  -7.208   0.703  0.00  0.00    +0.211 A 
ATOM     16  N   UNL     1       2.197  -7.673   1.118  0.00  0.00    -0.187 NA
ATOM     17  H   UNL     1      -0.539  -7.902   1.077  0.00  0.00    +0.155 HD
ENDROOT
BRANCH   1  21
ATOM     18  C   UNL     1       0.777  -1.811  -1.336  0.00  0.00    +0.162 A 
ATOM     19  C   UNL     1       0.243  -2.669  -0.388  0.00  0.00    +0.050 A 
ATOM     20  C   UNL     1       0.352  -4.037  -0.555  0.00  0.00    +0.010 A 
ATOM     21  C   UNL     1       0.992  -4.552  -1.667  0.00  0.00    -0.015 A 
ATOM     22  C   UNL     1       1.526  -3.702  -2.616  0.00  0.00    +0.055 A 
ATOM     23  C   UNL     1       1.416  -2.330  -2.458  0.00  0.00    +0.162 A 
BRANCH  23  24
ATOM     24  O   UNL     1       1.936  -1.492  -3.394  0.00  0.00    -0.491 OA
ATOM     25  C   UNL     1       2.578  -2.095  -4.520  0.00  0.00    +0.277 C 
ENDBRANCH  23  24
BRANCH  18  26
ATOM     26  O   UNL     1       0.671  -0.465  -1.174  0.00  0.00    -0.489 OA
BRANCH  26  28
ATOM     27  C   UNL     1      -0.019   1.526   0.010  0.00  0.00    +0.048 C 
ATOM     28  C   UNL     1       0.002  -0.004   0.002  0.00  0.00    +0.226 C 
ENDBRANCH  26  28
ENDBRANCH  18  26
ENDBRANCH   1  21
BRANCH  15  29
ATOM     29  S   UNL     1       4.915  -7.439   1.530  0.00  0.00    -0.080 S 
BRANCH  29  30
ATOM     30  C   UNL     1       4.482  -8.412   2.998  0.00  0.00    +0.114 C 
BRANCH  30  31
ATOM     31  C   UNL     1       5.725  -8.684   3.806  0.00  0.00    -0.019 A 
ATOM     32  C   UNL     1       6.479  -9.815   3.555  0.00  0.00    +0.006 A 
ATOM     33  C   UNL     1       7.619 -10.064   4.296  0.00  0.00    +0.000 A 
ATOM     34  C   UNL     1       8.007  -9.182   5.287  0.00  0.00    +0.001 A 
ATOM     35  C   UNL     1       7.254  -8.050   5.538  0.00  0.00    +0.020 A 
ATOM     36  C   UNL     1       6.116  -7.798   4.793  0.00  0.00    +0.045 A 
ATOM     37 CL   UNL     1       5.173  -6.373   5.104  0.00  0.00    -0.083 Cl
ENDBRANCH  30  31
ENDBRANCH  29  30
ENDBRANCH  15  29
TORSDOF 7
