REMARK  Name = ZINC11612182
REMARK  7 active torsions:
REMARK  status: ('A' for Active; 'I' for Inactive)
REMARK    1  A    between atoms: C_4  and  C_7
REMARK    2  A    between atoms: C_7  and  C_9
REMARK    3  A    between atoms: C_11  and  C_34
REMARK    4  A    between atoms: C_13  and  C_25
REMARK    5  A    between atoms: C_25  and  C_31
REMARK    6  A    between atoms: C_26  and  C_27
REMARK    7  A    between atoms: C_26  and  C_29
REMARK                            x       y       z     vdW  Elec       q    Type
REMARK                         _______ _______ _______ _____ _____    ______ ____
ROOT
ATOM      1  C   UNL     1      -4.377   3.589   1.260  0.00  0.00    +0.136 C 
ATOM      2  C   UNL     1      -4.037   4.829   0.395  0.00  0.00    +0.055 C 
ATOM      3  C   UNL     1      -2.493   4.709   0.256  0.00  0.00    +0.050 C 
ATOM      4  C   UNL     1      -2.301   3.194   0.137  0.00  0.00    +0.095 C 
ATOM      5  C   UNL     1      -3.409   1.214   1.208  0.00  0.00    +0.054 C 
ATOM      6  C   UNL     1      -2.209   0.665   1.486  0.00  0.00    +0.022 C 
ATOM      7  C   UNL     1      -1.000   1.513   1.451  0.00  0.00    -0.019 A 
ATOM      8  C   UNL     1      -1.019   2.747   0.788  0.00  0.00    -0.021 A 
ATOM      9  C   UNL     1       0.114   3.525   0.741  0.00  0.00    +0.006 A 
ATOM     10  C   UNL     1       1.276   3.093   1.358  0.00  0.00    +0.000 A 
ATOM     11  C   UNL     1       1.303   1.880   2.023  0.00  0.00    +0.001 A 
ATOM     12  C   UNL     1       0.174   1.089   2.076  0.00  0.00    +0.008 A 
ATOM     13  N   UNL     1      -3.534   2.580   0.555  0.00  0.00    -0.384 NA
ATOM     14  H   UNL     1      -4.036   2.386  -0.320  0.00  0.00    +0.127 HD
ENDROOT
BRANCH   2  15
ATOM     15  C   UNL     1      -4.417   6.102   1.106  0.00  0.00    -0.041 A 
ATOM     16  C   UNL     1      -5.152   7.069   0.446  0.00  0.00    +0.007 A 
ATOM     17  C   UNL     1      -5.505   8.235   1.099  0.00  0.00    +0.038 A 
ATOM     18  C   UNL     1      -5.114   8.439   2.411  0.00  0.00    +0.123 A 
ATOM     19  C   UNL     1      -4.374   7.472   3.070  0.00  0.00    +0.038 A 
ATOM     20  C   UNL     1      -4.026   6.304   2.417  0.00  0.00    +0.007 A 
ATOM     21  F   UNL     1      -5.455   9.580   3.049  0.00  0.00    -0.205 F 
ENDBRANCH   2  15
BRANCH   1  22
ATOM     22  C   UNL     1      -5.775   3.114   0.962  0.00  0.00    +0.182 C 
ATOM     23  O   UNL     1      -5.979   2.385   0.015  0.00  0.00    -0.290 OA
BRANCH  22  27
ATOM     24  C   UNL     1      -9.000   4.328   3.435  0.00  0.00    +0.000 A 
ATOM     25  C   UNL     1      -9.252   3.617   2.275  0.00  0.00    +0.001 A 
ATOM     26  C   UNL     1      -8.210   3.219   1.465  0.00  0.00    +0.011 A 
ATOM     27  C   UNL     1      -6.894   3.535   1.820  0.00  0.00    +0.019 A 
ATOM     28  C   UNL     1      -6.647   4.249   2.997  0.00  0.00    +0.011 A 
ATOM     29  C   UNL     1      -7.701   4.644   3.793  0.00  0.00    +0.001 A 
ENDBRANCH  22  27
ENDBRANCH   1  22
BRANCH   3  30
ATOM     30  C   UNL     1      -1.800   5.238   1.486  0.00  0.00    -0.033 C 
ATOM     31  C   UNL     1      -1.615   4.436   2.552  0.00  0.00    +0.128 C 
BRANCH  30  32
ATOM     32  C   UNL     1      -1.314   6.664   1.522  0.00  0.00    +0.017 C 
ATOM     33  C   UNL     1      -1.504   7.508   0.260  0.00  0.00    +0.008 C 
ATOM     34  C   UNL     1      -0.107   7.021   0.653  0.00  0.00    +0.008 C 
ENDBRANCH  30  32
BRANCH  31  35
ATOM     35  C   UNL     1      -2.590   3.438   2.875  0.00  0.00    +0.110 C 
ATOM     36  N   UNL     1      -3.364   2.647   3.131  0.00  0.00    -0.190 NA
ENDBRANCH  31  35
BRANCH  31  37
ATOM     37  C   UNL     1      -0.444   4.581   3.362  0.00  0.00    +0.110 C 
ATOM     38  N   UNL     1       0.486   4.696   4.005  0.00  0.00    -0.190 NA
ENDBRANCH  31  37
ENDBRANCH   3  30
TORSDOF 7
