REMARK  Name = ZINC37626072
REMARK  5 active torsions:
REMARK  status: ('A' for Active; 'I' for Inactive)
REMARK    1  A    between atoms: C_5  and  N_8
REMARK    2  A    between atoms: C_9  and  C_11
REMARK    3  A    between atoms: C_11  and  C_13
REMARK    4  A    between atoms: C_11  and  N_17
REMARK    5  A    between atoms: C_13  and  C_14
REMARK                            x       y       z     vdW  Elec       q    Type
REMARK                         _______ _______ _______ _____ _____    ______ ____
ROOT
ATOM      1  N   UNL     1       1.238  -2.081  -0.021  0.00  0.00    -0.285 N 
ATOM      2  C   UNL     1       0.155  -2.774   0.384  0.00  0.00    +0.203 C 
ATOM      3  O   UNL     1      -0.868  -2.189   0.670  0.00  0.00    -0.277 OA
ATOM      4  H   UNL     1       2.031  -2.552  -0.320  0.00  0.00    +0.155 HD
ENDROOT
BRANCH   1   9
ATOM      5  C   UNL     1       0.781   1.397  -1.130  0.00  0.00    +0.032 A 
ATOM      6  C   UNL     1       1.172   2.087   0.004  0.00  0.00    +0.020 A 
ATOM      7  C   UNL     1       1.585   1.396   1.129  0.00  0.00    +0.032 A 
ATOM      8  C   UNL     1       1.607   0.015   1.124  0.00  0.00    +0.041 A 
ATOM      9  C   UNL     1       1.215  -0.681  -0.013  0.00  0.00    +0.062 A 
ATOM     10  C   UNL     1       0.802   0.016  -1.141  0.00  0.00    +0.041 A 
ATOM     11 BR   UNL     1       0.267  -0.926  -2.692  0.00  0.00    -0.048 Br
ATOM     12 BR   UNL     1       2.172  -0.929   2.663  0.00  0.00    -0.048 Br
ATOM     13 BR   UNL     1       1.144   3.978   0.015  0.00  0.00    -0.050 Br
ENDBRANCH   1   9
BRANCH   2  14
ATOM     14  C   UNL     1       0.217  -4.277   0.483  0.00  0.00    +0.022 C 
BRANCH  14  15
ATOM     15  N   UNL     1      -0.854  -4.754   1.368  0.00  0.00    +0.386 N 
ATOM     16  H   UNL     1      -0.737  -4.352   2.285  0.00  0.00    -0.089 HD
ATOM     17  H   UNL     1      -1.749  -4.478   0.992  0.00  0.00    -0.089 HD
ATOM     18  H   UNL     1      -0.813  -5.760   1.434  0.00  0.00    -0.089 HD
ENDBRANCH  14  15
BRANCH  14  19
ATOM     19  C   UNL     1       0.039  -4.887  -0.909  0.00  0.00    +0.088 C 
BRANCH  19  20
ATOM     20  C   UNL     1       0.222  -6.381  -0.830  0.00  0.00    +0.209 C 
ATOM     21  O   UNL     1       0.471  -6.906   0.235  0.00  0.00    -0.276 OA
ATOM     22  N   UNL     1       0.110  -7.133  -1.942  0.00  0.00    -0.329 N 
ATOM     23  H   UNL     1      -0.089  -6.713  -2.794  0.00  0.00    +0.145 HD
ATOM     24  H   UNL     1       0.228  -8.095  -1.891  0.00  0.00    +0.145 HD
ENDBRANCH  19  20
ENDBRANCH  14  19
ENDBRANCH   2  14
TORSDOF 5
