REMARK  Name = ZINC67576340
REMARK  10 active torsions:
REMARK  status: ('A' for Active; 'I' for Inactive)
REMARK    1  A    between atoms: C_1  and  C_2
REMARK    2  A    between atoms: C_5  and  C_29
REMARK    3  A    between atoms: N_8  and  C_10
REMARK    4  A    between atoms: C_10  and  C_11
REMARK    5  A    between atoms: C_10  and  C_12
REMARK    6  A    between atoms: C_10  and  C_13
REMARK    7  A    between atoms: C_13  and  N_14
REMARK    8  A    between atoms: N_17  and  C_18
REMARK    9  A    between atoms: C_21  and  N_25
REMARK   10  A    between atoms: C_26  and  C_28
REMARK                            x       y       z     vdW  Elec       q    Type
REMARK                         _______ _______ _______ _____ _____    ______ ____
ROOT
ATOM      1  N   UNL     1       2.010   1.665   3.437  0.00  0.00    -0.300 N 
ATOM      2  C   UNL     1       1.538   2.463   4.415  0.00  0.00    +0.304 C 
ATOM      3  O   UNL     1       1.221   1.988   5.489  0.00  0.00    -0.253 OA
ATOM      4  N   UNL     1       1.416   3.789   4.203  0.00  0.00    -0.268 N 
ATOM      5  H   UNL     1       2.262   2.044   2.581  0.00  0.00    +0.150 HD
ATOM      6  H   UNL     1       1.739   4.179   3.376  0.00  0.00    +0.156 HD
ENDROOT
BRANCH   4   7
ATOM      7  C   UNL     1       0.823   4.603   5.177  0.00  0.00    +0.053 A 
ATOM      8  C   UNL     1      -0.069   4.056   6.090  0.00  0.00    +0.026 A 
ATOM      9  C   UNL     1      -0.654   4.858   7.050  0.00  0.00    +0.025 A 
ATOM     10  C   UNL     1      -0.350   6.212   7.103  0.00  0.00    +0.035 A 
ATOM     11  C   UNL     1       0.541   6.760   6.190  0.00  0.00    +0.045 A 
ATOM     12  C   UNL     1       1.131   5.957   5.233  0.00  0.00    +0.064 A 
ATOM     13 CL   UNL     1       2.251   6.640   4.096  0.00  0.00    -0.082 Cl
BRANCH  10  14
ATOM     14  N   UNL     1      -0.944   7.025   8.077  0.00  0.00    -0.286 N 
ATOM     15  C   UNL     1      -1.253   8.305   7.789  0.00  0.00    +0.214 C 
ATOM     16  O   UNL     1      -1.103   8.726   6.661  0.00  0.00    -0.276 OA
ATOM     17  C   UNL     1      -1.783   9.213   8.868  0.00  0.00    +0.109 C 
ATOM     18  H   UNL     1      -1.133   6.667   8.958  0.00  0.00    +0.155 HD
ENDBRANCH  10  14
ENDBRANCH   4   7
BRANCH   1  19
ATOM     19  C   UNL     1       2.142   0.224   3.668  0.00  0.00    +0.093 C 
BRANCH  19  20
ATOM     20  C   UNL     1       2.808  -0.428   2.454  0.00  0.00    -0.055 C 
ATOM     21  C   UNL     1       2.864  -1.943   2.656  0.00  0.00    -0.008 C 
ATOM     22  C   UNL     1       4.228   0.119   2.298  0.00  0.00    -0.008 C 
BRANCH  20  28
ATOM     23  C   UNL     1      -0.281   1.179   0.070  0.00  0.00    +0.005 C 
ATOM     24  C   UNL     1      -0.146  -0.344   0.140  0.00  0.00    -0.031 C 
ATOM     25  C   UNL     1       0.542  -0.856  -1.129  0.00  0.00    +0.003 C 
ATOM     26  C   UNL     1       1.958  -0.279  -1.198  0.00  0.00    -0.031 C 
ATOM     27  C   UNL     1       2.723  -0.664   0.071  0.00  0.00    -0.075 C 
ATOM     28  N   UNL     1       2.030  -0.123   1.246  0.00  0.00    +0.384 N 
ATOM     29  C   UNL     1       0.696  -0.726   1.360  0.00  0.00    -0.075 C 
ATOM     30  C   UNL     1       2.681  -0.845  -2.422  0.00  0.00    +0.005 C 
ATOM     31  H   UNL     1       1.938   0.877   1.151  0.00  0.00    -0.081 HD
ENDBRANCH  20  28
ENDBRANCH  19  20
ENDBRANCH   1  19
TORSDOF 5
