REMARK  Name = ZINC15839532
REMARK  9 active torsions:
REMARK  status: ('A' for Active; 'I' for Inactive)
REMARK    1  A    between atoms: C_1  and  C_2
REMARK    2  A    between atoms: C_2  and  C_4
REMARK    3  A    between atoms: C_4  and  N_5
REMARK    4  A    between atoms: C_13  and  S_15
REMARK    5  A    between atoms: S_15  and  C_16
REMARK    6  A    between atoms: C_16  and  C_17
REMARK    7  A    between atoms: N_19  and  C_20
REMARK    8  A    between atoms: C_26  and  C_34
REMARK    9  A    between atoms: C_26  and  C_35
REMARK                            x       y       z     vdW  Elec       q    Type
REMARK                         _______ _______ _______ _____ _____    ______ ____
ROOT
ATOM      1  N   UNL     1       1.083   2.026   1.436  0.00  0.00    -0.226 N 
ATOM      2  C   UNL     1      -0.146   1.550   1.095  0.00  0.00    +0.237 A 
ATOM      3  N   UNL     1      -1.285   2.169   0.828  0.00  0.00    -0.211 NA
ATOM      4  C   UNL     1      -2.381   1.480   0.509  0.00  0.00    +0.084 A 
ATOM      5  C   UNL     1      -2.337   0.091   0.457  0.00  0.00    +0.049 A 
ATOM      6  C   UNL     1      -1.135  -0.557   0.746  0.00  0.00    +0.266 A 
ATOM      7  O   UNL     1      -1.061  -1.775   0.713  0.00  0.00    -0.267 OA
ATOM      8  N   UNL     1      -0.054   0.190   1.062  0.00  0.00    -0.222 N 
ATOM      9  C   UNL     1       1.238  -0.161   1.386  0.00  0.00    +0.198 A 
ATOM     10  N   UNL     1       1.925   0.920   1.611  0.00  0.00    -0.142 NA
ATOM     11  C   UNL     1      -3.566  -0.692   0.088  0.00  0.00    +0.001 C 
ATOM     12  C   UNL     1      -4.819  -0.019   0.643  0.00  0.00    +0.047 C 
ATOM     13  C   UNL     1      -4.848   1.438   0.268  0.00  0.00    -0.037 A 
ATOM     14  C   UNL     1      -3.659   2.167   0.212  0.00  0.00    +0.004 A 
ATOM     15  C   UNL     1      -3.683   3.518  -0.119  0.00  0.00    +0.010 A 
ATOM     16  C   UNL     1      -4.889   4.132  -0.397  0.00  0.00    +0.001 A 
ATOM     17  C   UNL     1      -6.065   3.406  -0.345  0.00  0.00    +0.000 A 
ATOM     18  C   UNL     1      -6.045   2.063  -0.014  0.00  0.00    +0.004 A 
ATOM     19  C   UNL     1      -3.671  -0.776  -1.436  0.00  0.00    +0.016 C 
ATOM     20  C   UNL     1      -3.455  -2.105   0.664  0.00  0.00    +0.016 C 
ENDROOT
BRANCH   1  21
ATOM     21  C   UNL     1       1.456   3.434   1.590  0.00  0.00    +0.177 C 
BRANCH  21  23
ATOM     22  C   UNL     1      -0.141   4.326   3.452  0.00  0.00    +0.040 C 
ATOM     23  C   UNL     1       1.225   3.862   3.016  0.00  0.00    -0.058 C 
ATOM     24  C   UNL     1       2.211   3.830   3.878  0.00  0.00    +0.009 C 
ENDBRANCH  21  23
ENDBRANCH   1  21
BRANCH   9  25
ATOM     25  S   UNL     1       1.858  -1.808   1.481  0.00  0.00    -0.076 S 
BRANCH  25  26
ATOM     26  C   UNL     1       3.575  -1.470   1.945  0.00  0.00    +0.173 C 
BRANCH  26  27
ATOM     27  C   UNL     1       4.321  -2.772   2.087  0.00  0.00    +0.227 C 
ATOM     28  O   UNL     1       3.749  -3.824   1.894  0.00  0.00    -0.275 OA
ATOM     29  N   UNL     1       5.625  -2.767   2.429  0.00  0.00    -0.285 N 
ATOM     30  H   UNL     1       6.100  -1.925   2.518  0.00  0.00    +0.155 HD
BRANCH  29  31
ATOM     31  C   UNL     1       6.293  -3.975   2.657  0.00  0.00    +0.033 A 
ATOM     32  C   UNL     1       7.276  -4.053   3.635  0.00  0.00    +0.023 A 
ATOM     33  C   UNL     1       7.930  -5.248   3.861  0.00  0.00    +0.002 A 
ATOM     34  C   UNL     1       7.615  -6.364   3.106  0.00  0.00    +0.000 A 
ATOM     35  C   UNL     1       6.642  -6.287   2.127  0.00  0.00    +0.002 A 
ATOM     36  C   UNL     1       5.980  -5.096   1.900  0.00  0.00    +0.023 A 
ENDBRANCH  29  31
ENDBRANCH  26  27
ENDBRANCH  25  26
ENDBRANCH   9  25
TORSDOF 6
