REMARK  Name = ZINC02247672
REMARK  7 active torsions:
REMARK  status: ('A' for Active; 'I' for Inactive)
REMARK    1  A    between atoms: C_1  and  O_2
REMARK    2  A    between atoms: O_2  and  C_3
REMARK    3  A    between atoms: C_8  and  N_9
REMARK    4  A    between atoms: N_17  and  C_20
REMARK    5  A    between atoms: C_20  and  N_21
REMARK    6  A    between atoms: C_24  and  C_27
REMARK    7  A    between atoms: C_27  and  C_28
REMARK                            x       y       z     vdW  Elec       q    Type
REMARK                         _______ _______ _______ _____ _____    ______ ____
ROOT
ATOM      1  N   UNL     1      -0.119  -2.771  -0.012  0.00  0.00    -0.238 NA
ATOM      2  C   UNL     1      -0.176  -4.079   0.081  0.00  0.00    +0.136 C 
ATOM      3  C   UNL     1       0.956  -5.024   0.190  0.00  0.00    +0.027 A 
ATOM      4  C   UNL     1       2.337  -4.857   0.227  0.00  0.00    +0.012 A 
ATOM      5  C   UNL     1       3.158  -5.961   0.336  0.00  0.00    +0.001 A 
ATOM      6  C   UNL     1       2.608  -7.230   0.409  0.00  0.00    +0.002 A 
ATOM      7  C   UNL     1       1.239  -7.407   0.373  0.00  0.00    +0.024 A 
ATOM      8  C   UNL     1       0.396  -6.307   0.263  0.00  0.00    +0.047 A 
ATOM      9  N   UNL     1      -0.991  -6.210   0.207  0.00  0.00    -0.252 N 
ATOM     10  C   UNL     1      -1.390  -4.931   0.106  0.00  0.00    +0.271 C 
ATOM     11  O   UNL     1      -2.540  -4.541   0.042  0.00  0.00    -0.268 OA
ENDROOT
BRANCH   1  17
ATOM     12  C   UNL     1      -1.594  -0.995   0.615  0.00  0.00    +0.145 A 
ATOM     13  C   UNL     1      -2.749  -0.270   0.369  0.00  0.00    +0.048 A 
ATOM     14  C   UNL     1      -3.557  -0.596  -0.703  0.00  0.00    +0.004 A 
ATOM     15  C   UNL     1      -3.223  -1.648  -1.542  0.00  0.00    +0.002 A 
ATOM     16  C   UNL     1      -2.080  -2.381  -1.317  0.00  0.00    +0.031 A 
ATOM     17  C   UNL     1      -1.246  -2.059  -0.237  0.00  0.00    +0.106 A 
BRANCH  12  19
ATOM     18  C   UNL     1      -1.217   0.417   2.488  0.00  0.00    +0.277 C 
ATOM     19  O   UNL     1      -0.799  -0.676   1.667  0.00  0.00    -0.493 OA
ENDBRANCH  12  19
ENDBRANCH   1  17
BRANCH   9  20
ATOM     20  C   UNL     1      -1.901  -7.356   0.258  0.00  0.00    +0.201 C 
BRANCH  20  21
ATOM     21  N   UNL     1      -2.255  -7.639   1.655  0.00  0.00    -0.287 NA
ATOM     22  C   UNL     1      -3.315  -6.737   2.123  0.00  0.00    +0.086 C 
ATOM     23  C   UNL     1      -3.554  -6.961   3.618  0.00  0.00    +0.019 C 
ATOM     24  C   UNL     1      -3.960  -8.419   3.851  0.00  0.00    -0.004 C 
ATOM     25  C   UNL     1      -2.861  -9.339   3.312  0.00  0.00    +0.019 C 
ATOM     26  C   UNL     1      -2.641  -9.046   1.826  0.00  0.00    +0.086 C 
BRANCH  24  27
ATOM     27  C   UNL     1      -4.142  -8.665   5.350  0.00  0.00    +0.038 C 
BRANCH  27  28
ATOM     28  C   UNL     1      -4.659 -10.064   5.571  0.00  0.00    -0.047 A 
ATOM     29  C   UNL     1      -6.021 -10.301   5.596  0.00  0.00    +0.003 A 
ATOM     30  C   UNL     1      -6.495 -11.584   5.798  0.00  0.00    +0.000 A 
ATOM     31  C   UNL     1      -5.607 -12.629   5.974  0.00  0.00    +0.000 A 
ATOM     32  C   UNL     1      -4.246 -12.392   5.948  0.00  0.00    +0.000 A 
ATOM     33  C   UNL     1      -3.772 -11.110   5.742  0.00  0.00    +0.003 A 
ENDBRANCH  27  28
ENDBRANCH  24  27
ENDBRANCH  20  21
ENDBRANCH   9  20
TORSDOF 6
