REMARK  Name = ZINC45896365
REMARK  7 active torsions:
REMARK  status: ('A' for Active; 'I' for Inactive)
REMARK    1  A    between atoms: C_1  and  O_2
REMARK    2  A    between atoms: O_2  and  C_3
REMARK    3  A    between atoms: C_3  and  C_5
REMARK    4  A    between atoms: C_6  and  N_10
REMARK    5  A    between atoms: N_13  and  C_14
REMARK    6  A    between atoms: C_23  and  O_24
REMARK    7  A    between atoms: N_25  and  C_26
REMARK                            x       y       z     vdW  Elec       q    Type
REMARK                         _______ _______ _______ _____ _____    ______ ____
ROOT
ATOM      1  C   UNL     1       3.386  -3.714  -6.347  0.00  0.00    +0.140 A 
ATOM      2  C   UNL     1       3.939  -3.068  -7.490  0.00  0.00    +0.075 A 
ATOM      3  C   UNL     1       4.224  -3.912  -8.673  0.00  0.00    +0.042 A 
ATOM      4  C   UNL     1       4.765  -3.370  -9.835  0.00  0.00    +0.013 A 
ATOM      5  C   UNL     1       5.016  -4.189 -10.916  0.00  0.00    +0.001 A 
ATOM      6  C   UNL     1       4.732  -5.544 -10.845  0.00  0.00    +0.004 A 
ATOM      7  C   UNL     1       4.195  -6.091  -9.698  0.00  0.00    +0.047 A 
ATOM      8  C   UNL     1       3.936  -5.282  -8.600  0.00  0.00    +0.141 A 
ATOM      9  O   UNL     1       3.412  -5.798  -7.468  0.00  0.00    -0.424 OA
ATOM     10  C   UNL     1       3.153  -5.049  -6.385  0.00  0.00    +0.309 A 
ATOM     11  N   UNL     1       4.186  -1.775  -7.495  0.00  0.00    -0.380 N 
ATOM     12  H   UNL     1       3.646  -1.176  -6.955  0.00  0.00    +0.160 HD
ENDROOT
BRANCH   1  16
ATOM     13  N   UNL     1       1.973  -1.203  -4.150  0.00  0.00    -0.268 N 
ATOM     14  C   UNL     1       2.188  -1.973  -5.235  0.00  0.00    +0.308 C 
ATOM     15  O   UNL     1       1.567  -1.765  -6.260  0.00  0.00    -0.252 OA
ATOM     16  N   UNL     1       3.090  -2.973  -5.185  0.00  0.00    -0.262 N 
ATOM     17  H   UNL     1       2.515  -1.325  -3.355  0.00  0.00    +0.156 HD
ATOM     18  H   UNL     1       3.535  -3.183  -4.349  0.00  0.00    +0.157 HD
BRANCH  13  20
ATOM     19  C   UNL     1       0.605   0.484  -3.030  0.00  0.00    +0.117 A 
ATOM     20  C   UNL     1       0.972  -0.232  -4.170  0.00  0.00    +0.056 A 
ATOM     21  C   UNL     1       0.277   0.087  -5.320  0.00  0.00    +0.032 A 
ATOM     22  C   UNL     1      -0.682   1.041  -5.265  0.00  0.00    +0.048 A 
ATOM     23  S   UNL     1      -0.688   1.537  -3.661  0.00  0.00    -0.088 S 
BRANCH  19  24
ATOM     24  C   UNL     1       1.119   0.393  -1.716  0.00  0.00    +0.347 C 
ATOM     25  O   UNL     1       2.013  -0.394  -1.466  0.00  0.00    -0.244 OA
BRANCH  24  27
ATOM     26  C   UNL     1       1.186   1.034   0.564  0.00  0.00    +0.280 C 
ATOM     27  O   UNL     1       0.619   1.179  -0.739  0.00  0.00    -0.464 OA
ENDBRANCH  24  27
ENDBRANCH  19  24
ENDBRANCH  13  20
ENDBRANCH   1  16
BRANCH  11  28
ATOM     28  C   UNL     1       5.277  -1.240  -8.314  0.00  0.00    +0.079 C 
ATOM     29  C   UNL     1       6.174  -0.319  -7.463  0.00  0.00    +0.024 C 
ATOM     30  C   UNL     1       6.574   0.822  -8.431  0.00  0.00    +0.002 C 
ATOM     31  C   UNL     1       5.277   1.047  -9.248  0.00  0.00    +0.002 C 
ATOM     32  C   UNL     1       4.707  -0.372  -9.449  0.00  0.00    +0.024 C 
ENDBRANCH  11  28
BRANCH  10  33
ATOM     33  O   UNL     1       2.632  -5.648  -5.289  0.00  0.00    -0.479 OA
ATOM     34  H   UNL     1       2.493  -6.600  -5.390  0.00  0.00    +0.295 HD
ENDBRANCH  10  33
TORSDOF 6
