REMARK  Name = ZINC52006557
REMARK  5 active torsions:
REMARK  status: ('A' for Active; 'I' for Inactive)
REMARK    1  A    between atoms: C_1  and  C_2
REMARK    2  A    between atoms: C_6  and  N_14
REMARK    3  A    between atoms: C_7  and  N_11
REMARK    4  A    between atoms: N_14  and  C_15
REMARK    5  A    between atoms: C_21  and  O_23
REMARK                            x       y       z     vdW  Elec       q    Type
REMARK                         _______ _______ _______ _____ _____    ______ ____
ROOT
ATOM      1  C   UNL     1      -0.002   1.473   0.521  0.00  0.00    +0.073 C 
ATOM      2  C   UNL     1       0.011  -0.022   0.332  0.00  0.00    +0.076 A 
ATOM      3  N   UNL     1      -0.994  -0.845   0.412  0.00  0.00    -0.244 NA
ATOM      4  C   UNL     1      -0.852  -2.173   0.220  0.00  0.00    +0.080 A 
ATOM      5  C   UNL     1      -1.818  -3.200   0.268  0.00  0.00    +0.054 A 
ATOM      6  C   UNL     1      -1.455  -4.509   0.039  0.00  0.00    +0.060 A 
ATOM      7  C   UNL     1      -0.135  -4.855  -0.245  0.00  0.00    +0.148 A 
ATOM      8  C   UNL     1       0.830  -3.868  -0.298  0.00  0.00    +0.051 A 
ATOM      9  C   UNL     1       0.475  -2.560  -0.071  0.00  0.00    +0.041 A 
ATOM     10  S   UNL     1       1.327  -1.004  -0.039  0.00  0.00    -0.072 S 
ENDROOT
BRANCH   7  11
ATOM     11  N   UNL     1       0.231  -6.269  -0.487  0.00  0.00    +0.058 N 
ATOM     12  O   UNL     1       1.285  -6.699  -0.079  0.00  0.00    -0.126 OA
ATOM     13  O   UNL     1      -0.524  -6.993  -1.092  0.00  0.00    -0.126 OA
ENDBRANCH   7  11
BRANCH   6  14
ATOM     14  N   UNL     1      -2.430  -5.511   0.092  0.00  0.00    -0.337 N 
ATOM     15  H   UNL     1      -2.173  -6.443   0.014  0.00  0.00    +0.147 HD
BRANCH  14  16
ATOM     16  C   UNL     1      -3.840  -5.153   0.267  0.00  0.00    +0.099 C 
ATOM     17  C   UNL     1      -4.456  -4.829  -1.096  0.00  0.00    +0.025 C 
ATOM     18  C   UNL     1      -5.928  -4.455  -0.914  0.00  0.00    +0.002 C 
ATOM     19  C   UNL     1      -6.678  -5.628  -0.280  0.00  0.00    +0.003 C 
ATOM     20  C   UNL     1      -6.062  -5.952   1.082  0.00  0.00    +0.033 C 
ATOM     21  C   UNL     1      -4.590  -6.326   0.900  0.00  0.00    +0.135 C 
BRANCH  21  22
ATOM     22  O   UNL     1      -4.014  -6.628   2.173  0.00  0.00    -0.390 OA
ATOM     23  H   UNL     1      -4.441  -7.364   2.633  0.00  0.00    +0.210 HD
ENDBRANCH  21  22
ENDBRANCH  14  16
ENDBRANCH   6  14
TORSDOF 4
