REMARK  Name = ZINC01032722
REMARK  5 active torsions:
REMARK  status: ('A' for Active; 'I' for Inactive)
REMARK    1  A    between atoms: C_4  and  S_7
REMARK    2  A    between atoms: S_7  and  C_10
REMARK    3  A    between atoms: C_12  and  S_15
REMARK    4  A    between atoms: S_15  and  N_18
REMARK    5  A    between atoms: N_22  and  C_25
REMARK                            x       y       z     vdW  Elec       q    Type
REMARK                         _______ _______ _______ _____ _____    ______ ____
ROOT
ATOM      1  S   UNL     1      -5.247   2.216   4.781  0.00  0.00    +0.067 S 
ATOM      2  O   UNL     1      -4.841   1.865   6.096  0.00  0.00    -0.152 OA
ATOM      3  O   UNL     1      -5.196   3.552   4.298  0.00  0.00    -0.152 OA
ENDROOT
BRANCH   1   4
ATOM      4  N   UNL     1      -6.818   1.716   4.622  0.00  0.00    -0.175 NA
ATOM      5  C   UNL     1      -7.689   2.337   3.663  0.00  0.00    +0.111 C 
ATOM      6  C   UNL     1      -8.502   3.554   4.157  0.00  0.00    +0.036 C 
ATOM      7  C   UNL     1      -9.034   3.279   5.586  0.00  0.00    +0.106 C 
ATOM      8  N   UNL     1      -9.441   1.903   5.710  0.00  0.00    -0.326 N 
ATOM      9  C   UNL     1      -8.343   1.215   6.387  0.00  0.00    +0.122 C 
ATOM     10  C   UNL     1      -7.358   0.610   5.482  0.00  0.00    +0.128 C 
BRANCH   8  11
ATOM     11  C   UNL     1     -10.623   1.796   6.441  0.00  0.00    +0.070 A 
ATOM     12  C   UNL     1     -10.706   2.291   7.743  0.00  0.00    +0.079 A 
ATOM     13  C   UNL     1     -11.896   2.171   8.431  0.00  0.00    +0.104 A 
ATOM     14  C   UNL     1     -12.902   1.103   6.651  0.00  0.00    +0.104 A 
ATOM     15  C   UNL     1     -11.752   1.188   5.893  0.00  0.00    +0.079 A 
ATOM     16 CL   UNL     1     -11.710   0.545   4.281  0.00  0.00    -0.080 Cl
ATOM     17 CL   UNL     1      -9.333   3.053   8.485  0.00  0.00    -0.080 Cl
ATOM     18  N   UNL     1     -13.011   1.582   7.920  0.00  0.00    -0.364 N 
ATOM     19  H   UNL     1     -13.882   1.504   8.458  0.00  0.00    +0.165 HD
ENDBRANCH   8  11
ENDBRANCH   1   4
BRANCH   1  22
ATOM     20  C   UNL     1      -3.172   0.573   1.704  0.00  0.00    +0.102 A 
ATOM     21  C   UNL     1      -3.957   1.487   2.382  0.00  0.00    +0.063 A 
ATOM     22  C   UNL     1      -4.277   1.245   3.677  0.00  0.00    +0.145 A 
ATOM     23  S   UNL     1      -3.459  -0.314   3.974  0.00  0.00    -0.075 S 
ATOM     24  C   UNL     1      -2.751  -0.540   2.351  0.00  0.00    +0.074 A 
BRANCH  20  25
ATOM     25  S   UNL     1      -2.733   0.849   0.020  0.00  0.00    +0.026 S 
ATOM     26  O   UNL     1      -3.722   1.714  -0.522  0.00  0.00    -0.164 OA
ATOM     27  O   UNL     1      -2.447  -0.426  -0.539  0.00  0.00    -0.164 OA
BRANCH  25  31
ATOM     28  C   UNL     1       1.156   3.165   0.008  0.00  0.00    +0.000 A 
ATOM     29  C   UNL     1       1.175   1.783   0.000  0.00  0.00    +0.002 A 
ATOM     30  C   UNL     1      -0.013   1.076   0.008  0.00  0.00    +0.027 A 
ATOM     31  C   UNL     1      -1.219   1.751   0.017  0.00  0.00    +0.094 A 
ATOM     32  C   UNL     1      -1.238   3.133   0.030  0.00  0.00    +0.027 A 
ATOM     33  C   UNL     1      -0.050   3.840   0.022  0.00  0.00    +0.002 A 
ENDBRANCH  25  31
ENDBRANCH  20  25
ENDBRANCH   1  22
TORSDOF 5
