REMARK  Name = ZINC02074208
REMARK  16 active torsions:
REMARK  status: ('A' for Active; 'I' for Inactive)
REMARK    1  A    between atoms: C_1  and  C_2
REMARK    2  A    between atoms: C_2  and  C_3
REMARK    3  A    between atoms: C_3  and  O_4
REMARK    4  A    between atoms: O_4  and  C_5
REMARK    5  A    between atoms: C_5  and  C_7
REMARK    6  A    between atoms: C_8  and  C_40
REMARK    7  A    between atoms: C_12  and  C_14
REMARK    8  A    between atoms: C_17  and  O_23
REMARK    9  A    between atoms: C_18  and  O_20
REMARK   10  A    between atoms: O_20  and  C_21
REMARK   11  A    between atoms: C_21  and  C_22
REMARK   12  A    between atoms: C_27  and  C_30
REMARK   13  A    between atoms: C_33  and  O_38
REMARK   14  A    between atoms: C_34  and  O_36
REMARK   15  A    between atoms: O_36  and  C_37
REMARK   16  A    between atoms: O_38  and  C_39
REMARK                            x       y       z     vdW  Elec       q    Type
REMARK                         _______ _______ _______ _____ _____    ______ ____
ROOT
ATOM      1  C   UNL     1      -1.570   3.865   2.419  0.00  0.00    +0.065 C 
ATOM      2  C   UNL     1      -1.452   5.177   2.688  0.00  0.00    +0.016 C 
ATOM      3  N   UNL     1      -1.939   5.690   3.858  0.00  0.00    -0.321 N 
ATOM      4  C   UNL     1      -2.183   4.873   4.929  0.00  0.00    +0.016 C 
ATOM      5  C   UNL     1      -2.333   3.543   4.756  0.00  0.00    +0.024 C 
ATOM      6  C   UNL     1      -2.245   2.931   3.379  0.00  0.00    +0.092 C 
ATOM      7  C   UNL     1      -2.584   2.693   5.847  0.00  0.00    +0.162 C 
ATOM      8  O   UNL     1      -2.697   1.498   5.659  0.00  0.00    -0.292 OA
ATOM      9  C   UNL     1      -2.716   3.236   7.244  0.00  0.00    +0.088 C 
ATOM     10  C   UNL     1      -3.234   4.676   7.171  0.00  0.00    +0.032 C 
ATOM     11  C   UNL     1      -2.276   5.494   6.301  0.00  0.00    +0.059 C 
ATOM     12  C   UNL     1      -0.779   6.088   1.694  0.00  0.00    +0.061 C 
ATOM     13  H   UNL     1      -2.138   6.768   3.945  0.00  0.00    +0.152 HD
ENDROOT
BRANCH   6  14
ATOM     14  C   UNL     1      -3.634   2.627   2.878  0.00  0.00    -0.032 A 
ATOM     15  C   UNL     1      -4.545   3.652   2.705  0.00  0.00    +0.008 A 
ATOM     16  C   UNL     1      -5.819   3.378   2.245  0.00  0.00    +0.049 A 
ATOM     17  C   UNL     1      -6.187   2.073   1.958  0.00  0.00    +0.158 A 
ATOM     18  C   UNL     1      -5.270   1.041   2.133  0.00  0.00    +0.162 A 
ATOM     19  C   UNL     1      -3.992   1.323   2.588  0.00  0.00    +0.054 A 
BRANCH  17  20
ATOM     20  O   UNL     1      -7.440   1.802   1.506  0.00  0.00    -0.503 OA
ATOM     21  H   UNL     1      -7.731   0.766   1.278  0.00  0.00    +0.292 HD
ENDBRANCH  17  20
BRANCH  18  22
ATOM     22  O   UNL     1      -5.626  -0.241   1.852  0.00  0.00    -0.489 OA
BRANCH  22  23
ATOM     23  C   UNL     1      -4.633  -1.249   2.056  0.00  0.00    +0.226 C 
ATOM     24  C   UNL     1      -5.213  -2.617   1.689  0.00  0.00    +0.048 C 
ENDBRANCH  22  23
ENDBRANCH  18  22
ENDBRANCH   6  14
BRANCH  10  25
ATOM     25  C   UNL     1      -3.287   5.266   8.557  0.00  0.00    -0.040 A 
ATOM     26  C   UNL     1      -2.136   5.342   9.319  0.00  0.00    +0.008 A 
ATOM     27  C   UNL     1      -2.178   5.887  10.589  0.00  0.00    +0.049 A 
ATOM     28  C   UNL     1      -3.378   6.348  11.105  0.00  0.00    +0.161 A 
ATOM     29  C   UNL     1      -4.538   6.267  10.340  0.00  0.00    +0.162 A 
ATOM     30  C   UNL     1      -4.488   5.724   9.066  0.00  0.00    +0.053 A 
BRANCH  29  31
ATOM     31  O   UNL     1      -5.719   6.719  10.842  0.00  0.00    -0.491 OA
ATOM     32  C   UNL     1      -6.868   6.604  10.001  0.00  0.00    +0.277 C 
ENDBRANCH  29  31
BRANCH  28  33
ATOM     33  O   UNL     1      -3.423   6.879  12.356  0.00  0.00    -0.491 OA
ATOM     34  C   UNL     1      -2.194   6.931  13.083  0.00  0.00    +0.277 C 
ENDBRANCH  28  33
ENDBRANCH  10  25
BRANCH   1  35
ATOM     35  C   UNL     1      -1.052   3.357   1.204  0.00  0.00    +0.338 C 
ATOM     36  O   UNL     1      -0.025   2.704   1.207  0.00  0.00    -0.245 OA
BRANCH  35  37
ATOM     37  O   UNL     1      -1.696   3.597   0.043  0.00  0.00    -0.461 OA
BRANCH  37  38
ATOM     38  C   UNL     1      -1.117   3.054  -1.144  0.00  0.00    +0.232 C 
BRANCH  38  40
ATOM     39  C   UNL     1      -1.360   2.845  -3.622  0.00  0.00    +0.007 C 
ATOM     40  C   UNL     1      -1.981   3.426  -2.350  0.00  0.00    +0.038 C 
ENDBRANCH  38  40
ENDBRANCH  37  38
ENDBRANCH  35  37
ENDBRANCH   1  35
TORSDOF 11
