REMARK  Name = ZINC34698347
REMARK  6 active torsions:
REMARK  status: ('A' for Active; 'I' for Inactive)
REMARK    1  A    between atoms: C_3  and  C_8
REMARK    2  A    between atoms: C_13  and  C_15
REMARK    3  A    between atoms: C_15  and  N_16
REMARK    4  A    between atoms: N_19  and  C_22
REMARK    5  A    between atoms: C_29  and  C_31
REMARK    6  A    between atoms: C_31  and  C_32
REMARK                            x       y       z     vdW  Elec       q    Type
REMARK                         _______ _______ _______ _____ _____    ______ ____
ROOT
ATOM      1  C   UNL     1       3.974   2.252  -0.178  0.00  0.00    +0.039 C 
ATOM      2  C   UNL     1       4.983   1.909  -1.294  0.00  0.00    +0.116 C 
ATOM      3  N   UNL     1       6.303   1.922  -0.622  0.00  0.00    -0.300 N 
ATOM      4  C   UNL     1       6.050   1.293   0.695  0.00  0.00    +0.110 C 
ATOM      5  C   UNL     1       4.676   1.849   1.135  0.00  0.00    -0.001 C 
ATOM      6  C   UNL     1       7.470   2.398  -1.100  0.00  0.00    +0.220 C 
ATOM      7  O   UNL     1       8.474   2.336  -0.423  0.00  0.00    -0.275 OA
ENDROOT
BRANCH   1  10
ATOM      8  C   UNL     1       0.327   1.392  -0.644  0.00  0.00    +0.003 A 
ATOM      9  C   UNL     1       1.493   2.117  -0.479  0.00  0.00    +0.004 A 
ATOM     10  C   UNL     1       2.704   1.461  -0.358  0.00  0.00    -0.040 A 
ATOM     11  C   UNL     1       2.751   0.081  -0.401  0.00  0.00    +0.042 A 
ATOM     12  C   UNL     1       1.584  -0.646  -0.567  0.00  0.00    +0.124 A 
ATOM     13  C   UNL     1       0.371   0.012  -0.688  0.00  0.00    +0.038 A 
ATOM     14  F   UNL     1       1.628  -1.996  -0.610  0.00  0.00    -0.205 F 
ENDBRANCH   1  10
BRANCH   5  15
ATOM     15  C   UNL     1       4.859   3.070   2.038  0.00  0.00    -0.073 C 
BRANCH  15  16
ATOM     16  N   UNL     1       5.459   2.652   3.312  0.00  0.00    +0.382 N 
ATOM     17  C   UNL     1       5.784   3.840   4.112  0.00  0.00    -0.060 C 
ATOM     18  C   UNL     1       6.514   3.411   5.389  0.00  0.00    +0.086 C 
ATOM     19  N   UNL     1       5.686   2.417   6.088  0.00  0.00    -0.333 N 
ATOM     20  C   UNL     1       5.178   1.272   5.316  0.00  0.00    +0.086 C 
ATOM     21  C   UNL     1       4.511   1.801   4.043  0.00  0.00    -0.060 C 
ATOM     22  H   UNL     1       6.304   2.131   3.129  0.00  0.00    -0.082 HD
BRANCH  19  23
ATOM     23  C   UNL     1       5.389   2.556   7.447  0.00  0.00    +0.030 A 
ATOM     24  C   UNL     1       4.712   1.546   8.118  0.00  0.00    +0.026 A 
ATOM     25  C   UNL     1       4.420   1.686   9.461  0.00  0.00    +0.040 A 
ATOM     26  C   UNL     1       4.802   2.832  10.138  0.00  0.00    +0.124 A 
ATOM     27  C   UNL     1       5.477   3.840   9.471  0.00  0.00    +0.040 A 
ATOM     28  C   UNL     1       5.775   3.702   8.129  0.00  0.00    +0.026 A 
ATOM     29  F   UNL     1       4.515   2.966  11.451  0.00  0.00    -0.205 F 
ENDBRANCH  19  23
ENDBRANCH  15  16
ENDBRANCH   5  15
BRANCH   6  30
ATOM     30  C   UNL     1       7.527   3.009  -2.477  0.00  0.00    +0.138 C 
BRANCH  30  31
ATOM     31  C   UNL     1       8.935   3.460  -2.769  0.00  0.00    -0.001 A 
ATOM     32  C   UNL     1       9.948   2.772  -3.349  0.00  0.00    +0.011 A 
ATOM     33  C   UNL     1      11.171   3.395  -3.518  0.00  0.00    +0.008 A 
ATOM     34  C   UNL     1      11.319   4.676  -3.099  0.00  0.00    +0.045 A 
ATOM     35  S   UNL     1       9.698   5.041  -2.447  0.00  0.00    -0.101 S 
ENDBRANCH  30  31
ENDBRANCH   6  30
TORSDOF 6
