REMARK  Name = ZINC63514303
REMARK  8 active torsions:
REMARK  status: ('A' for Active; 'I' for Inactive)
REMARK    1  A    between atoms: C_1  and  C_2
REMARK    2  A    between atoms: C_4  and  C_13
REMARK    3  A    between atoms: C_13  and  C_14
REMARK    4  A    between atoms: C_14  and  N_15
REMARK    5  A    between atoms: N_15  and  S_16
REMARK    6  A    between atoms: S_16  and  C_19
REMARK    7  A    between atoms: C_22  and  O_29
REMARK    8  A    between atoms: O_29  and  C_30
REMARK                            x       y       z     vdW  Elec       q    Type
REMARK                         _______ _______ _______ _____ _____    ______ ____
ROOT
ATOM      1  N   UNL     1      -4.721  -1.041  -1.560  0.00  0.00    -0.190 NA
ATOM      2  H   UNL     1      -4.590  -0.318  -2.193  0.00  0.00    +0.148 HD
ENDROOT
BRANCH   1   3
ATOM      3  S   UNL     1      -6.067  -2.001  -1.666  0.00  0.00    +0.059 S 
ATOM      4  O   UNL     1      -6.623  -2.066  -0.360  0.00  0.00    -0.153 OA
ATOM      5  O   UNL     1      -6.807  -1.539  -2.788  0.00  0.00    -0.153 OA
BRANCH   3   6
ATOM      6  C   UNL     1      -5.517  -3.628  -2.061  0.00  0.00    +0.113 A 
ATOM      7  C   UNL     1      -5.717  -4.648  -1.182  0.00  0.00    +0.033 A 
ATOM      8  C   UNL     1      -5.291  -5.941  -1.473  0.00  0.00    +0.048 A 
ATOM      9  C   UNL     1      -4.659  -6.223  -2.651  0.00  0.00    +0.128 A 
ATOM     10  C   UNL     1      -4.435  -5.191  -3.585  0.00  0.00    +0.026 A 
ATOM     11  C   UNL     1      -4.875  -3.877  -3.286  0.00  0.00    +0.012 A 
ATOM     12  C   UNL     1      -4.657  -2.849  -4.218  0.00  0.00    +0.010 A 
ATOM     13  C   UNL     1      -4.032  -3.127  -5.394  0.00  0.00    +0.001 A 
ATOM     14  C   UNL     1      -3.604  -4.420  -5.690  0.00  0.00    +0.001 A 
ATOM     15  C   UNL     1      -3.788  -5.439  -4.806  0.00  0.00    +0.012 A 
BRANCH   9  16
ATOM     16  O   UNL     1      -4.248  -7.489  -2.921  0.00  0.00    -0.495 OA
ATOM     17  C   UNL     1      -4.509  -8.482  -1.927  0.00  0.00    +0.277 C 
ENDBRANCH   9  16
ENDBRANCH   3   6
ENDBRANCH   1   3
BRANCH   1  18
ATOM     18  C   UNL     1      -3.729  -1.285  -0.510  0.00  0.00    +0.110 C 
BRANCH  18  19
ATOM     19  C   UNL     1      -2.424  -0.570  -0.866  0.00  0.00    +0.050 C 
BRANCH  19  22
ATOM     20  C   UNL     1       0.237   0.984   0.139  0.00  0.00    +0.035 C 
ATOM     21  C   UNL     1       0.098  -0.539   0.103  0.00  0.00    +0.103 C 
ATOM     22  C   UNL     1      -1.363  -0.930   0.142  0.00  0.00    -0.037 C 
ATOM     23  C   UNL     1      -1.524  -1.668   1.264  0.00  0.00    +0.000 A 
ATOM     24  C   UNL     1      -2.690  -2.331   1.859  0.00  0.00    +0.025 A 
ATOM     25  C   UNL     1      -2.537  -3.012   3.018  0.00  0.00    +0.019 A 
ATOM     26  C   UNL     1      -1.295  -3.100   3.663  0.00  0.00    +0.017 A 
ATOM     27  C   UNL     1      -0.178  -2.519   3.176  0.00  0.00    +0.027 A 
ATOM     28  C   UNL     1      -0.224  -1.777   1.964  0.00  0.00    +0.043 A 
ATOM     29  N   UNL     1       0.706  -1.131   1.300  0.00  0.00    -0.378 N 
ATOM     30 BR   UNL     1      -4.038  -3.867   3.788  0.00  0.00    -0.050 Br
ATOM     31  H   UNL     1       1.639  -1.058   1.556  0.00  0.00    +0.160 HD
ENDBRANCH  19  22
ENDBRANCH  18  19
ENDBRANCH   1  18
TORSDOF 6
