REMARK  Name = ZINC35585435
REMARK  6 active torsions:
REMARK  status: ('A' for Active; 'I' for Inactive)
REMARK    1  A    between atoms: C_1  and  C_2
REMARK    2  A    between atoms: C_2  and  C_3
REMARK    3  A    between atoms: C_3  and  N_4
REMARK    4  A    between atoms: N_4  and  C_5
REMARK    5  A    between atoms: C_5  and  C_7
REMARK    6  A    between atoms: C_5  and  C_15
REMARK                            x       y       z     vdW  Elec       q    Type
REMARK                         _______ _______ _______ _____ _____    ______ ____
ROOT
ATOM      1  C   UNL     1       1.472  -2.466   2.424  0.00  0.00    -0.005 C 
ENDROOT
BRANCH   1   2
ATOM      2  C   UNL     1       1.676  -3.959   2.380  0.00  0.00    -0.021 A 
ATOM      3  C   UNL     1       1.011  -4.774   3.277  0.00  0.00    +0.025 A 
ATOM      4  C   UNL     1       1.197  -6.144   3.237  0.00  0.00    +0.041 A 
ATOM      5  C   UNL     1       2.050  -6.699   2.300  0.00  0.00    +0.023 A 
ATOM      6  C   UNL     1       2.716  -5.886   1.403  0.00  0.00    +0.040 A 
ATOM      7  C   UNL     1       2.525  -4.515   1.439  0.00  0.00    +0.125 A 
ATOM      8  F   UNL     1       3.172  -3.719   0.559  0.00  0.00    -0.205 F 
ATOM      9 CL   UNL     1       0.362  -7.166   4.364  0.00  0.00    -0.084 Cl
ENDBRANCH   1   2
BRANCH   1  10
ATOM     10  C   UNL     1       0.853  -2.082   3.742  0.00  0.00    -0.030 A 
ATOM     11  C   UNL     1      -0.521  -1.971   3.867  0.00  0.00    +0.031 A 
ATOM     12  C   UNL     1      -1.045  -1.623   5.068  0.00  0.00    +0.080 A 
ATOM     13  S   UNL     1       0.419  -1.441   6.073  0.00  0.00    -0.065 S 
ATOM     14  C   UNL     1       1.632  -1.845   4.827  0.00  0.00    +0.081 A 
ATOM     15 CL   UNL     1       3.361  -1.915   4.966  0.00  0.00    -0.076 Cl
ATOM     16 CL   UNL     1      -2.710  -1.411   5.514  0.00  0.00    -0.076 Cl
ENDBRANCH   1  10
BRANCH   1  17
ATOM     17  N   UNL     1       0.582  -2.062   1.327  0.00  0.00    +0.386 N 
ATOM     18  H   UNL     1      -0.333  -2.460   1.473  0.00  0.00    -0.085 HD
ATOM     19  H   UNL     1       0.957  -2.391   0.451  0.00  0.00    -0.085 HD
BRANCH  17  20
ATOM     20  C   UNL     1       0.479  -0.597   1.296  0.00  0.00    -0.082 C 
BRANCH  20  22
ATOM     21  C   UNL     1      -0.556   1.351   0.122  0.00  0.00    +0.002 C 
ATOM     22  C   UNL     1      -0.449  -0.175   0.154  0.00  0.00    -0.022 C 
ENDBRANCH  20  22
ENDBRANCH  17  20
ENDBRANCH   1  17
TORSDOF 5
