REMARK  Name = ZINC08497506
REMARK  6 active torsions:
REMARK  status: ('A' for Active; 'I' for Inactive)
REMARK    1  A    between atoms: C_1  and  C_2
REMARK    2  A    between atoms: C_2  and  C_4
REMARK    3  A    between atoms: C_2  and  C_16
REMARK    4  A    between atoms: C_4  and  N_5
REMARK    5  A    between atoms: C_6  and  C_8
REMARK    6  A    between atoms: C_19  and  N_22
REMARK                            x       y       z     vdW  Elec       q    Type
REMARK                         _______ _______ _______ _____ _____    ______ ____
ROOT
ATOM      1  C   UNL     1       6.133  -0.705  -0.061  0.00  0.00    +0.112 C 
ENDROOT
BRANCH   1   2
ATOM      2  N   UNL     1       4.853   0.007  -0.045  0.00  0.00    -0.311 N 
ATOM      3  C   UNL     1       3.696  -0.685  -0.037  0.00  0.00    +0.244 C 
ATOM      4  O   UNL     1       3.716  -1.901  -0.045  0.00  0.00    -0.270 OA
ATOM      5  H   UNL     1       4.837   0.977  -0.039  0.00  0.00    +0.149 HD
BRANCH   3   6
ATOM      6  C   UNL     1       2.405   0.033  -0.021  0.00  0.00    +0.039 A 
ATOM      7  C   UNL     1       1.206  -0.681  -0.013  0.00  0.00    +0.033 A 
ATOM      8  C   UNL     1       0.002  -0.004   0.002  0.00  0.00    +0.043 A 
ATOM      9  C   UNL     1      -0.017   1.380   0.010  0.00  0.00    +0.040 A 
ATOM     10  C   UNL     1       1.169   2.094   0.002  0.00  0.00    +0.043 A 
ATOM     11  C   UNL     1       2.379   1.429  -0.013  0.00  0.00    +0.033 A 
ATOM     12 CL   UNL     1       1.136   3.830   0.012  0.00  0.00    -0.083 Cl
ATOM     13 CL   UNL     1      -1.490  -0.891   0.011  0.00  0.00    -0.083 Cl
ENDBRANCH   3   6
ENDBRANCH   1   2
BRANCH   1  15
ATOM     14  C   UNL     1       7.246   1.109  -1.369  0.00  0.00    +0.014 C 
ATOM     15  C   UNL     1       7.280   0.307  -0.067  0.00  0.00    +0.033 C 
BRANCH  15  16
ATOM     16  C   UNL     1       8.594  -0.422   0.040  0.00  0.00    -0.043 A 
ATOM     17  C   UNL     1       8.953  -1.345  -0.925  0.00  0.00    +0.006 A 
ATOM     18  C   UNL     1      10.161  -2.010  -0.829  0.00  0.00    +0.033 A 
ATOM     19  C   UNL     1      11.006  -1.760   0.236  0.00  0.00    +0.126 A 
ATOM     20  C   UNL     1      10.644  -0.841   1.204  0.00  0.00    +0.033 A 
ATOM     21  C   UNL     1       9.439  -0.172   1.105  0.00  0.00    +0.006 A 
BRANCH  19  22
ATOM     22  N   UNL     1      12.297  -2.476   0.341  0.00  0.00    +0.056 N 
ATOM     23  O   UNL     1      13.041  -2.256   1.280  0.00  0.00    -0.126 OA
ATOM     24  O   UNL     1      12.615  -3.286  -0.511  0.00  0.00    -0.126 OA
ENDBRANCH  19  22
ENDBRANCH  15  16
ENDBRANCH   1  15
TORSDOF 5
