REMARK  Name = ZINC62100957
REMARK  2 active torsions:
REMARK  status: ('A' for Active; 'I' for Inactive)
REMARK    1  A    between atoms: C_3  and  C_17
REMARK    2  A    between atoms: C_17  and  C_18
REMARK                            x       y       z     vdW  Elec       q    Type
REMARK                         _______ _______ _______ _____ _____    ______ ____
ROOT
ATOM      1  C   UNL     1      -0.355   1.446   1.827  0.00  0.00    +0.021 C 
ATOM      2  C   UNL     1       0.536   1.531   0.560  0.00  0.00    +0.024 C 
ATOM      3  C   UNL     1       1.374   0.237   0.640  0.00  0.00    +0.088 C 
ATOM      4  N   UNL     1       1.377  -0.195   2.045  0.00  0.00    -0.282 N 
ATOM      5  C   UNL     1       0.607   0.778   2.841  0.00  0.00    +0.110 C 
ATOM      6  C   UNL     1       1.983  -1.299   2.526  0.00  0.00    +0.305 C 
ATOM      7  O   UNL     1       2.368  -2.163   1.762  0.00  0.00    -0.252 OA
ATOM      8  N   UNL     1       2.163  -1.444   3.854  0.00  0.00    -0.284 N 
ATOM      9  C   UNL     1       2.072  -0.262   4.709  0.00  0.00    +0.118 C 
ATOM     10  C   UNL     1       3.429  -0.005   5.374  0.00  0.00    +0.115 C 
ATOM     11  C   UNL     1       3.572  -0.937   6.556  0.00  0.00    +0.215 C 
ATOM     12  O   UNL     1       3.515  -0.493   7.683  0.00  0.00    -0.276 OA
ATOM     13  N   UNL     1       3.761  -2.246   6.367  0.00  0.00    -0.314 N 
ATOM     14  C   UNL     1       3.840  -2.803   5.009  0.00  0.00    +0.123 C 
ATOM     15  C   UNL     1       2.435  -2.778   4.384  0.00  0.00    +0.128 C 
ATOM     16  H   UNL     1       3.847  -2.835   7.133  0.00  0.00    +0.149 HD
ENDROOT
BRANCH   3  17
ATOM     17  C   UNL     1       2.804   0.514   0.174  0.00  0.00    +0.147 C 
BRANCH  17  18
ATOM     18  C   UNL     1       3.568  -0.783   0.097  0.00  0.00    +0.358 C 
ATOM     19  O   UNL     1       3.349  -1.567  -0.811  0.00  0.00    -0.246 OA
ATOM     20  O   UNL     1       4.404  -1.049   0.944  0.00  0.00    -0.246 OA
ENDBRANCH  17  18
ENDBRANCH   3  17
TORSDOF 2
