REMARK  Name = ZINC16025057
REMARK  7 active torsions:
REMARK  status: ('A' for Active; 'I' for Inactive)
REMARK    1  A    between atoms: C_1  and  C_2
REMARK    2  A    between atoms: C_13  and  C_16
REMARK    3  A    between atoms: C_16  and  C_17
REMARK    4  A    between atoms: N_29  and  C_32
REMARK    5  A    between atoms: C_32  and  C_33
REMARK    6  A    between atoms: C_32  and  C_34
REMARK    7  A    between atoms: C_32  and  C_35
REMARK                            x       y       z     vdW  Elec       q    Type
REMARK                         _______ _______ _______ _____ _____    ______ ____
ROOT
ATOM      1  C   UNL     1      -0.018   1.503   0.010  0.00  0.00    +0.044 C 
ATOM      2  C   UNL     1       0.002  -0.004   0.002  0.00  0.00    -0.050 A 
ATOM      3  C   UNL     1       0.006  -0.691  -1.199  0.00  0.00    +0.005 A 
ATOM      4  C   UNL     1       0.026  -2.070  -1.212  0.00  0.00    +0.024 A 
ATOM      5  C   UNL     1       0.042  -2.782  -0.015  0.00  0.00    +0.039 A 
ATOM      6  C   UNL     1       0.037  -2.081   1.187  0.00  0.00    +0.004 A 
ATOM      7  C   UNL     1       0.023  -0.704   1.195  0.00  0.00    +0.011 A 
ATOM      8  C   UNL     1       0.058  -3.122   2.270  0.00  0.00    +0.136 C 
ATOM      9  C   UNL     1       1.282  -2.963   3.179  0.00  0.00    +0.122 C 
ATOM     10  C   UNL     1       0.752  -2.190   4.418  0.00  0.00    +0.107 C 
ATOM     11  C   UNL     1      -0.740  -1.934   4.117  0.00  0.00    +0.072 C 
ATOM     12  N   UNL     1      -1.119  -3.009   3.152  0.00  0.00    -0.295 NA
ATOM     13  C   UNL     1       0.885  -3.195   5.540  0.00  0.00    +0.228 C 
ATOM     14  O   UNL     1       0.569  -3.002   6.694  0.00  0.00    -0.275 OA
ATOM     15  N   UNL     1       1.406  -4.330   5.060  0.00  0.00    -0.236 N 
ATOM     16  C   UNL     1       1.680  -4.312   3.735  0.00  0.00    +0.229 C 
ATOM     17  O   UNL     1       2.162  -5.221   3.093  0.00  0.00    -0.275 OA
ATOM     18  C   UNL     1       0.076  -4.440   1.545  0.00  0.00    +0.243 C 
ATOM     19  O   UNL     1       0.097  -5.543   2.049  0.00  0.00    -0.273 OA
ATOM     20  N   UNL     1       0.063  -4.157   0.228  0.00  0.00    -0.283 N 
ATOM     21  H   UNL     1      -1.940  -2.745   2.628  0.00  0.00    +0.124 HD
ATOM     22  H   UNL     1       0.068  -4.831  -0.470  0.00  0.00    +0.155 HD
ENDROOT
BRANCH  15  23
ATOM     23  C   UNL     1       1.666  -5.500   5.902  0.00  0.00    +0.036 C 
ATOM     24  C   UNL     1       1.253  -5.193   7.343  0.00  0.00    +0.031 C 
ATOM     25  C   UNL     1       0.859  -6.692   5.383  0.00  0.00    +0.031 C 
ATOM     26  C   UNL     1       3.158  -5.837   5.860  0.00  0.00    +0.031 C 
ENDBRANCH  15  23
BRANCH  11  27
ATOM     27  C   UNL     1      -1.571  -2.067   5.395  0.00  0.00    +0.056 C 
BRANCH  27  28
ATOM     28  C   UNL     1      -3.002  -1.694   5.104  0.00  0.00    -0.021 A 
ATOM     29  C   UNL     1      -3.564  -0.488   5.282  0.00  0.00    +0.087 A 
ATOM     30  N   UNL     1      -4.880  -0.527   4.910  0.00  0.00    -0.360 N 
ATOM     31  H   UNL     1      -5.493   0.224   4.948  0.00  0.00    +0.165 HD
ATOM     32  C   UNL     1      -5.205  -1.792   4.472  0.00  0.00    +0.047 A 
ATOM     33  C   UNL     1      -4.041  -2.576   4.568  0.00  0.00    +0.003 A 
ATOM     34  C   UNL     1      -4.071  -3.917   4.182  0.00  0.00    +0.010 A 
ATOM     35  C   UNL     1      -5.232  -4.461   3.709  0.00  0.00    +0.001 A 
ATOM     36  C   UNL     1      -6.381  -3.691   3.607  0.00  0.00    +0.002 A 
ATOM     37  C   UNL     1      -6.377  -2.367   3.991  0.00  0.00    +0.026 A 
ENDBRANCH  27  28
ENDBRANCH  11  27
TORSDOF 3
