REMARK  Name = ZINC29570944
REMARK  5 active torsions:
REMARK  status: ('A' for Active; 'I' for Inactive)
REMARK    1  A    between atoms: N_12  and  C_15
REMARK    2  A    between atoms: C_15  and  C_16
REMARK    3  A    between atoms: C_16  and  C_17
REMARK    4  A    between atoms: C_17  and  C_18
REMARK    5  A    between atoms: C_18  and  C_19
REMARK                            x       y       z     vdW  Elec       q    Type
REMARK                         _______ _______ _______ _____ _____    ______ ____
ROOT
ATOM      1  C   UNL     1      -0.753   1.593  -1.232  0.00  0.00    -0.018 C 
ENDROOT
BRANCH   1   2
ATOM      2  C   UNL     1      -0.037   1.099  -2.490  0.00  0.00    -0.079 C 
BRANCH   2  14
ATOM      3  C   UNL     1      -3.073   4.537  -9.595  0.00  0.00    +0.000 A 
ATOM      4  C   UNL     1      -3.891   3.856  -8.713  0.00  0.00    +0.000 A 
ATOM      5  C   UNL     1      -3.378   3.374  -7.523  0.00  0.00    +0.007 A 
ATOM      6  C   UNL     1      -2.047   3.573  -7.216  0.00  0.00    -0.011 A 
ATOM      7  C   UNL     1      -1.227   4.257  -8.101  0.00  0.00    -0.016 A 
ATOM      8  C   UNL     1      -1.740   4.737  -9.288  0.00  0.00    +0.006 A 
ATOM      9  C   UNL     1       0.153   4.309  -7.486  0.00  0.00    +0.196 C 
ATOM     10  O   UNL     1      -0.026   4.014  -6.088  0.00  0.00    -0.364 OA
ATOM     11  C   UNL     1      -1.198   3.186  -6.032  0.00  0.00    +0.092 C 
ATOM     12  C   UNL     1      -0.800   1.713  -6.126  0.00  0.00    +0.021 C 
ATOM     13  C   UNL     1       0.035   1.336  -4.899  0.00  0.00    -0.076 C 
ATOM     14  N   UNL     1      -0.747   1.586  -3.680  0.00  0.00    +0.380 N 
ATOM     15  C   UNL     1      -1.085   3.009  -3.546  0.00  0.00    -0.076 C 
ATOM     16  C   UNL     1      -1.955   3.440  -4.730  0.00  0.00    +0.021 C 
ATOM     17  H   UNL     1      -1.690   1.025  -3.767  0.00  0.00    -0.082 HD
ENDBRANCH   2  14
ENDBRANCH   1   2
BRANCH   1  18
ATOM     18  C   UNL     1      -0.013   1.086   0.008  0.00  0.00    +0.003 C 
BRANCH  18  19
ATOM     19  C   UNL     1      -0.729   1.579   1.267  0.00  0.00    +0.037 C 
BRANCH  19  20
ATOM     20  C   UNL     1       0.000   1.080   2.488  0.00  0.00    -0.022 A 
ATOM     21  C   UNL     1      -0.289  -0.024   3.193  0.00  0.00    +0.098 A 
ATOM     22  N   UNL     1       0.593  -0.158   4.234  0.00  0.00    -0.295 N 
ATOM     23  C   UNL     1       1.488   0.892   4.226  0.00  0.00    +0.056 A 
ATOM     24  C   UNL     1       1.155   1.712   3.132  0.00  0.00    +0.003 A 
ATOM     25  C   UNL     1       1.899   2.864   2.873  0.00  0.00    +0.010 A 
ATOM     26  C   UNL     1       2.949   3.190   3.685  0.00  0.00    +0.001 A 
ATOM     27  C   UNL     1       3.281   2.385   4.765  0.00  0.00    +0.002 A 
ATOM     28  C   UNL     1       2.559   1.243   5.039  0.00  0.00    +0.027 A 
ATOM     29  C   UNL     1       0.583  -1.194   5.164  0.00  0.00    +0.178 A 
ATOM     30  N   UNL     1      -0.231  -2.228   5.243  0.00  0.00    -0.231 NA
ATOM     31  C   UNL     1      -0.100  -3.129   6.197  0.00  0.00    +0.121 A 
ATOM     32  C   UNL     1       0.897  -2.971   7.103  0.00  0.00    +0.068 A 
ATOM     33  S   UNL     1       1.645  -1.460   6.512  0.00  0.00    -0.058 S 
ENDBRANCH  19  20
ENDBRANCH  18  19
ENDBRANCH   1  18
TORSDOF 5
