REMARK  Name = ZINC14472791
REMARK  4 active torsions:
REMARK  status: ('A' for Active; 'I' for Inactive)
REMARK    1  A    between atoms: C_4  and  C_10
REMARK    2  A    between atoms: C_6  and  N_7
REMARK    3  A    between atoms: C_21  and  S_26
REMARK    4  A    between atoms: S_26  and  N_29
REMARK                            x       y       z     vdW  Elec       q    Type
REMARK                         _______ _______ _______ _____ _____    ______ ____
ROOT
ATOM      1  C   UNL     1       3.646  -2.040  -0.490  0.00  0.00    +0.106 C 
ATOM      2  C   UNL     1       2.568  -2.763   0.323  0.00  0.00    +0.029 C 
ATOM      3  C   UNL     1       2.350  -4.158  -0.334  0.00  0.00    +0.033 C 
ATOM      4  C   UNL     1       1.406  -3.861  -1.482  0.00  0.00    -0.030 C 
ATOM      5  C   UNL     1       0.761  -2.740  -1.269  0.00  0.00    -0.023 C 
ATOM      6  C   UNL     1       1.189  -2.133   0.046  0.00  0.00    +0.049 C 
ATOM      7  C   UNL     1       1.234  -0.640  -0.030  0.00  0.00    -0.018 A 
ATOM      8  C   UNL     1       0.038   0.064  -0.022  0.00  0.00    +0.034 A 
ATOM      9  C   UNL     1       0.035   1.443  -0.087  0.00  0.00    +0.106 A 
ATOM     10  C   UNL     1       1.227   2.140  -0.160  0.00  0.00    +0.030 A 
ATOM     11  C   UNL     1       2.423   1.451  -0.169  0.00  0.00    +0.025 A 
ATOM     12  C   UNL     1       2.427   0.064  -0.105  0.00  0.00    +0.031 A 
ATOM     13  N   UNL     1       3.647  -0.620  -0.120  0.00  0.00    -0.336 N 
ATOM     14  H   UNL     1       4.473  -0.167   0.109  0.00  0.00    +0.147 HD
ENDROOT
BRANCH   1  18
ATOM     15  C   UNL     1       7.469  -3.745   0.365  0.00  0.00    +0.034 A 
ATOM     16  C   UNL     1       7.302  -2.950  -0.754  0.00  0.00    +0.022 A 
ATOM     17  C   UNL     1       6.064  -2.398  -1.031  0.00  0.00    +0.046 A 
ATOM     18  C   UNL     1       4.994  -2.641  -0.188  0.00  0.00    -0.007 A 
ATOM     19  C   UNL     1       5.164  -3.431   0.933  0.00  0.00    +0.039 A 
ATOM     20  C   UNL     1       6.399  -3.987   1.206  0.00  0.00    +0.127 A 
ATOM     21 CL   UNL     1       5.854  -1.400  -2.436  0.00  0.00    -0.083 Cl
BRANCH  20  22
ATOM     22  N   UNL     1       6.579  -4.838   2.404  0.00  0.00    +0.056 N 
ATOM     23  O   UNL     1       7.668  -5.325   2.648  0.00  0.00    -0.126 OA
ATOM     24  O   UNL     1       5.637  -5.052   3.146  0.00  0.00    -0.126 OA
ENDBRANCH  20  22
ENDBRANCH   1  18
BRANCH   9  25
ATOM     25  S   UNL     1      -1.495   2.317  -0.085  0.00  0.00    +0.061 S 
ATOM     26  O   UNL     1      -1.246   3.572  -0.703  0.00  0.00    -0.153 OA
ATOM     27  O   UNL     1      -2.480   1.413  -0.566  0.00  0.00    -0.153 OA
BRANCH  25  28
ATOM     28  N   UNL     1      -1.875   2.635   1.495  0.00  0.00    -0.177 NA
ATOM     29  C   UNL     1      -2.678   1.686   2.278  0.00  0.00    +0.109 C 
ATOM     30  C   UNL     1      -1.916   1.349   3.568  0.00  0.00    +0.017 C 
ATOM     31  C   UNL     1      -1.579   2.645   4.308  0.00  0.00    +0.003 C 
ATOM     32  C   UNL     1      -0.676   3.516   3.430  0.00  0.00    +0.017 C 
ATOM     33  C   UNL     1      -1.420   3.875   2.140  0.00  0.00    +0.109 C 
ENDBRANCH  25  28
ENDBRANCH   9  25
TORSDOF 4
