REMARK  Name = ZINC16053175
REMARK  10 active torsions:
REMARK  status: ('A' for Active; 'I' for Inactive)
REMARK    1  A    between atoms: C_1  and  C_2
REMARK    2  A    between atoms: C_4  and  C_36
REMARK    3  A    between atoms: C_6  and  N_8
REMARK    4  A    between atoms: C_18  and  S_19
REMARK    5  A    between atoms: S_19  and  C_20
REMARK    6  A    between atoms: C_20  and  C_22
REMARK    7  A    between atoms: C_20  and  C_23
REMARK    8  A    between atoms: N_25  and  C_26
REMARK    9  A    between atoms: C_31  and  O_32
REMARK   10  A    between atoms: O_32  and  C_33
REMARK                            x       y       z     vdW  Elec       q    Type
REMARK                         _______ _______ _______ _____ _____    ______ ____
ROOT
ATOM      1  N   UNL     1       0.567  -0.788  -0.070  0.00  0.00    -0.255 N 
ATOM      2  C   UNL     1       1.733  -0.103  -0.109  0.00  0.00    +0.267 A 
ATOM      3  O   UNL     1       2.805  -0.679  -0.076  0.00  0.00    -0.267 OA
ATOM      4  C   UNL     1       1.658   1.361  -0.191  0.00  0.00    +0.065 A 
ATOM      5  C   UNL     1       2.803   2.156  -0.235  0.00  0.00    +0.015 A 
ATOM      6  C   UNL     1       2.677   3.516  -0.311  0.00  0.00    +0.001 A 
ATOM      7  C   UNL     1       1.423   4.112  -0.345  0.00  0.00    +0.002 A 
ATOM      8  C   UNL     1       0.285   3.357  -0.303  0.00  0.00    +0.028 A 
ATOM      9  C   UNL     1       0.380   1.964  -0.226  0.00  0.00    +0.079 A 
ATOM     10  N   UNL     1      -0.721   1.179  -0.181  0.00  0.00    -0.223 NA
ATOM     11  C   UNL     1      -0.629  -0.126  -0.108  0.00  0.00    +0.177 A 
ENDROOT
BRANCH   1  17
ATOM     12  C   UNL     1      -0.775  -4.916   2.241  0.00  0.00    +0.044 C 
ATOM     13  C   UNL     1      -0.057  -4.213   1.119  0.00  0.00    -0.048 A 
ATOM     14  C   UNL     1       0.621  -4.949   0.165  0.00  0.00    +0.006 A 
ATOM     15  C   UNL     1       1.282  -4.308  -0.867  0.00  0.00    -0.048 A 
ATOM     16  C   UNL     1       1.266  -2.929  -0.948  0.00  0.00    +0.029 A 
ATOM     17  C   UNL     1       0.585  -2.187   0.009  0.00  0.00    +0.052 A 
ATOM     18  C   UNL     1      -0.073  -2.834   1.046  0.00  0.00    +0.029 A 
ATOM     19  C   UNL     1       2.020  -5.114  -1.905  0.00  0.00    +0.044 C 
ENDBRANCH   1  17
BRANCH  11  20
ATOM     20  S   UNL     1      -2.115  -1.072  -0.054  0.00  0.00    -0.075 S 
BRANCH  20  21
ATOM     21  C   UNL     1      -3.338   0.261  -0.130  0.00  0.00    +0.137 C 
ATOM     22  C   UNL     1      -3.233   1.121   1.131  0.00  0.00    +0.029 C 
BRANCH  21  23
ATOM     23  C   UNL     1      -4.721  -0.332  -0.220  0.00  0.00    +0.230 C 
ATOM     24  O   UNL     1      -4.933  -1.446   0.208  0.00  0.00    -0.274 OA
ATOM     25  N   UNL     1      -5.722   0.378  -0.777  0.00  0.00    -0.282 N 
ATOM     26  H   UNL     1      -5.575   1.299  -1.042  0.00  0.00    +0.155 HD
BRANCH  25  27
ATOM     27  C   UNL     1      -6.976  -0.216  -0.974  0.00  0.00    +0.076 A 
ATOM     28  C   UNL     1      -7.082  -1.594  -1.094  0.00  0.00    +0.027 A 
ATOM     29  C   UNL     1      -8.321  -2.178  -1.282  0.00  0.00    +0.002 A 
ATOM     30  C   UNL     1      -9.455  -1.391  -1.363  0.00  0.00    +0.004 A 
ATOM     31  C   UNL     1      -9.356  -0.016  -1.249  0.00  0.00    +0.048 A 
ATOM     32  C   UNL     1      -8.119   0.576  -1.055  0.00  0.00    +0.148 A 
BRANCH  32  33
ATOM     33  O   UNL     1      -8.021   1.928  -0.944  0.00  0.00    -0.432 OA
BRANCH  33  34
ATOM     34  C   UNL     1      -9.234   2.676  -1.037  0.00  0.00    +0.541 C 
ATOM     35  F   UNL     1      -9.832   2.444  -2.281  0.00  0.00    -0.166 F 
ATOM     36  F   UNL     1     -10.107   2.279  -0.019  0.00  0.00    -0.166 F 
ENDBRANCH  33  34
ENDBRANCH  32  33
ENDBRANCH  25  27
ENDBRANCH  21  23
ENDBRANCH  20  21
ENDBRANCH  11  20
TORSDOF 7
