REMARK  Name = ZINC40011115
REMARK  10 active torsions:
REMARK  status: ('A' for Active; 'I' for Inactive)
REMARK    1  A    between atoms: C_1  and  C_2
REMARK    2  A    between atoms: C_2  and  O_3
REMARK    3  A    between atoms: O_3  and  C_4
REMARK    4  A    between atoms: C_11  and  C_16
REMARK    5  A    between atoms: C_16  and  N_17
REMARK    6  A    between atoms: N_17  and  C_18
REMARK    7  A    between atoms: C_18  and  C_19
REMARK    8  A    between atoms: N_26  and  C_27
REMARK    9  A    between atoms: C_30  and  O_33
REMARK   10  A    between atoms: O_33  and  C_34
REMARK                            x       y       z     vdW  Elec       q    Type
REMARK                         _______ _______ _______ _____ _____    ______ ____
ROOT
ATOM      1  N   UNL     1      -5.280  -7.763  -0.989  0.00  0.00    -0.277 N 
ATOM      2  C   UNL     1      -4.456  -8.714  -1.470  0.00  0.00    +0.307 C 
ATOM      3  O   UNL     1      -3.346  -8.414  -1.866  0.00  0.00    -0.252 OA
ATOM      4  N   UNL     1      -4.861  -9.999  -1.513  0.00  0.00    -0.269 N 
ATOM      5  H   UNL     1      -5.715 -10.251  -1.128  0.00  0.00    +0.156 HD
ENDROOT
BRANCH   4   6
ATOM      6  C   UNL     1      -4.050 -10.970  -2.115  0.00  0.00    +0.035 A 
ATOM      7  C   UNL     1      -4.042 -12.269  -1.626  0.00  0.00    +0.027 A 
ATOM      8  C   UNL     1      -3.243 -13.226  -2.220  0.00  0.00    +0.047 A 
ATOM      9  C   UNL     1      -2.448 -12.889  -3.305  0.00  0.00    +0.120 A 
ATOM     10  C   UNL     1      -2.454 -11.591  -3.795  0.00  0.00    +0.047 A 
ATOM     11  C   UNL     1      -3.258 -10.635  -3.205  0.00  0.00    +0.027 A 
BRANCH   9  12
ATOM     12  O   UNL     1      -1.661 -13.832  -3.889  0.00  0.00    -0.495 OA
ATOM     13  C   UNL     1      -0.868 -13.415  -5.003  0.00  0.00    +0.277 C 
ENDBRANCH   9  12
ENDBRANCH   4   6
BRANCH   1  14
ATOM     14  C   UNL     1      -4.839  -6.367  -0.942  0.00  0.00    +0.126 C 
BRANCH  14  22
ATOM     15  C   UNL     1      -1.219  -2.233   1.031  0.00  0.00    +0.121 A 
ATOM     16  C   UNL     1      -0.143  -3.128   1.067  0.00  0.00    +0.047 A 
ATOM     17  C   UNL     1      -0.303  -4.470   0.938  0.00  0.00    +0.027 A 
ATOM     18  C   UNL     1      -1.584  -5.024   0.757  0.00  0.00    +0.041 A 
ATOM     19  N   UNL     1      -1.726  -6.344   0.631  0.00  0.00    -0.284 N 
ATOM     20  C   UNL     1      -2.899  -6.931   0.459  0.00  0.00    +0.226 C 
ATOM     21  O   UNL     1      -2.966  -8.140   0.350  0.00  0.00    -0.275 OA
ATOM     22  C   UNL     1      -4.156  -6.092   0.399  0.00  0.00    +0.116 C 
ATOM     23  C   UNL     1      -4.000  -4.591   0.542  0.00  0.00    -0.003 C 
ATOM     24  C   UNL     1      -2.737  -4.107   0.715  0.00  0.00    -0.004 A 
ATOM     25  C   UNL     1      -2.498  -2.672   0.867  0.00  0.00    +0.055 A 
ATOM     26  H   UNL     1      -0.932  -6.899   0.667  0.00  0.00    +0.155 HD
BRANCH  15  27
ATOM     27  O   UNL     1      -0.984  -0.901   1.168  0.00  0.00    -0.492 OA
BRANCH  27  29
ATOM     28  C   UNL     1       0.443   1.025   1.474  0.00  0.00    +0.048 C 
ATOM     29  C   UNL     1       0.376  -0.497   1.338  0.00  0.00    +0.225 C 
ENDBRANCH  27  29
ENDBRANCH  15  27
ENDBRANCH  14  22
ENDBRANCH   1  14
BRANCH   1  30
ATOM     30  C   UNL     1      -6.617  -8.125  -0.512  0.00  0.00    +0.183 C 
BRANCH  30  31
ATOM     31  C   UNL     1      -7.597  -8.041  -1.653  0.00  0.00    +0.122 A 
ATOM     32  C   UNL     1      -7.917  -9.044  -2.491  0.00  0.00    +0.046 A 
ATOM     33  C   UNL     1      -8.868  -8.529  -3.402  0.00  0.00    +0.041 A 
ATOM     34  C   UNL     1      -9.072  -7.242  -3.067  0.00  0.00    +0.195 A 
ATOM     35  O   UNL     1      -8.304  -6.954  -2.003  0.00  0.00    -0.466 OA
ENDBRANCH  30  31
ENDBRANCH   1  30
TORSDOF 8
