REMARK  Name = ZINC35015906
REMARK  4 active torsions:
REMARK  status: ('A' for Active; 'I' for Inactive)
REMARK    1  A    between atoms: C_1  and  O_2
REMARK    2  A    between atoms: O_2  and  C_3
REMARK    3  A    between atoms: C_5  and  C_10
REMARK    4  A    between atoms: C_8  and  O_9
REMARK                            x       y       z     vdW  Elec       q    Type
REMARK                         _______ _______ _______ _____ _____    ______ ____
ROOT
ATOM      1  C   UNL     1       2.403   0.379  -4.230  0.00  0.00    -0.013 C 
ATOM      2  N   UNL     1       2.903   1.635  -3.671  0.00  0.00    -0.334 N 
ATOM      3  C   UNL     1       4.229   1.739  -3.871  0.00  0.00    +0.193 C 
ATOM      4  O   UNL     1       4.924   2.668  -3.519  0.00  0.00    -0.278 OA
ATOM      5  C   UNL     1       4.708   0.516  -4.602  0.00  0.00    -0.042 C 
ATOM      6  N   UNL     1       3.539  -0.339  -4.823  0.00  0.00    +0.398 NA
ATOM      7  C   UNL     1       5.353   0.904  -5.943  0.00  0.00    -0.011 C 
ATOM      8  C   UNL     1       6.872   0.926  -5.638  0.00  0.00    -0.001 C 
ATOM      9  C   UNL     1       7.044  -0.267  -4.664  0.00  0.00    -0.001 C 
ATOM     10  C   UNL     1       5.775  -0.224  -3.786  0.00  0.00    -0.011 C 
ATOM     11  H   UNL     1       2.356   2.298  -3.220  0.00  0.00    +0.147 HD
ENDROOT
BRANCH   1  14
ATOM     12  C   UNL     1       0.606  -0.608  -1.056  0.00  0.00    +0.162 A 
ATOM     13  C   UNL     1       1.173   0.159  -2.062  0.00  0.00    +0.052 A 
ATOM     14  C   UNL     1       1.787  -0.456  -3.137  0.00  0.00    -0.048 A 
ATOM     15  C   UNL     1       1.837  -1.836  -3.212  0.00  0.00    +0.007 A 
ATOM     16  C   UNL     1       1.273  -2.606  -2.212  0.00  0.00    +0.049 A 
ATOM     17  C   UNL     1       0.662  -1.996  -1.129  0.00  0.00    +0.158 A 
BRANCH  12  19
ATOM     18  C   UNL     1      -0.017   1.425   0.010  0.00  0.00    +0.277 C 
ATOM     19  O   UNL     1       0.002  -0.004   0.002  0.00  0.00    -0.491 OA
ENDBRANCH  12  19
BRANCH  17  20
ATOM     20  O   UNL     1       0.112  -2.753  -0.142  0.00  0.00    -0.503 OA
ATOM     21  H   UNL     1      -0.816  -2.979  -0.291  0.00  0.00    +0.292 HD
ENDBRANCH  17  20
ENDBRANCH   1  14
TORSDOF 3
