REMARK  Name = ZINC35664270
REMARK  6 active torsions:
REMARK  status: ('A' for Active; 'I' for Inactive)
REMARK    1  A    between atoms: C_4  and  C_7
REMARK    2  A    between atoms: C_7  and  C_8
REMARK    3  A    between atoms: N_12  and  C_29
REMARK    4  A    between atoms: N_17  and  S_20
REMARK    5  A    between atoms: S_20  and  C_23
REMARK    6  A    between atoms: C_29  and  C_30
REMARK                            x       y       z     vdW  Elec       q    Type
REMARK                         _______ _______ _______ _____ _____    ______ ____
ROOT
ATOM      1  C   UNL     1       4.295  -0.936   1.128  0.00  0.00    +0.023 C 
ATOM      2  C   UNL     1       5.521  -1.823   1.089  0.00  0.00    +0.201 C 
ATOM      3  O   UNL     1       6.602  -1.518   0.632  0.00  0.00    -0.277 OA
ATOM      4  N   UNL     1       5.208  -3.010   1.650  0.00  0.00    -0.309 N 
ATOM      5  C   UNL     1       3.806  -2.995   2.076  0.00  0.00    +0.006 C 
ATOM      6  N   UNL     1       3.396  -1.573   2.120  0.00  0.00    +0.401 N 
ATOM      7  C   UNL     1       2.940  -3.752   1.071  0.00  0.00    +0.023 C 
ATOM      8  C   UNL     1       3.399  -5.212   1.004  0.00  0.00    +0.109 C 
ATOM      9  N   UNL     1       3.392  -5.772   2.362  0.00  0.00    -0.177 NA
ATOM     10  C   UNL     1       4.135  -5.074   3.420  0.00  0.00    +0.109 C 
ATOM     11  C   UNL     1       3.670  -3.614   3.466  0.00  0.00    +0.023 C 
ATOM     12  H   UNL     1       3.548  -1.185   3.039  0.00  0.00    -0.082 HD
ATOM     13  H   UNL     1       2.431  -1.470   1.844  0.00  0.00    -0.082 HD
ENDROOT
BRANCH   9  14
ATOM     14  S   UNL     1       2.561  -7.166   2.695  0.00  0.00    +0.061 S 
ATOM     15  O   UNL     1       2.271  -7.144   4.086  0.00  0.00    -0.153 OA
ATOM     16  O   UNL     1       1.547  -7.280   1.707  0.00  0.00    -0.153 OA
BRANCH  14  17
ATOM     17  C   UNL     1       3.672  -8.509   2.434  0.00  0.00    +0.105 A 
ATOM     18  C   UNL     1       3.764  -9.098   1.187  0.00  0.00    +0.028 A 
ATOM     19  C   UNL     1       4.635 -10.151   0.982  0.00  0.00    +0.002 A 
ATOM     20  C   UNL     1       5.415 -10.615   2.025  0.00  0.00    +0.000 A 
ATOM     21  C   UNL     1       5.324 -10.026   3.272  0.00  0.00    +0.002 A 
ATOM     22  C   UNL     1       4.456  -8.970   3.475  0.00  0.00    +0.028 A 
ENDBRANCH  14  17
ENDBRANCH   9  14
BRANCH   1  23
ATOM     23  C   UNL     1       3.626  -0.893  -0.247  0.00  0.00    +0.028 C 
BRANCH  23  27
ATOM     24  C   UNL     1       0.212   1.671  -0.091  0.00  0.00    +0.000 A 
ATOM     25  C   UNL     1       1.451   2.189  -0.420  0.00  0.00    +0.000 A 
ATOM     26  C   UNL     1       2.556   1.359  -0.471  0.00  0.00    +0.003 A 
ATOM     27  C   UNL     1       2.422   0.012  -0.192  0.00  0.00    -0.048 A 
ATOM     28  C   UNL     1       1.183  -0.506   0.138  0.00  0.00    +0.003 A 
ATOM     29  C   UNL     1       0.078   0.324   0.187  0.00  0.00    +0.000 A 
ENDBRANCH  23  27
ENDBRANCH   1  23
BRANCH   4  30
ATOM     30  C   UNL     1       6.128  -4.139   1.808  0.00  0.00    +0.141 C 
BRANCH  30  31
ATOM     31  C   UNL     1       7.050  -3.876   2.971  0.00  0.00    -0.030 A 
ATOM     32  C   UNL     1       8.162  -3.072   2.803  0.00  0.00    +0.008 A 
ATOM     33  C   UNL     1       9.008  -2.830   3.869  0.00  0.00    +0.038 A 
ATOM     34  C   UNL     1       8.741  -3.393   5.106  0.00  0.00    +0.123 A 
ATOM     35  C   UNL     1       7.628  -4.199   5.273  0.00  0.00    +0.038 A 
ATOM     36  C   UNL     1       6.780  -4.435   4.207  0.00  0.00    +0.008 A 
ATOM     37  F   UNL     1       9.568  -3.158   6.148  0.00  0.00    -0.205 F 
ENDBRANCH  30  31
ENDBRANCH   4  30
TORSDOF 6
