REMARK  Name = ZINC10066967
REMARK  10 active torsions:
REMARK  status: ('A' for Active; 'I' for Inactive)
REMARK    1  A    between atoms: C_1  and  C_2
REMARK    2  A    between atoms: C_2  and  N_57
REMARK    3  A    between atoms: C_3  and  C_4
REMARK    4  A    between atoms: C_3  and  N_57
REMARK    5  A    between atoms: C_5  and  C_6
REMARK    6  A    between atoms: C_5  and  N_57
REMARK    7  A    between atoms: C_6  and  N_7
REMARK    8  A    between atoms: C_21  and  C_23
REMARK    9  A    between atoms: C_24  and  C_25
REMARK   10  A    between atoms: C_28  and  N_30
REMARK                            x       y       z     vdW  Elec       q    Type
REMARK                         _______ _______ _______ _____ _____    ______ ____
ROOT
ATOM      1  N   UNL     1       0.050   1.191  -2.410  0.00  0.00    -0.249 N 
ATOM      2  C   UNL     1      -0.204  -0.024  -3.024  0.00  0.00    +0.168 A 
ATOM      3  N   UNL     1       0.384  -0.556  -4.069  0.00  0.00    -0.224 NA
ATOM      4  C   UNL     1       0.030  -1.763  -4.566  0.00  0.00    +0.084 A 
ATOM      5  C   UNL     1       0.578  -2.443  -5.678  0.00  0.00    +0.078 A 
ATOM      6  C   UNL     1       0.102  -3.677  -6.061  0.00  0.00    +0.164 A 
ATOM      7  C   UNL     1      -0.935  -4.293  -5.360  0.00  0.00    +0.163 A 
ATOM      8  C   UNL     1      -1.493  -3.651  -4.266  0.00  0.00    +0.066 A 
ATOM      9  C   UNL     1      -1.019  -2.420  -3.885  0.00  0.00    +0.044 A 
ATOM     10  S   UNL     1      -1.411  -1.268  -2.590  0.00  0.00    -0.052 S 
ATOM     11  O   UNL     1      -1.405  -5.514  -5.730  0.00  0.00    -0.485 OA
ATOM     12  C   UNL     1      -1.073  -5.958  -7.051  0.00  0.00    +0.270 C 
ATOM     13  C   UNL     1       0.421  -5.695  -7.283  0.00  0.00    +0.270 C 
ATOM     14  O   UNL     1       0.658  -4.290  -7.146  0.00  0.00    -0.485 OA
ATOM     15  C   UNL     1       1.018   1.998  -2.888  0.00  0.00    +0.245 C 
ATOM     16  O   UNL     1       1.669   1.659  -3.860  0.00  0.00    -0.270 OA
ENDROOT
BRANCH  15  17
ATOM     17  C   UNL     1       1.277   3.239  -2.261  0.00  0.00    +0.069 C 
ATOM     18  C   UNL     1       2.251   4.051  -2.743  0.00  0.00    +0.020 C 
BRANCH  18  19
ATOM     19  C   UNL     1       2.511   5.293  -2.115  0.00  0.00    +0.015 A 
ATOM     20  C   UNL     1       3.456   6.260  -2.441  0.00  0.00    +0.018 A 
ATOM     21  C   UNL     1       3.490   7.386  -1.658  0.00  0.00    +0.041 A 
ATOM     22  C   UNL     1       2.625   7.498  -0.616  0.00  0.00    +0.164 A 
ATOM     23  S   UNL     1       1.716   6.024  -0.694  0.00  0.00    -0.065 S 
BRANCH  22  24
ATOM     24  N   UNL     1       2.492   8.609   0.353  0.00  0.00    +0.063 N 
ATOM     25  O   UNL     1       3.218   9.583   0.266  0.00  0.00    -0.126 OA
ATOM     26  O   UNL     1       1.656   8.550   1.237  0.00  0.00    -0.126 OA
ENDBRANCH  22  24
ENDBRANCH  18  19
ENDBRANCH  15  17
BRANCH   1  27
ATOM     27  C   UNL     1      -0.733   1.599  -1.241  0.00  0.00    +0.097 C 
BRANCH  27  28
ATOM     28  C   UNL     1      -0.045   1.102   0.032  0.00  0.00    -0.059 C 
BRANCH  28  29
ATOM     29  N   UNL     1      -0.768   1.642   1.202  0.00  0.00    +0.380 N 
ATOM     30  H   UNL     1      -1.008   2.624   1.022  0.00  0.00    -0.082 HD
BRANCH  29  32
ATOM     31  C   UNL     1      -2.847   1.590   2.491  0.00  0.00    -0.017 C 
ATOM     32  C   UNL     1      -2.013   0.877   1.424  0.00  0.00    -0.082 C 
ENDBRANCH  29  32
BRANCH  29  33
ATOM     33  C   UNL     1       0.090   1.570   2.404  0.00  0.00    -0.082 C 
ATOM     34  C   UNL     1       1.114   2.705   2.344  0.00  0.00    -0.017 C 
ENDBRANCH  29  33
ENDBRANCH  28  29
ENDBRANCH  27  28
ENDBRANCH   1  27
TORSDOF 8
