REMARK  Name = ZINC34708243
REMARK  9 active torsions:
REMARK  status: ('A' for Active; 'I' for Inactive)
REMARK    1  A    between atoms: C_1  and  C_2
REMARK    2  A    between atoms: C_6  and  C_8
REMARK    3  A    between atoms: C_12  and  O_27
REMARK    4  A    between atoms: C_19  and  C_21
REMARK    5  A    between atoms: O_27  and  C_28
REMARK    6  A    between atoms: C_28  and  C_30
REMARK    7  A    between atoms: C_28  and  C_31
REMARK    8  A    between atoms: N_33  and  C_34
REMARK    9  A    between atoms: C_38  and  C_40
REMARK                            x       y       z     vdW  Elec       q    Type
REMARK                         _______ _______ _______ _____ _____    ______ ____
ROOT
ATOM      1  C   UNL     1       0.130  -3.320   2.749  0.00  0.00    +0.137 C 
ATOM      2  C   UNL     1      -1.065  -3.880   3.479  0.00  0.00    -0.016 A 
ATOM      3  C   UNL     1      -2.067  -2.996   3.853  0.00  0.00    +0.051 A 
ATOM      4  C   UNL     1      -3.193  -3.451   4.517  0.00  0.00    +0.122 A 
ATOM      5  C   UNL     1      -3.318  -4.803   4.808  0.00  0.00    +0.046 A 
ATOM      6  C   UNL     1      -2.319  -5.677   4.439  0.00  0.00    +0.007 A 
ATOM      7  C   UNL     1      -1.185  -5.219   3.777  0.00  0.00    -0.040 A 
ATOM      8  C   UNL     1      -0.125  -6.231   3.430  0.00  0.00    +0.054 C 
ATOM      9  C   UNL     1       0.789  -5.705   2.325  0.00  0.00    +0.113 C 
ATOM     10  N   UNL     1       1.187  -4.334   2.682  0.00  0.00    -0.286 N 
ATOM     11  C   UNL     1       2.474  -4.023   2.937  0.00  0.00    +0.247 C 
ATOM     12  O   UNL     1       3.343  -4.858   2.781  0.00  0.00    -0.270 OA
ENDROOT
BRANCH   1  18
ATOM     13  C   UNL     1       0.265  -4.116  -2.190  0.00  0.00    +0.044 C 
ATOM     14  C   UNL     1      -0.211  -3.307  -1.011  0.00  0.00    -0.050 A 
ATOM     15  C   UNL     1      -1.019  -2.203  -1.211  0.00  0.00    +0.003 A 
ATOM     16  C   UNL     1      -1.456  -1.461  -0.130  0.00  0.00    +0.001 A 
ATOM     17  C   UNL     1      -1.084  -1.823   1.152  0.00  0.00    +0.006 A 
ATOM     18  C   UNL     1      -0.276  -2.926   1.352  0.00  0.00    -0.022 A 
ATOM     19  C   UNL     1       0.157  -3.671   0.270  0.00  0.00    +0.009 A 
ENDBRANCH   1  18
BRANCH  11  20
ATOM     20  C   UNL     1       2.827  -2.666   3.407  0.00  0.00    +0.037 A 
ATOM     21  C   UNL     1       3.703  -2.502   4.481  0.00  0.00    +0.013 A 
ATOM     22  C   UNL     1       4.029  -1.234   4.914  0.00  0.00    +0.001 A 
ATOM     23  C   UNL     1       3.489  -0.125   4.286  0.00  0.00    +0.000 A 
ATOM     24  C   UNL     1       2.620  -0.281   3.221  0.00  0.00    +0.001 A 
ATOM     25  C   UNL     1       2.290  -1.544   2.774  0.00  0.00    +0.013 A 
ENDBRANCH  11  20
BRANCH   4  26
ATOM     26  O   UNL     1      -4.170  -2.580   4.882  0.00  0.00    -0.480 OA
BRANCH  26  27
ATOM     27  C   UNL     1      -5.337  -3.134   5.494  0.00  0.00    +0.256 C 
ATOM     28  C   UNL     1      -5.079  -3.347   6.987  0.00  0.00    +0.062 C 
BRANCH  27  29
ATOM     29  C   UNL     1      -6.496  -2.187   5.315  0.00  0.00    +0.258 C 
ATOM     30  O   UNL     1      -6.337  -1.140   4.722  0.00  0.00    -0.271 OA
ATOM     31  N   UNL     1      -7.707  -2.502   5.814  0.00  0.00    -0.282 N 
ATOM     32  H   UNL     1      -7.821  -3.309   6.339  0.00  0.00    +0.155 HD
BRANCH  31  33
ATOM     33  C   UNL     1      -8.802  -1.664   5.573  0.00  0.00    +0.034 A 
ATOM     34  C   UNL     1      -9.803  -1.536   6.528  0.00  0.00    +0.023 A 
ATOM     35  C   UNL     1     -10.882  -0.709   6.288  0.00  0.00    +0.002 A 
ATOM     36  C   UNL     1     -10.967  -0.008   5.099  0.00  0.00    +0.003 A 
ATOM     37  C   UNL     1      -9.973  -0.134   4.146  0.00  0.00    -0.049 A 
ATOM     38  C   UNL     1      -8.888  -0.955   4.383  0.00  0.00    +0.026 A 
ATOM     39  C   UNL     1     -10.070   0.631   2.851  0.00  0.00    +0.044 C 
ENDBRANCH  31  33
ENDBRANCH  27  29
ENDBRANCH  26  27
ENDBRANCH   4  26
TORSDOF 6
