REMARK  Name = ZINC40568572
REMARK  13 active torsions:
REMARK  status: ('A' for Active; 'I' for Inactive)
REMARK    1  A    between atoms: C_1  and  C_2
REMARK    2  A    between atoms: C_5  and  C_10
REMARK    3  A    between atoms: N_8  and  C_9
REMARK    4  A    between atoms: C_10  and  C_12
REMARK    5  A    between atoms: C_10  and  C_24
REMARK    6  A    between atoms: C_15  and  O_22
REMARK    7  A    between atoms: C_16  and  O_20
REMARK    8  A    between atoms: C_17  and  O_18
REMARK    9  A    between atoms: O_18  and  C_19
REMARK   10  A    between atoms: O_20  and  C_21
REMARK   11  A    between atoms: O_22  and  C_23
REMARK   12  A    between atoms: C_25  and  C_33
REMARK   13  A    between atoms: N_26  and  C_32
REMARK                            x       y       z     vdW  Elec       q    Type
REMARK                         _______ _______ _______ _____ _____    ______ ____
ROOT
ATOM      1  C   UNL     1       0.131  -4.227   0.195  0.00  0.00    +0.097 C 
ENDROOT
BRANCH   1   6
ATOM      2  C   UNL     1      -1.660  -2.736  -5.077  0.00  0.00    +0.064 C 
ATOM      3  C   UNL     1      -1.199  -3.138  -3.700  0.00  0.00    +0.022 A 
ATOM      4  C   UNL     1      -1.603  -4.318  -3.181  0.00  0.00    +0.072 A 
ATOM      5  C   UNL     1      -1.176  -4.699  -1.893  0.00  0.00    +0.190 A 
ATOM      6  C   UNL     1      -0.345  -3.851  -1.185  0.00  0.00    +0.076 A 
ATOM      7  C   UNL     1       0.047  -2.639  -1.765  0.00  0.00    +0.259 A 
ATOM      8  O   UNL     1       0.780  -1.879  -1.152  0.00  0.00    -0.267 OA
ATOM      9  N   UNL     1      -0.379  -2.312  -2.999  0.00  0.00    -0.315 N 
ATOM     10  C   UNL     1       0.045  -1.043  -3.595  0.00  0.00    +0.152 C 
ATOM     11  O   UNL     1      -1.573  -5.879  -1.359  0.00  0.00    -0.287 OA
ENDBRANCH   1   6
BRANCH   1  12
ATOM     12  C   UNL     1      -0.916  -3.846   1.209  0.00  0.00    +0.031 A 
ATOM     13  C   UNL     1      -1.289  -4.728   2.162  0.00  0.00    +0.026 A 
ATOM     14  N   UNL     1      -2.231  -4.401   3.084  0.00  0.00    -0.315 N 
ATOM     15  C   UNL     1      -2.821  -3.192   3.077  0.00  0.00    +0.255 A 
ATOM     16  O   UNL     1      -3.666  -2.920   3.916  0.00  0.00    -0.268 OA
ATOM     17  C   UNL     1      -2.467  -2.244   2.109  0.00  0.00    +0.121 A 
ATOM     18  C   UNL     1      -1.506  -2.567   1.170  0.00  0.00    +0.190 A 
ATOM     19  O   UNL     1      -1.139  -1.669   0.225  0.00  0.00    -0.287 OA
ATOM     20  C   UNL     1      -2.612  -5.382   4.104  0.00  0.00    +0.152 C 
ATOM     21  C   UNL     1      -0.651  -6.093   2.201  0.00  0.00    +0.064 C 
ENDBRANCH   1  12
BRANCH   1  22
ATOM     22  C   UNL     1       1.414  -3.496   0.499  0.00  0.00    +0.010 A 
ATOM     23  C   UNL     1       1.387  -2.341   1.259  0.00  0.00    +0.012 A 
ATOM     24  C   UNL     1       2.561  -1.668   1.540  0.00  0.00    +0.050 A 
ATOM     25  C   UNL     1       3.771  -2.149   1.062  0.00  0.00    +0.165 A 
ATOM     26  C   UNL     1       3.802  -3.309   0.299  0.00  0.00    +0.204 A 
ATOM     27  C   UNL     1       2.620  -3.987   0.022  0.00  0.00    +0.169 A 
BRANCH  27  28
ATOM     28  O   UNL     1       2.646  -5.126  -0.720  0.00  0.00    -0.491 OA
ATOM     29  C   UNL     1       2.518  -4.981  -2.136  0.00  0.00    +0.277 C 
ENDBRANCH  27  28
BRANCH  26  30
ATOM     30  O   UNL     1       4.987  -3.785  -0.172  0.00  0.00    -0.488 OA
ATOM     31  C   UNL     1       5.695  -4.703   0.662  0.00  0.00    +0.277 C 
ENDBRANCH  26  30
BRANCH  25  32
ATOM     32  O   UNL     1       4.925  -1.485   1.339  0.00  0.00    -0.491 OA
ATOM     33  C   UNL     1       4.817  -0.298   2.129  0.00  0.00    +0.277 C 
ENDBRANCH  25  32
ENDBRANCH   1  22
TORSDOF 6
