REMARK  Name = ZINC15314204
REMARK  8 active torsions:
REMARK  status: ('A' for Active; 'I' for Inactive)
REMARK    1  A    between atoms: C_1  and  C_2
REMARK    2  A    between atoms: C_5  and  N_33
REMARK    3  A    between atoms: C_7  and  S_8
REMARK    4  A    between atoms: S_8  and  N_11
REMARK    5  A    between atoms: C_14  and  C_17
REMARK    6  A    between atoms: N_19  and  C_20
REMARK    7  A    between atoms: C_20  and  C_22
REMARK    8  A    between atoms: C_20  and  C_23
REMARK                            x       y       z     vdW  Elec       q    Type
REMARK                         _______ _______ _______ _____ _____    ______ ____
ROOT
ATOM      1  N   UNL     1       3.353   3.318   1.932  0.00  0.00    -0.177 NA
ATOM      2  C   UNL     1       2.967   4.065   3.137  0.00  0.00    +0.110 C 
ATOM      3  C   UNL     1       2.375   3.078   4.155  0.00  0.00    +0.030 C 
ATOM      4  C   UNL     1       3.380   1.953   4.409  0.00  0.00    +0.077 C 
ATOM      5  C   UNL     1       3.644   1.198   3.104  0.00  0.00    +0.030 C 
ATOM      6  C   UNL     1       4.245   2.160   2.075  0.00  0.00    +0.110 C 
ENDROOT
BRANCH   4   7
ATOM      7  C   UNL     1       2.819   1.002   5.435  0.00  0.00    +0.216 C 
ATOM      8  O   UNL     1       2.647  -0.165   5.151  0.00  0.00    -0.276 OA
ATOM      9  N   UNL     1       2.508   1.447   6.668  0.00  0.00    -0.312 N 
ATOM     10  H   UNL     1       2.645   2.380   6.896  0.00  0.00    +0.149 HD
BRANCH   9  11
ATOM     11  C   UNL     1       1.963   0.522   7.665  0.00  0.00    +0.076 C 
ATOM     12  C   UNL     1       0.448   0.411   7.484  0.00  0.00    +0.028 C 
BRANCH  11  13
ATOM     13  C   UNL     1       2.271   1.047   9.069  0.00  0.00    -0.010 C 
ATOM     14  C   UNL     1       1.633   2.426   9.250  0.00  0.00    +0.012 C 
ATOM     15  C   UNL     1       1.941   2.950  10.654  0.00  0.00    -0.010 C 
ATOM     16  C   UNL     1       1.372   1.984  11.695  0.00  0.00    +0.007 C 
ATOM     17  C   UNL     1       2.010   0.606  11.515  0.00  0.00    -0.010 C 
ATOM     18  C   UNL     1       1.702   0.081  10.111  0.00  0.00    +0.012 C 
ATOM     19  C   UNL     1       3.525   0.717  11.697  0.00  0.00    +0.007 C 
ATOM     20  C   UNL     1       4.094   1.683  10.655  0.00  0.00    -0.010 C 
ATOM     21  C   UNL     1       3.456   3.061  10.836  0.00  0.00    +0.007 C 
ATOM     22  C   UNL     1       3.786   1.158   9.251  0.00  0.00    +0.012 C 
ENDBRANCH  11  13
ENDBRANCH   9  11
ENDBRANCH   4   7
BRANCH   1  23
ATOM     23  S   UNL     1       2.799   3.777   0.441  0.00  0.00    +0.061 S 
ATOM     24  O   UNL     1       3.772   3.351  -0.503  0.00  0.00    -0.153 OA
ATOM     25  O   UNL     1       2.395   5.135   0.558  0.00  0.00    -0.153 OA
BRANCH  23  32
ATOM     26  C   UNL     1       0.193   4.123   1.936  0.00  0.00    +0.046 C 
ATOM     27  C   UNL     1       0.194   3.074   0.855  0.00  0.00    -0.024 A 
ATOM     28  C   UNL     1      -0.950   2.341   0.601  0.00  0.00    +0.007 A 
ATOM     29  C   UNL     1      -0.947   1.375  -0.387  0.00  0.00    +0.033 A 
ATOM     30  C   UNL     1       0.198   1.148  -1.129  0.00  0.00    +0.128 A 
ATOM     31  C   UNL     1       1.342   1.881  -0.875  0.00  0.00    +0.061 A 
ATOM     32  C   UNL     1       1.340   2.844   0.117  0.00  0.00    +0.111 A 
BRANCH  30  33
ATOM     33  N   UNL     1       0.199   0.117  -2.191  0.00  0.00    +0.056 N 
ATOM     34  O   UNL     1       1.209  -0.085  -2.841  0.00  0.00    -0.126 OA
ATOM     35  O   UNL     1      -0.809  -0.528  -2.415  0.00  0.00    -0.126 OA
ENDBRANCH  30  33
ENDBRANCH  23  32
ENDBRANCH   1  23
TORSDOF 6
