REMARK  Name = ZINC21250538
REMARK  10 active torsions:
REMARK  status: ('A' for Active; 'I' for Inactive)
REMARK    1  A    between atoms: C_1  and  O_2
REMARK    2  A    between atoms: O_2  and  C_3
REMARK    3  A    between atoms: C_7  and  C_9
REMARK    4  A    between atoms: C_14  and  C_24
REMARK    5  A    between atoms: C_26  and  O_34
REMARK    6  A    between atoms: C_27  and  O_32
REMARK    7  A    between atoms: C_28  and  O_30
REMARK    8  A    between atoms: O_30  and  C_31
REMARK    9  A    between atoms: O_32  and  C_33
REMARK   10  A    between atoms: O_34  and  C_35
REMARK                            x       y       z     vdW  Elec       q    Type
REMARK                         _______ _______ _______ _____ _____    ______ ____
ROOT
ATOM      1  C   UNL     1       2.366   4.053  -0.214  0.00  0.00    +0.032 C 
ATOM      2  C   UNL     1       3.225   3.684  -1.421  0.00  0.00    +0.059 C 
ATOM      3  C   UNL     1       4.567   4.395  -1.342  0.00  0.00    +0.017 C 
ATOM      4  C   UNL     1       5.125   4.663  -0.150  0.00  0.00    +0.036 C 
ATOM      5  C   UNL     1       6.443   5.366   0.074  0.00  0.00    +0.136 C 
ATOM      6  N   UNL     1       7.243   5.529  -1.121  0.00  0.00    -0.331 N 
ATOM      7  C   UNL     1       6.801   6.322  -2.176  0.00  0.00    +0.049 A 
ATOM      8  C   UNL     1       7.460   7.491  -2.526  0.00  0.00    +0.025 A 
ATOM      9  C   UNL     1       6.959   8.276  -3.550  0.00  0.00    +0.002 A 
ATOM     10  C   UNL     1       5.808   7.903  -4.219  0.00  0.00    +0.002 A 
ATOM     11  C   UNL     1       5.156   6.728  -3.886  0.00  0.00    +0.025 A 
ATOM     12  C   UNL     1       5.670   5.931  -2.878  0.00  0.00    +0.052 A 
ATOM     13  N   UNL     1       5.115   4.700  -2.546  0.00  0.00    -0.316 N 
ATOM     14  C   UNL     1       4.467   4.290   1.046  0.00  0.00    +0.163 C 
ATOM     15  O   UNL     1       5.009   4.519   2.110  0.00  0.00    -0.292 OA
ATOM     16  C   UNL     1       3.124   3.623   1.048  0.00  0.00    +0.088 C 
ATOM     17  H   UNL     1       8.216   5.023  -1.205  0.00  0.00    +0.147 HD
ATOM     18  H   UNL     1       5.143   3.944  -3.345  0.00  0.00    +0.152 HD
ENDROOT
BRANCH   1  23
ATOM     19  C   UNL     1      -1.349   3.388  -0.406  0.00  0.00    +0.120 A 
ATOM     20  C   UNL     1      -1.378   2.001  -0.426  0.00  0.00    +0.045 A 
ATOM     21  C   UNL     1      -0.198   1.285  -0.370  0.00  0.00    +0.004 A 
ATOM     22  C   UNL     1       1.013   1.950  -0.304  0.00  0.00    +0.004 A 
ATOM     23  C   UNL     1       1.045   3.332  -0.287  0.00  0.00    -0.040 A 
ATOM     24  C   UNL     1      -0.133   4.052  -0.338  0.00  0.00    +0.049 A 
BRANCH  19  26
ATOM     25  C   UNL     1      -3.723   3.343  -0.524  0.00  0.00    +0.277 C 
ATOM     26  O   UNL     1      -2.509   4.094  -0.456  0.00  0.00    -0.495 OA
ENDBRANCH  19  26
ENDBRANCH   1  23
BRANCH   5  27
ATOM     27  C   UNL     1       6.165   6.729   0.654  0.00  0.00    -0.016 A 
ATOM     28  C   UNL     1       5.433   7.650  -0.071  0.00  0.00    +0.055 A 
ATOM     29  C   UNL     1       5.171   8.903   0.462  0.00  0.00    +0.165 A 
ATOM     30  C   UNL     1       5.655   9.236   1.721  0.00  0.00    +0.204 A 
ATOM     31  C   UNL     1       6.396   8.309   2.444  0.00  0.00    +0.165 A 
ATOM     32  C   UNL     1       6.649   7.056   1.907  0.00  0.00    +0.055 A 
BRANCH  31  33
ATOM     33  O   UNL     1       6.872   8.631   3.677  0.00  0.00    -0.491 OA
ATOM     34  C   UNL     1       7.626   7.629   4.362  0.00  0.00    +0.277 C 
ENDBRANCH  31  33
BRANCH  30  35
ATOM     35  O   UNL     1       5.403  10.467   2.245  0.00  0.00    -0.488 OA
ATOM     36  C   UNL     1       6.354  11.497   1.967  0.00  0.00    +0.277 C 
ENDBRANCH  30  35
BRANCH  29  37
ATOM     37  O   UNL     1       4.445   9.807  -0.250  0.00  0.00    -0.491 OA
ATOM     38  C   UNL     1       3.886   9.361  -1.487  0.00  0.00    +0.277 C 
ENDBRANCH  29  37
ENDBRANCH   5  27
TORSDOF 6
