REMARK  Name = ZINC34697841
REMARK  10 active torsions:
REMARK  status: ('A' for Active; 'I' for Inactive)
REMARK    1  A    between atoms: C_1  and  C_2
REMARK    2  A    between atoms: C_5  and  C_8
REMARK    3  A    between atoms: C_13  and  C_15
REMARK    4  A    between atoms: C_15  and  N_16
REMARK    5  A    between atoms: N_16  and  C_17
REMARK    6  A    between atoms: N_16  and  C_18
REMARK    7  A    between atoms: C_24  and  C_26
REMARK    8  A    between atoms: C_26  and  C_27
REMARK    9  A    between atoms: C_30  and  O_33
REMARK   10  A    between atoms: O_33  and  C_34
REMARK                            x       y       z     vdW  Elec       q    Type
REMARK                         _______ _______ _______ _____ _____    ______ ____
ROOT
ATOM      1  C   UNL     1       0.046  -4.029  -0.021  0.00  0.00    +0.039 C 
ATOM      2  C   UNL     1       1.428  -4.298   0.614  0.00  0.00    +0.116 C 
ATOM      3  N   UNL     1       1.217  -5.481   1.480  0.00  0.00    -0.300 N 
ATOM      4  C   UNL     1      -0.114  -5.256   2.092  0.00  0.00    +0.110 C 
ATOM      5  C   UNL     1      -0.972  -4.660   0.951  0.00  0.00    -0.001 C 
ATOM      6  C   UNL     1       2.047  -6.527   1.668  0.00  0.00    +0.220 C 
ATOM      7  O   UNL     1       1.728  -7.427   2.416  0.00  0.00    -0.275 OA
ENDROOT
BRANCH   1  12
ATOM      8  C   UNL     1      -0.881   1.657  -0.480  0.00  0.00    +0.044 C 
ATOM      9  C   UNL     1      -0.639   0.174  -0.361  0.00  0.00    -0.050 A 
ATOM     10  C   UNL     1      -0.881  -0.655  -1.440  0.00  0.00    +0.003 A 
ATOM     11  C   UNL     1      -0.658  -2.015  -1.330  0.00  0.00    +0.004 A 
ATOM     12  C   UNL     1      -0.195  -2.546  -0.141  0.00  0.00    -0.043 A 
ATOM     13  C   UNL     1       0.048  -1.716   0.938  0.00  0.00    +0.004 A 
ATOM     14  C   UNL     1      -0.170  -0.356   0.827  0.00  0.00    +0.003 A 
ENDBRANCH   1  12
BRANCH   5  15
ATOM     15  C   UNL     1      -1.918  -3.591   1.499  0.00  0.00    -0.073 C 
BRANCH  15  16
ATOM     16  N   UNL     1      -2.995  -4.235   2.263  0.00  0.00    +0.380 N 
ATOM     17  C   UNL     1      -2.436  -4.853   3.472  0.00  0.00    -0.096 C 
ATOM     18  H   UNL     1      -3.433  -4.944   1.694  0.00  0.00    -0.082 HD
BRANCH  16  19
ATOM     19  C   UNL     1      -3.995  -3.228   2.645  0.00  0.00    -0.069 C 
ATOM     20  C   UNL     1      -5.117  -3.899   3.440  0.00  0.00    -0.015 C 
ATOM     21  C   UNL     1      -6.157  -2.850   3.837  0.00  0.00    -0.002 C 
ATOM     22  C   UNL     1      -6.740  -2.207   2.578  0.00  0.00    -0.000 C 
ATOM     23  C   UNL     1      -5.618  -1.536   1.782  0.00  0.00    -0.002 C 
ATOM     24  C   UNL     1      -4.577  -2.584   1.385  0.00  0.00    -0.015 C 
ENDBRANCH  16  19
ENDBRANCH  15  16
ENDBRANCH   5  15
BRANCH   6  25
ATOM     25  C   UNL     1       3.371  -6.576   0.950  0.00  0.00    +0.131 C 
BRANCH  25  26
ATOM     26  C   UNL     1       4.102  -7.838   1.331  0.00  0.00    -0.038 A 
ATOM     27  C   UNL     1       4.950  -7.841   2.423  0.00  0.00    +0.007 A 
ATOM     28  C   UNL     1       5.621  -8.996   2.774  0.00  0.00    +0.046 A 
ATOM     29  C   UNL     1       5.444 -10.154   2.030  0.00  0.00    +0.120 A 
ATOM     30  C   UNL     1       4.592 -10.148   0.935  0.00  0.00    +0.046 A 
ATOM     31  C   UNL     1       3.919  -8.992   0.591  0.00  0.00    +0.007 A 
BRANCH  29  32
ATOM     32  O   UNL     1       6.104 -11.291   2.373  0.00  0.00    -0.495 OA
ATOM     33  C   UNL     1       5.873 -12.445   1.562  0.00  0.00    +0.277 C 
ENDBRANCH  29  32
ENDBRANCH  25  26
ENDBRANCH   6  25
TORSDOF 7
