REMARK  Name = ZINC20805942
REMARK  12 active torsions:
REMARK  status: ('A' for Active; 'I' for Inactive)
REMARK    1  A    between atoms: C_1  and  O_2
REMARK    2  A    between atoms: O_2  and  C_3
REMARK    3  A    between atoms: C_8  and  N_9
REMARK    4  A    between atoms: C_10  and  C_12
REMARK    5  A    between atoms: C_12  and  S_13
REMARK    6  A    between atoms: S_13  and  C_14
REMARK    7  A    between atoms: N_18  and  N_19
REMARK    8  A    between atoms: N_20  and  N_21
REMARK    9  A    between atoms: C_22  and  C_23
REMARK   10  A    between atoms: C_26  and  C_29
REMARK   11  A    between atoms: C_29  and  O_31
REMARK   12  A    between atoms: O_31  and  C_32
REMARK                            x       y       z     vdW  Elec       q    Type
REMARK                         _______ _______ _______ _____ _____    ______ ____
ROOT
ATOM      1  C   UNL     1      -6.901   9.456   0.055  0.00  0.00    +0.210 A 
ATOM      2  N   UNL     1      -5.592   9.390   0.042  0.00  0.00    -0.119 NA
ATOM      3  N   UNL     1      -5.212   8.163   0.028  0.00  0.00    -0.109 NA
ATOM      4  C   UNL     1      -6.255   7.370   0.022  0.00  0.00    +0.254 A 
ATOM      5  N   UNL     1      -7.370   8.169   0.043  0.00  0.00    -0.211 N 
ATOM      6  N   UNL     1      -6.236   5.983   0.005  0.00  0.00    -0.204 N 
ATOM      7  H   UNL     1      -7.181   5.420   0.007  0.00  0.00    +0.177 HD
ENDROOT
BRANCH   5   8
ATOM      8  N   UNL     1      -8.675   7.766   0.050  0.00  0.00    -0.294 N 
ATOM      9  H   UNL     1      -8.919   6.693   0.039  0.00  0.00    +0.163 HD
ATOM     10  H   UNL     1      -9.482   8.514   0.066  0.00  0.00    +0.163 HD
ENDBRANCH   5   8
BRANCH   6  11
ATOM     11  N   UNL     1      -5.013   5.300  -0.015  0.00  0.00    -0.188 NA
ATOM     12  C   UNL     1      -4.996   4.000  -0.031  0.00  0.00    +0.138 C 
BRANCH  12  13
ATOM     13  C   UNL     1      -3.711   3.282  -0.052  0.00  0.00    -0.005 A 
ATOM     14  C   UNL     1      -3.692   1.882  -0.069  0.00  0.00    +0.010 A 
ATOM     15  C   UNL     1      -2.500   1.217  -0.088  0.00  0.00    +0.015 A 
ATOM     16  C   UNL     1      -1.298   1.933  -0.091  0.00  0.00    +0.059 A 
ATOM     17  C   UNL     1      -1.317   3.332  -0.068  0.00  0.00    +0.015 A 
ATOM     18  C   UNL     1      -2.509   3.998  -0.054  0.00  0.00    +0.010 A 
BRANCH  16  19
ATOM     19  C   UNL     1      -0.012   1.214  -0.111  0.00  0.00    +0.339 C 
ATOM     20  O   UNL     1       0.005  -0.001  -0.126  0.00  0.00    -0.245 OA
BRANCH  19  21
ATOM     21  O   UNL     1       1.146   1.904  -0.119  0.00  0.00    -0.464 OA
ATOM     22  C   UNL     1       2.374   1.130  -0.146  0.00  0.00    +0.280 C 
ENDBRANCH  19  21
ENDBRANCH  16  19
ENDBRANCH  12  13
ENDBRANCH   6  11
BRANCH   1  23
ATOM     23  S   UNL     1      -7.875  10.924   0.083  0.00  0.00    -0.075 S 
BRANCH  23  24
ATOM     24  C   UNL     1      -6.563  12.171   0.086  0.00  0.00    +0.173 C 
BRANCH  24  26
ATOM     25  N   UNL     1      -6.387  14.639   0.116  0.00  0.00    -0.282 N 
ATOM     26  C   UNL     1      -7.178  13.547   0.109  0.00  0.00    +0.228 C 
ATOM     27  O   UNL     1      -8.384  13.672   0.123  0.00  0.00    -0.275 OA
ATOM     28  H   UNL     1      -5.295  14.527   0.196  0.00  0.00    +0.155 HD
BRANCH  25  34
ATOM     29  C   UNL     1      -6.273  17.023   0.520  0.00  0.00    +0.141 A 
ATOM     30  C   UNL     1      -6.840  18.283   0.423  0.00  0.00    +0.047 A 
ATOM     31  C   UNL     1      -8.079  18.441  -0.169  0.00  0.00    +0.004 A 
ATOM     32  C   UNL     1      -8.756  17.343  -0.666  0.00  0.00    +0.002 A 
ATOM     33  C   UNL     1      -8.196  16.082  -0.578  0.00  0.00    +0.027 A 
ATOM     34  C   UNL     1      -6.955  15.916   0.020  0.00  0.00    +0.076 A 
BRANCH  29  36
ATOM     35  C   UNL     1      -4.413  18.046   1.592  0.00  0.00    +0.277 C 
ATOM     36  O   UNL     1      -5.054  16.866   1.102  0.00  0.00    -0.493 OA
ENDBRANCH  29  36
ENDBRANCH  25  34
ENDBRANCH  24  26
ENDBRANCH  23  24
ENDBRANCH   1  23
TORSDOF 10
