REMARK  Name = ZINC49503783
REMARK  7 active torsions:
REMARK  status: ('A' for Active; 'I' for Inactive)
REMARK    1  A    between atoms: C_1  and  O_2
REMARK    2  A    between atoms: O_2  and  C_3
REMARK    3  A    between atoms: C_8  and  C_9
REMARK    4  A    between atoms: C_9  and  C_15
REMARK    5  A    between atoms: N_17  and  C_18
REMARK    6  A    between atoms: N_24  and  S_28
REMARK    7  A    between atoms: S_28  and  C_31
REMARK                            x       y       z     vdW  Elec       q    Type
REMARK                         _______ _______ _______ _____ _____    ______ ____
ROOT
ATOM      1  C   UNL     1       1.341  -0.318   2.833  0.00  0.00    +0.035 A 
ATOM      2  C   UNL     1       1.752  -1.320   3.704  0.00  0.00    +0.024 A 
ATOM      3  C   UNL     1       2.860  -1.129   4.504  0.00  0.00    +0.007 A 
ATOM      4  C   UNL     1       3.571   0.059   4.446  0.00  0.00    -0.025 A 
ATOM      5  C   UNL     1       3.165   1.060   3.575  0.00  0.00    +0.056 A 
ATOM      6  C   UNL     1       2.052   0.870   2.765  0.00  0.00    +0.048 A 
ATOM      7  N   UNL     1       3.871   2.265   3.490  0.00  0.00    -0.203 N 
ATOM      8  C   UNL     1       4.856   2.588   4.531  0.00  0.00    +0.132 C 
ATOM      9  C   UNL     1       5.689   1.327   4.794  0.00  0.00    +0.025 C 
ATOM     10  C   UNL     1       4.772   0.232   5.338  0.00  0.00    +0.038 C 
ENDROOT
BRANCH   1  13
ATOM     11  C   UNL     1      -0.176  -1.758   1.699  0.00  0.00    +0.228 C 
ATOM     12  O   UNL     1       0.427  -2.716   2.135  0.00  0.00    -0.274 OA
ATOM     13  N   UNL     1       0.216  -0.510   2.023  0.00  0.00    -0.285 N 
ATOM     14  H   UNL     1      -0.282   0.255   1.695  0.00  0.00    +0.155 HD
BRANCH  11  15
ATOM     15  C   UNL     1      -1.363  -1.964   0.794  0.00  0.00    +0.080 C 
ATOM     16  C   UNL     1      -1.173  -1.160  -0.496  0.00  0.00    +0.049 C 
ATOM     17  C   UNL     1       0.057  -1.688  -1.239  0.00  0.00    +0.161 C 
ATOM     18  O   UNL     1      -0.111  -3.081  -1.507  0.00  0.00    -0.380 OA
ATOM     19  C   UNL     1      -0.247  -3.889  -0.336  0.00  0.00    +0.161 C 
ATOM     20  C   UNL     1      -1.489  -3.450   0.443  0.00  0.00    +0.049 C 
BRANCH  15  26
ATOM     21  C   UNL     1      -2.941  -2.015   2.743  0.00  0.00    +0.124 A 
ATOM     22  C   UNL     1      -4.093  -1.585   3.387  0.00  0.00    +0.046 A 
ATOM     23  C   UNL     1      -4.915  -0.654   2.782  0.00  0.00    +0.004 A 
ATOM     24  C   UNL     1      -4.591  -0.150   1.536  0.00  0.00    +0.001 A 
ATOM     25  C   UNL     1      -3.445  -0.577   0.891  0.00  0.00    +0.008 A 
ATOM     26  C   UNL     1      -2.616  -1.504   1.495  0.00  0.00    +0.009 A 
BRANCH  21  28
ATOM     27  C   UNL     1      -2.528  -3.413   4.621  0.00  0.00    +0.277 C 
ATOM     28  O   UNL     1      -2.131  -2.930   3.336  0.00  0.00    -0.495 OA
ENDBRANCH  21  28
ENDBRANCH  15  26
ENDBRANCH  11  15
ENDBRANCH   1  13
BRANCH   7  29
ATOM     29  S   UNL     1       3.600   3.311   2.235  0.00  0.00    +0.075 S 
ATOM     30  O   UNL     1       4.647   4.271   2.273  0.00  0.00    -0.150 OA
ATOM     31  O   UNL     1       3.341   2.512   1.089  0.00  0.00    -0.150 OA
BRANCH  29  32
ATOM     32  C   UNL     1       2.109   4.178   2.591  0.00  0.00    +0.109 A 
ATOM     33  C   UNL     1       0.895   3.670   2.167  0.00  0.00    +0.031 A 
ATOM     34  C   UNL     1      -0.275   4.349   2.447  0.00  0.00    +0.040 A 
ATOM     35  C   UNL     1      -0.233   5.539   3.152  0.00  0.00    +0.124 A 
ATOM     36  C   UNL     1       0.983   6.048   3.577  0.00  0.00    +0.040 A 
ATOM     37  C   UNL     1       2.152   5.364   3.301  0.00  0.00    +0.031 A 
ATOM     38  F   UNL     1      -1.376   6.205   3.426  0.00  0.00    -0.205 F 
ENDBRANCH  29  32
ENDBRANCH   7  29
TORSDOF 6
