REMARK  Name = ZINC35746064
REMARK  12 active torsions:
REMARK  status: ('A' for Active; 'I' for Inactive)
REMARK    1  A    between atoms: C_1  and  C_2
REMARK    2  A    between atoms: C_5  and  S_8
REMARK    3  A    between atoms: S_8  and  N_11
REMARK    4  A    between atoms: N_11  and  C_12
REMARK    5  A    between atoms: C_15  and  C_18
REMARK    6  A    between atoms: C_20  and  C_30
REMARK    7  A    between atoms: C_21  and  C_29
REMARK    8  A    between atoms: C_30  and  O_32
REMARK    9  A    between atoms: O_32  and  C_33
REMARK   10  A    between atoms: C_33  and  C_34
REMARK   11  A    between atoms: C_34  and  O_35
REMARK   12  A    between atoms: O_35  and  C_36
REMARK                            x       y       z     vdW  Elec       q    Type
REMARK                         _______ _______ _______ _____ _____    ______ ____
ROOT
ATOM      1  C   UNL     1       2.137  -3.930   1.551  0.00  0.00    +0.048 A 
ATOM      2  C   UNL     1       1.995  -2.892   2.463  0.00  0.00    +0.025 A 
ATOM      3  C   UNL     1       2.811  -2.836   3.576  0.00  0.00    +0.007 A 
ATOM      4  C   UNL     1       3.769  -3.812   3.782  0.00  0.00    -0.022 A 
ATOM      5  C   UNL     1       3.914  -4.846   2.876  0.00  0.00    +0.007 A 
ATOM      6  C   UNL     1       3.097  -4.912   1.764  0.00  0.00    +0.025 A 
ENDROOT
BRANCH   4   7
ATOM      7  C   UNL     1       4.659  -3.746   4.997  0.00  0.00    +0.145 C 
ATOM      8  C   UNL     1       6.004  -3.181   4.611  0.00  0.00    +0.082 C 
ATOM      9  C   UNL     1       7.016  -4.031   4.280  0.00  0.00    +0.053 C 
ATOM     10  N   UNL     1       6.851  -5.350   4.343  0.00  0.00    -0.230 NA
ATOM     11  C   UNL     1       5.814  -5.891   4.963  0.00  0.00    +0.157 C 
ATOM     12  N   UNL     1       4.856  -5.103   5.540  0.00  0.00    -0.298 N 
ATOM     13  C   UNL     1       4.048  -5.524   6.677  0.00  0.00    +0.109 C 
ATOM     14  C   UNL     1       3.510  -6.939   6.522  0.00  0.00    +0.030 C 
ATOM     15  C   UNL     1       4.680  -7.933   6.530  0.00  0.00    +0.079 C 
ATOM     16  S   UNL     1       5.665  -7.651   5.011  0.00  0.00    -0.090 S 
ATOM     17  C   UNL     1       8.342  -3.470   3.835  0.00  0.00    +0.066 C 
BRANCH   8  18
ATOM     18  C   UNL     1       6.210  -1.792   4.593  0.00  0.00    +0.339 C 
ATOM     19  O   UNL     1       7.322  -1.344   4.375  0.00  0.00    -0.245 OA
BRANCH  18  20
ATOM     20  O   UNL     1       5.176  -0.952   4.819  0.00  0.00    -0.459 OA
BRANCH  20  21
ATOM     21  C   UNL     1       5.459   0.448   4.786  0.00  0.00    +0.260 C 
BRANCH  21  22
ATOM     22  C   UNL     1       4.175   1.234   5.061  0.00  0.00    +0.200 C 
BRANCH  22  23
ATOM     23  O   UNL     1       3.731   0.969   6.394  0.00  0.00    -0.380 OA
ATOM     24  C   UNL     1       2.532   1.658   6.755  0.00  0.00    +0.194 C 
ENDBRANCH  22  23
ENDBRANCH  21  22
ENDBRANCH  20  21
ENDBRANCH  18  20
ENDBRANCH   8  18
ENDBRANCH   4   7
BRANCH   1  25
ATOM     25  N   UNL     1       1.313  -3.990   0.425  0.00  0.00    -0.216 N 
ATOM     26  H   UNL     1       1.699  -4.155  -0.450  0.00  0.00    +0.174 HD
BRANCH  25  27
ATOM     27  S   UNL     1      -0.322  -3.781   0.583  0.00  0.00    +0.072 S 
ATOM     28  O   UNL     1      -0.882  -3.962  -0.711  0.00  0.00    -0.150 OA
ATOM     29  O   UNL     1      -0.508  -2.589   1.334  0.00  0.00    -0.150 OA
BRANCH  27  34
ATOM     30  C   UNL     1      -2.380  -8.308   4.000  0.00  0.00    +0.044 C 
ATOM     31  C   UNL     1      -1.866  -7.178   3.147  0.00  0.00    -0.050 A 
ATOM     32  C   UNL     1      -1.368  -6.034   3.742  0.00  0.00    +0.005 A 
ATOM     33  C   UNL     1      -0.896  -4.997   2.959  0.00  0.00    +0.029 A 
ATOM     34  C   UNL     1      -0.922  -5.104   1.581  0.00  0.00    +0.109 A 
ATOM     35  C   UNL     1      -1.419  -6.248   0.986  0.00  0.00    +0.029 A 
ATOM     36  C   UNL     1      -1.887  -7.287   1.769  0.00  0.00    +0.005 A 
ENDBRANCH  27  34
ENDBRANCH  25  27
ENDBRANCH   1  25
TORSDOF 9
