REMARK  Name = ZINC35191364
REMARK  9 active torsions:
REMARK  status: ('A' for Active; 'I' for Inactive)
REMARK    1  A    between atoms: C_1  and  C_2
REMARK    2  A    between atoms: C_2  and  O_3
REMARK    3  A    between atoms: O_3  and  C_4
REMARK    4  A    between atoms: C_6  and  C_14
REMARK    5  A    between atoms: C_8  and  N_11
REMARK    6  A    between atoms: C_9  and  O_10
REMARK    7  A    between atoms: C_17  and  C_28
REMARK    8  A    between atoms: C_23  and  N_27
REMARK    9  A    between atoms: C_24  and  C_25
REMARK                            x       y       z     vdW  Elec       q    Type
REMARK                         _______ _______ _______ _____ _____    ______ ____
ROOT
ATOM      1  C   UNL     1      -0.299  -4.998   0.585  0.00  0.00    +0.102 C 
ATOM      2  C   UNL     1       0.804  -5.936   1.003  0.00  0.00    +0.054 A 
ATOM      3  C   UNL     1       1.935  -5.678   1.783  0.00  0.00    +0.100 A 
ATOM      4  N   UNL     1       2.621  -6.801   1.887  0.00  0.00    -0.171 NA
ATOM      5  N   UNL     1       1.941  -7.801   1.176  0.00  0.00    -0.246 N 
ATOM      6  H   UNL     1       2.220  -8.726   1.084  0.00  0.00    +0.192 HD
ATOM      7  C   UNL     1       0.830  -7.252   0.642  0.00  0.00    +0.223 A 
ATOM      8  O   UNL     1      -0.136  -7.822  -0.120  0.00  0.00    -0.423 OA
ATOM      9  C   UNL     1      -1.281  -7.130  -0.297  0.00  0.00    +0.200 C 
ATOM     10  C   UNL     1      -1.426  -5.822   0.011  0.00  0.00    +0.098 C 
ENDROOT
BRANCH   3  11
ATOM     11  C   UNL     1       2.301  -4.372   2.387  0.00  0.00    +0.004 A 
ATOM     12  C   UNL     1       1.323  -3.584   2.990  0.00  0.00    +0.011 A 
ATOM     13  C   UNL     1       1.667  -2.370   3.551  0.00  0.00    +0.022 A 
ATOM     14  C   UNL     1       2.981  -1.936   3.514  0.00  0.00    +0.059 A 
ATOM     15  C   UNL     1       3.957  -2.716   2.916  0.00  0.00    +0.060 A 
ATOM     16  C   UNL     1       3.623  -3.934   2.357  0.00  0.00    +0.031 A 
ATOM     17 CL   UNL     1       5.602  -2.165   2.873  0.00  0.00    -0.082 Cl
ATOM     18 CL   UNL     1       3.407  -0.408   4.221  0.00  0.00    -0.082 Cl
ENDBRANCH   3  11
BRANCH   1  21
ATOM     19  C   UNL     1       0.580  -1.798  -1.221  0.00  0.00    +0.164 A 
ATOM     20  C   UNL     1       0.107  -2.679  -0.261  0.00  0.00    +0.054 A 
ATOM     21  C   UNL     1       0.215  -4.043  -0.461  0.00  0.00    -0.029 A 
ATOM     22  C   UNL     1       0.795  -4.531  -1.617  0.00  0.00    +0.041 A 
ATOM     23  C   UNL     1       1.268  -3.658  -2.579  0.00  0.00    +0.171 A 
ATOM     24  C   UNL     1       1.158  -2.290  -2.387  0.00  0.00    +0.189 A 
BRANCH  23  25
ATOM     25  N   UNL     1       1.888  -4.185  -3.815  0.00  0.00    +0.060 N 
ATOM     26  O   UNL     1       1.980  -5.379  -3.984  0.00  0.00    -0.126 OA
ATOM     27  O   UNL     1       2.303  -3.422  -4.656  0.00  0.00    -0.126 OA
ENDBRANCH  23  25
BRANCH  24  28
ATOM     28  O   UNL     1       1.619  -1.430  -3.335  0.00  0.00    -0.502 OA
ATOM     29  H   UNL     1       2.544  -1.176  -3.219  0.00  0.00    +0.292 HD
ENDBRANCH  24  28
BRANCH  19  30
ATOM     30  O   UNL     1       0.474  -0.457  -1.026  0.00  0.00    -0.488 OA
BRANCH  30  32
ATOM     31  C   UNL     1      -0.161   1.505   0.234  0.00  0.00    +0.048 C 
ATOM     32  C   UNL     1      -0.130  -0.024   0.194  0.00  0.00    +0.226 C 
ENDBRANCH  30  32
ENDBRANCH  19  30
ENDBRANCH   1  21
BRANCH   9  33
ATOM     33  N   UNL     1      -2.363  -7.795  -0.820  0.00  0.00    -0.328 N 
ATOM     34  H   UNL     1      -2.290  -8.734  -1.050  0.00  0.00    +0.145 HD
ATOM     35  H   UNL     1      -3.200  -7.324  -0.959  0.00  0.00    +0.145 HD
ENDBRANCH   9  33
BRANCH  10  36
ATOM     36  C   UNL     1      -2.692  -5.194  -0.216  0.00  0.00    +0.101 C 
ATOM     37  N   UNL     1      -3.698  -4.696  -0.397  0.00  0.00    -0.191 NA
ENDBRANCH  10  36
TORSDOF 8
