REMARK  Name = ZINC42577344
REMARK  4 active torsions:
REMARK  status: ('A' for Active; 'I' for Inactive)
REMARK    1  A    between atoms: C_4  and  N_8
REMARK    2  A    between atoms: N_8  and  S_9
REMARK    3  A    between atoms: S_9  and  C_12
REMARK    4  A    between atoms: C_14  and  N_17
REMARK                            x       y       z     vdW  Elec       q    Type
REMARK                         _______ _______ _______ _____ _____    ______ ____
ROOT
ATOM      1  S   UNL     1       3.645  -2.306  -0.046  0.00  0.00    +0.098 S 
ATOM      2  O   UNL     1       3.113  -2.727   1.202  0.00  0.00    -0.148 OA
ATOM      3  O   UNL     1       3.088  -2.714  -1.288  0.00  0.00    -0.148 OA
ENDROOT
BRANCH   1   4
ATOM      4  C   UNL     1       5.336  -2.802  -0.066  0.00  0.00    +0.149 A 
ATOM      5  C   UNL     1       6.164  -3.053   0.978  0.00  0.00    +0.059 A 
ATOM      6  C   UNL     1       7.471  -3.434   0.721  0.00  0.00    +0.034 A 
ATOM      7  C   UNL     1       7.881  -3.544  -0.570  0.00  0.00    +0.069 A 
ATOM      8  S   UNL     1       6.399  -3.111  -1.467  0.00  0.00    -0.075 S 
BRANCH   6   9
ATOM      9  N   UNL     1       8.359  -3.702   1.780  0.00  0.00    -0.358 N 
ATOM     10  H   UNL     1       8.058  -3.621   2.698  0.00  0.00    +0.142 HD
ATOM     11  H   UNL     1       9.273  -3.969   1.591  0.00  0.00    +0.142 HD
ENDBRANCH   6   9
ENDBRANCH   1   4
BRANCH   1  12
ATOM     12  N   UNL     1       3.621  -0.650  -0.037  0.00  0.00    -0.096 NA
BRANCH  12  16
ATOM     13  C   UNL     1      -0.017   1.379   0.010  0.00  0.00    +0.016 A 
ATOM     14  C   UNL     1       1.170   2.090   0.002  0.00  0.00    +0.018 A 
ATOM     15  C   UNL     1       2.378   1.420  -0.013  0.00  0.00    +0.042 A 
ATOM     16  C   UNL     1       2.400   0.030  -0.021  0.00  0.00    +0.089 A 
ATOM     17  C   UNL     1       1.208  -0.680  -0.013  0.00  0.00    +0.043 A 
ATOM     18  C   UNL     1       0.002  -0.004   0.002  0.00  0.00    +0.020 A 
ATOM     19 BR   UNL     1      -1.623  -0.971   0.013  0.00  0.00    -0.050 Br
ATOM     20 BR   UNL     1       3.999   2.393  -0.025  0.00  0.00    -0.048 Br
ENDBRANCH  12  16
ENDBRANCH   1  12
TORSDOF 4
