REMARK  Name = ZINC21229481
REMARK  11 active torsions:
REMARK  status: ('A' for Active; 'I' for Inactive)
REMARK    1  A    between atoms: C_1  and  C_2
REMARK    2  A    between atoms: N_13  and  C_32
REMARK    3  A    between atoms: C_14  and  S_16
REMARK    4  A    between atoms: S_16  and  C_17
REMARK    5  A    between atoms: C_17  and  C_19
REMARK    6  A    between atoms: C_17  and  C_20
REMARK    7  A    between atoms: N_22  and  C_23
REMARK    8  A    between atoms: C_26  and  C_29
REMARK    9  A    between atoms: C_32  and  C_33
REMARK   10  A    between atoms: C_33  and  C_34
REMARK   11  A    between atoms: C_33  and  C_35
REMARK                            x       y       z     vdW  Elec       q    Type
REMARK                         _______ _______ _______ _____ _____    ______ ____
ROOT
ATOM      1  C   UNL     1       0.738  10.166  -0.059  0.00  0.00    +0.008 C 
ATOM      2  C   UNL     1       0.496   8.703  -0.433  0.00  0.00    -0.009 C 
ATOM      3  C   UNL     1      -0.799   8.210   0.218  0.00  0.00    +0.008 C 
ATOM      4  C   UNL     1      -1.176   6.840  -0.346  0.00  0.00    +0.037 C 
ATOM      5  C   UNL     1       0.024   5.906  -0.214  0.00  0.00    -0.023 A 
ATOM      6  C   UNL     1       1.265   6.400  -0.028  0.00  0.00    -0.004 A 
ATOM      7  S   UNL     1       2.318   4.978   0.068  0.00  0.00    -0.073 S 
ATOM      8  C   UNL     1       1.084   3.719  -0.142  0.00  0.00    +0.117 A 
ATOM      9  C   UNL     1      -0.108   4.449  -0.281  0.00  0.00    +0.076 A 
ATOM     10  C   UNL     1      -1.296   3.675  -0.469  0.00  0.00    +0.263 A 
ATOM     11  O   UNL     1      -2.377   4.223  -0.599  0.00  0.00    -0.267 OA
ATOM     12  N   UNL     1      -1.203   2.333  -0.506  0.00  0.00    -0.287 N 
ATOM     13  C   UNL     1      -0.002   1.702  -0.357  0.00  0.00    +0.173 A 
ATOM     14  N   UNL     1       1.108   2.392  -0.183  0.00  0.00    -0.216 NA
ATOM     15  C   UNL     1       1.661   7.842   0.074  0.00  0.00    +0.046 C 
ENDROOT
BRANCH  13  16
ATOM     16  S   UNL     1       0.068  -0.058  -0.406  0.00  0.00    -0.075 S 
BRANCH  16  17
ATOM     17  C   UNL     1       1.845  -0.309  -0.173  0.00  0.00    +0.137 C 
ATOM     18  C   UNL     1       2.603   0.267  -1.370  0.00  0.00    +0.029 C 
BRANCH  17  19
ATOM     19  C   UNL     1       2.133  -1.784  -0.057  0.00  0.00    +0.230 C 
ATOM     20  O   UNL     1       1.377  -2.590  -0.556  0.00  0.00    -0.274 OA
ATOM     21  N   UNL     1       3.232  -2.207   0.599  0.00  0.00    -0.285 N 
ATOM     22  H   UNL     1       3.962  -1.476   0.976  0.00  0.00    +0.155 HD
BRANCH  21  23
ATOM     23  C   UNL     1       3.441  -3.570   0.801  0.00  0.00    +0.033 A 
ATOM     24  C   UNL     1       2.356  -4.417   1.001  0.00  0.00    +0.024 A 
ATOM     25  C   UNL     1       2.559  -5.765   1.196  0.00  0.00    +0.015 A 
ATOM     26  C   UNL     1       3.858  -6.280   1.204  0.00  0.00    +0.037 A 
ATOM     27  C   UNL     1       4.947  -5.425   1.009  0.00  0.00    +0.015 A 
ATOM     28  C   UNL     1       4.736  -4.080   0.809  0.00  0.00    +0.024 A 
BRANCH  26  29
ATOM     29  C   UNL     1       4.080  -7.723   1.418  0.00  0.00    +0.242 C 
ATOM     30  O   UNL     1       5.211  -8.170   1.425  0.00  0.00    -0.270 OA
ATOM     31  N   UNL     1       3.030  -8.546   1.606  0.00  0.00    -0.325 N 
ATOM     32  H   UNL     1       3.195  -9.622   1.766  0.00  0.00    +0.145 HD
ATOM     33  H   UNL     1       2.007  -8.142   1.601  0.00  0.00    +0.145 HD
ENDBRANCH  26  29
ENDBRANCH  21  23
ENDBRANCH  17  19
ENDBRANCH  16  17
ENDBRANCH  13  16
BRANCH  12  34
ATOM     34  C   UNL     1      -2.415   1.533  -0.703  0.00  0.00    +0.130 C 
BRANCH  34  35
ATOM     35  C   UNL     1      -3.038   1.208   0.656  0.00  0.00    +0.003 C 
ATOM     36  C   UNL     1      -4.368   0.481   0.446  0.00  0.00    +0.009 C 
ATOM     37  C   UNL     1      -2.087   0.311   1.451  0.00  0.00    +0.009 C 
ENDBRANCH  34  35
ENDBRANCH  12  34
TORSDOF 7
