REMARK  Name = ZINC13959333
REMARK  6 active torsions:
REMARK  status: ('A' for Active; 'I' for Inactive)
REMARK    1  A    between atoms: C_1  and  C_2
REMARK    2  A    between atoms: C_5  and  C_35
REMARK    3  A    between atoms: C_9  and  C_12
REMARK    4  A    between atoms: N_14  and  N_15
REMARK    5  A    between atoms: N_15  and  C_16
REMARK    6  A    between atoms: N_21  and  C_24
REMARK                            x       y       z     vdW  Elec       q    Type
REMARK                         _______ _______ _______ _____ _____    ______ ____
ROOT
ATOM      1  C   UNL     1       1.809  -2.239   3.567  0.00  0.00    +0.262 C 
ATOM      2  O   UNL     1       1.522  -1.115   3.935  0.00  0.00    -0.269 OA
ATOM      3  N   UNL     1       2.290  -3.135   4.451  0.00  0.00    -0.246 N 
ATOM      4  H   UNL     1       2.519  -4.031   4.158  0.00  0.00    +0.169 HD
ENDROOT
BRANCH   1  11
ATOM      5  C   UNL     1      -0.019   1.526   0.010  0.00  0.00    +0.028 C 
ATOM      6  C   UNL     1       0.002  -0.004   0.002  0.00  0.00    +0.071 C 
ATOM      7  C   UNL     1       0.728  -0.502  -1.253  0.00  0.00    +0.058 C 
ATOM      8  C   UNL     1       0.704  -2.035  -1.293  0.00  0.00    +0.214 C 
ATOM      9  N   UNL     1       1.147  -2.550   0.007  0.00  0.00    -0.238 N 
ATOM     10  C   UNL     1       1.150  -1.814   1.144  0.00  0.00    +0.130 A 
ATOM     11  C   UNL     1       1.630  -2.618   2.161  0.00  0.00    +0.097 A 
ATOM     12  C   UNL     1       1.917  -3.880   1.582  0.00  0.00    +0.149 A 
ATOM     13  N   UNL     1       1.625  -3.823   0.311  0.00  0.00    -0.177 NA
ATOM     14  N   UNL     1       0.724  -0.497   1.192  0.00  0.00    -0.326 N 
ATOM     15  H   UNL     1       0.893   0.070   1.960  0.00  0.00    +0.148 HD
BRANCH   8  16
ATOM     16  C   UNL     1       1.643  -2.534  -2.392  0.00  0.00    +0.412 C 
ATOM     17  F   UNL     1       2.945  -2.096  -2.127  0.00  0.00    -0.168 F 
ATOM     18  F   UNL     1       1.619  -3.932  -2.426  0.00  0.00    -0.168 F 
ATOM     19  F   UNL     1       1.224  -2.030  -3.628  0.00  0.00    -0.168 F 
ENDBRANCH   8  16
ENDBRANCH   1  11
BRANCH   3  20
ATOM     20  N   UNL     1       2.456  -2.782   5.760  0.00  0.00    -0.228 NA
ATOM     21  H   UNL     1       3.048  -1.969   5.843  0.00  0.00    +0.145 HD
BRANCH  20  22
ATOM     22  C   UNL     1       2.990  -3.904   6.544  0.00  0.00    +0.168 C 
ATOM     23  C   UNL     1       2.547  -3.795   8.018  0.00  0.00    +0.126 C 
ATOM     24  C   UNL     1       3.853  -3.671   8.772  0.00  0.00    +0.228 C 
ATOM     25  O   UNL     1       3.961  -3.562   9.975  0.00  0.00    -0.275 OA
ATOM     26  N   UNL     1       4.869  -3.702   7.902  0.00  0.00    -0.208 N 
ATOM     27  C   UNL     1       4.499  -3.832   6.618  0.00  0.00    +0.245 C 
ATOM     28  O   UNL     1       5.252  -3.883   5.669  0.00  0.00    -0.273 OA
BRANCH  26  29
ATOM     29  C   UNL     1       6.208  -3.607   8.297  0.00  0.00    +0.052 A 
ATOM     30  C   UNL     1       6.928  -4.745   8.591  0.00  0.00    +0.024 A 
ATOM     31  C   UNL     1       8.260  -4.663   8.984  0.00  0.00    +0.002 A 
ATOM     32  C   UNL     1       8.888  -3.459   9.090  0.00  0.00    +0.008 A 
ATOM     33  C   UNL     1       8.190  -2.276   8.800  0.00  0.00    -0.016 A 
ATOM     34  C   UNL     1       6.835  -2.347   8.393  0.00  0.00    +0.004 A 
ATOM     35  C   UNL     1       6.139  -1.164   8.098  0.00  0.00    +0.010 A 
ATOM     36  C   UNL     1       6.776   0.035   8.201  0.00  0.00    +0.001 A 
ATOM     37  C   UNL     1       8.111   0.107   8.597  0.00  0.00    +0.001 A 
ATOM     38  C   UNL     1       8.812  -1.019   8.901  0.00  0.00    +0.008 A 
ENDBRANCH  26  29
ENDBRANCH  20  22
ENDBRANCH   3  20
TORSDOF 5
