REMARK  Name = ZINC19868107
REMARK  3 active torsions:
REMARK  status: ('A' for Active; 'I' for Inactive)
REMARK    1  A    between atoms: C_1  and  C_2
REMARK    2  A    between atoms: N_7  and  C_9
REMARK    3  A    between atoms: C_14  and  N_15
REMARK                            x       y       z     vdW  Elec       q    Type
REMARK                         _______ _______ _______ _____ _____    ______ ____
ROOT
ATOM      1  C   UNL     1      -1.295  -0.524  -0.122  0.00  0.00    +0.054 A 
ATOM      2  C   UNL     1      -2.229  -0.303   0.879  0.00  0.00    +0.074 A 
ATOM      3  C   UNL     1      -3.514  -0.813   0.755  0.00  0.00    +0.164 A 
ATOM      4  C   UNL     1      -3.863  -1.552  -0.368  0.00  0.00    +0.164 A 
ATOM      5  C   UNL     1      -2.927  -1.779  -1.367  0.00  0.00    +0.074 A 
ATOM      6  C   UNL     1      -1.644  -1.267  -1.247  0.00  0.00    +0.050 A 
ATOM      7  O   UNL     1      -5.120  -2.059  -0.505  0.00  0.00    -0.485 OA
ATOM      8  C   UNL     1      -5.919  -2.130   0.681  0.00  0.00    +0.270 C 
ATOM      9  C   UNL     1      -5.797  -0.792   1.423  0.00  0.00    +0.270 C 
ATOM     10  O   UNL     1      -4.419  -0.584   1.748  0.00  0.00    -0.485 OA
ENDROOT
BRANCH   1  16
ATOM     11  C   UNL     1       2.813  -0.595   2.481  0.00  0.00    +0.009 C 
ATOM     12  C   UNL     1       2.125  -0.061   1.224  0.00  0.00    +0.003 C 
ATOM     13  C   UNL     1       2.160   1.470   1.231  0.00  0.00    +0.006 C 
ATOM     14  C   UNL     1       1.417   1.995  -0.001  0.00  0.00    +0.019 C 
ATOM     15  C   UNL     1      -0.018   1.464   0.010  0.00  0.00    +0.105 C 
ATOM     16  N   UNL     1       0.002  -0.004   0.002  0.00  0.00    -0.328 N 
ATOM     17  C   UNL     1       0.669  -0.533   1.199  0.00  0.00    +0.108 C 
ENDBRANCH   1  16
BRANCH   6  18
ATOM     18  N   UNL     1      -0.699  -1.497  -2.258  0.00  0.00    -0.356 N 
ATOM     19  H   UNL     1      -0.976  -2.084  -3.147  0.00  0.00    +0.142 HD
ATOM     20  H   UNL     1       0.318  -1.091  -2.162  0.00  0.00    +0.142 HD
ENDBRANCH   6  18
TORSDOF 2
