REMARK  Name = ZINC13134493
REMARK  13 active torsions:
REMARK  status: ('A' for Active; 'I' for Inactive)
REMARK    1  A    between atoms: C_1  and  C_2
REMARK    2  A    between atoms: C_2  and  O_3
REMARK    3  A    between atoms: O_3  and  C_4
REMARK    4  A    between atoms: C_4  and  C_6
REMARK    5  A    between atoms: C_10  and  N_11
REMARK    6  A    between atoms: C_12  and  C_14
REMARK    7  A    between atoms: C_14  and  O_15
REMARK    8  A    between atoms: O_15  and  C_16
REMARK    9  A    between atoms: C_16  and  C_18
REMARK   10  A    between atoms: C_18  and  C_19
REMARK   11  A    between atoms: C_20  and  C_25
REMARK   12  A    between atoms: C_28  and  C_31
REMARK   13  A    between atoms: C_33  and  C_37
REMARK                            x       y       z     vdW  Elec       q    Type
REMARK                         _______ _______ _______ _____ _____    ______ ____
ROOT
ATOM      1  C   UNL     1      -1.811  -1.000  -4.924  0.00  0.00    +0.328 C 
ENDROOT
BRANCH   1   3
ATOM      2  N   UNL     1      -1.492  -0.852  -2.475  0.00  0.00    -0.277 N 
ATOM      3  C   UNL     1      -2.243  -1.282  -3.508  0.00  0.00    +0.255 C 
ATOM      4  O   UNL     1      -3.268  -1.896  -3.298  0.00  0.00    -0.272 OA
ATOM      5  H   UNL     1      -0.672  -0.360  -2.643  0.00  0.00    +0.155 HD
BRANCH   2  10
ATOM      6  C   UNL     1      -1.256  -0.753   0.010  0.00  0.00    +0.091 A 
ATOM      7  C   UNL     1      -1.892  -1.146   1.257  0.00  0.00    -0.021 A 
ATOM      8  C   UNL     1      -3.047  -1.833   1.122  0.00  0.00    -0.004 A 
ATOM      9  S   UNL     1      -3.296  -1.962  -0.626  0.00  0.00    -0.077 S 
ATOM     10  C   UNL     1      -1.889  -1.111  -1.173  0.00  0.00    +0.086 A 
ATOM     11  C   UNL     1      -3.916  -2.363   2.220  0.00  0.00    +0.046 C 
ATOM     12  C   UNL     1      -3.111  -2.339   3.528  0.00  0.00    -0.009 C 
ATOM     13  C   UNL     1      -2.443  -0.969   3.671  0.00  0.00    +0.008 C 
ATOM     14  C   UNL     1      -1.327  -0.824   2.634  0.00  0.00    +0.037 C 
ATOM     15  C   UNL     1      -4.049  -2.582   4.712  0.00  0.00    +0.008 C 
BRANCH   6  16
ATOM     16  C   UNL     1       0.002  -0.004   0.002  0.00  0.00    +0.342 C 
ATOM     17  O   UNL     1       1.064  -0.598  -0.011  0.00  0.00    -0.245 OA
BRANCH  16  18
ATOM     18  O   UNL     1      -0.016   1.345   0.009  0.00  0.00    -0.461 OA
BRANCH  18  20
ATOM     19  C   UNL     1       1.047   3.535   0.011  0.00  0.00    +0.048 C 
ATOM     20  C   UNL     1       1.268   2.021   0.001  0.00  0.00    +0.229 C 
ENDBRANCH  18  20
ENDBRANCH  16  18
ENDBRANCH   6  16
ENDBRANCH   2  10
ENDBRANCH   1   3
BRANCH   1  21
ATOM     21  O   UNL     1      -2.780  -1.562  -5.847  0.00  0.00    -0.455 OA
BRANCH  21  22
ATOM     22  C   UNL     1      -2.541  -1.397  -7.157  0.00  0.00    +0.312 C 
ATOM     23  O   UNL     1      -1.554  -0.803  -7.521  0.00  0.00    -0.250 OA
BRANCH  22  24
ATOM     24  C   UNL     1      -3.503  -1.953  -8.175  0.00  0.00    +0.165 C 
BRANCH  24  25
ATOM     25  C   UNL     1      -3.007  -1.634  -9.562  0.00  0.00    +0.030 A 
ATOM     26  C   UNL     1      -2.182  -2.354 -10.379  0.00  0.00    +0.084 A 
ATOM     27  N   UNL     1      -1.874  -1.872 -11.581  0.00  0.00    -0.225 NA
ATOM     28  C   UNL     1      -2.352  -0.713 -11.995  0.00  0.00    +0.156 A 
ATOM     29  S   UNL     1      -3.343  -0.214 -10.594  0.00  0.00    -0.056 S 
ATOM     30  N   UNL     1      -2.144  -0.059 -13.199  0.00  0.00    -0.337 N 
ATOM     31  H   UNL     1      -1.576  -0.458 -13.876  0.00  0.00    +0.144 HD
ATOM     32  H   UNL     1      -2.567   0.798 -13.364  0.00  0.00    +0.144 HD
BRANCH  26  33
ATOM     33  C   UNL     1      -1.635  -3.657  -9.931  0.00  0.00    +0.001 A 
ATOM     34  C   UNL     1      -1.300  -3.853  -8.592  0.00  0.00    +0.010 A 
ATOM     35  C   UNL     1      -0.797  -5.070  -8.181  0.00  0.00    +0.004 A 
ATOM     36  C   UNL     1      -0.613  -6.091  -9.096  0.00  0.00    -0.050 A 
ATOM     37  C   UNL     1      -0.938  -5.901 -10.427  0.00  0.00    +0.004 A 
ATOM     38  C   UNL     1      -1.447  -4.689 -10.849  0.00  0.00    +0.010 A 
ATOM     39  C   UNL     1      -0.057  -7.416  -8.641  0.00  0.00    +0.044 C 
ENDBRANCH  26  33
ENDBRANCH  24  25
ENDBRANCH  22  24
ENDBRANCH  21  22
ENDBRANCH   1  21
TORSDOF 10
