REMARK  Name = ZINC41585875
REMARK  4 active torsions:
REMARK  status: ('A' for Active; 'I' for Inactive)
REMARK    1  A    between atoms: N_10  and  C_13
REMARK    2  A    between atoms: C_13  and  C_14
REMARK    3  A    between atoms: C_15  and  O_33
REMARK    4  A    between atoms: C_22  and  C_23
REMARK                            x       y       z     vdW  Elec       q    Type
REMARK                         _______ _______ _______ _____ _____    ______ ____
ROOT
ATOM      1  C   UNL     1       0.973  -8.120   2.771  0.00  0.00    +0.051 A 
ATOM      2  C   UNL     1      -0.188  -8.053   3.526  0.00  0.00    +0.125 A 
ATOM      3  C   UNL     1      -1.379  -8.588   3.042  0.00  0.00    +0.046 A 
ATOM      4  C   UNL     1      -1.414  -9.187   1.815  0.00  0.00    +0.019 A 
ATOM      5  C   UNL     1      -0.253  -9.261   1.044  0.00  0.00    +0.068 A 
ATOM      6  C   UNL     1       0.953  -8.720   1.519  0.00  0.00    +0.147 A 
ATOM      7  O   UNL     1       1.927  -8.905   0.602  0.00  0.00    -0.451 OA
ATOM      8  C   UNL     1       1.468  -9.545  -0.499  0.00  0.00    +0.176 C 
ATOM      9  C   UNL     1       2.196  -9.878  -1.595  0.00  0.00    +0.059 C 
ATOM     10  C   UNL     1       0.040  -9.826  -0.286  0.00  0.00    +0.231 C 
ATOM     11  O   UNL     1      -0.731 -10.387  -1.044  0.00  0.00    -0.283 OA
ENDROOT
BRANCH   9  12
ATOM     12  C   UNL     1       3.580  -9.406  -1.728  0.00  0.00    -0.003 A 
ATOM     13  C   UNL     1       4.064  -8.397  -0.887  0.00  0.00    +0.011 A 
ATOM     14  C   UNL     1       5.364  -7.959  -1.019  0.00  0.00    +0.020 A 
ATOM     15  C   UNL     1       6.193  -8.515  -1.980  0.00  0.00    +0.042 A 
ATOM     16  C   UNL     1       5.723  -9.514  -2.817  0.00  0.00    +0.040 A 
ATOM     17  C   UNL     1       4.426  -9.968  -2.694  0.00  0.00    +0.050 A 
ATOM     18 CL   UNL     1       3.840 -11.225  -3.738  0.00  0.00    -0.083 Cl
ATOM     19 CL   UNL     1       7.829  -7.956  -2.138  0.00  0.00    -0.083 Cl
ENDBRANCH   9  12
BRANCH   2  20
ATOM     20  O   UNL     1      -0.163  -7.460   4.747  0.00  0.00    -0.506 OA
ATOM     21  H   UNL     1      -0.354  -6.512   4.728  0.00  0.00    +0.292 HD
ENDBRANCH   2  20
BRANCH   1  22
ATOM     22  C   UNL     1       2.254  -7.536   3.307  0.00  0.00    +0.127 C 
BRANCH  22  32
ATOM     23  C   UNL     1       4.412  -0.343   4.242  0.00  0.00    +0.005 A 
ATOM     24  C   UNL     1       3.326   0.317   4.803  0.00  0.00    +0.018 A 
ATOM     25  C   UNL     1       2.081  -0.279   4.769  0.00  0.00    +0.084 A 
ATOM     26  N   UNL     1       1.913  -1.463   4.211  0.00  0.00    -0.350 N 
ATOM     27  C   UNL     1       2.922  -2.124   3.666  0.00  0.00    +0.099 A 
ATOM     28  C   UNL     1       4.204  -1.583   3.665  0.00  0.00    +0.042 A 
ATOM     29  N   UNL     1       2.699  -3.369   3.090  0.00  0.00    -0.314 N 
ATOM     30  C   UNL     1       3.820  -4.186   2.602  0.00  0.00    +0.122 C 
ATOM     31  C   UNL     1       3.693  -5.592   3.200  0.00  0.00    +0.103 C 
ATOM     32  N   UNL     1       2.358  -6.128   2.903  0.00  0.00    -0.295 NA
ATOM     33  C   UNL     1       1.307  -5.320   3.534  0.00  0.00    +0.103 C 
ATOM     34  C   UNL     1       1.336  -3.906   2.956  0.00  0.00    +0.122 C 
ATOM     35  H   UNL     1       1.027  -1.859   4.200  0.00  0.00    +0.166 HD
ENDBRANCH  22  32
ENDBRANCH   1  22
TORSDOF 4
