REMARK  Name = ZINC13064719
REMARK  11 active torsions:
REMARK  status: ('A' for Active; 'I' for Inactive)
REMARK    1  A    between atoms: C_1  and  C_2
REMARK    2  A    between atoms: C_2  and  C_3
REMARK    3  A    between atoms: C_3  and  C_5
REMARK    4  A    between atoms: C_3  and  N_66
REMARK    5  A    between atoms: N_9  and  C_10
REMARK    6  A    between atoms: C_10  and  C_11
REMARK    7  A    between atoms: C_16  and  C_17
REMARK    8  A    between atoms: C_16  and  N_66
REMARK    9  A    between atoms: C_21  and  C_30
REMARK   10  A    between atoms: C_22  and  C_29
REMARK   11  A    between atoms: C_31  and  N_66
REMARK                            x       y       z     vdW  Elec       q    Type
REMARK                         _______ _______ _______ _____ _____    ______ ____
ROOT
ATOM      1  N   UNL     1      -0.790   1.700   1.458  0.00  0.00    +0.391 N 
ATOM      2  H   UNL     1      -0.096   1.917   2.183  0.00  0.00    -0.080 HD
ENDROOT
BRANCH   1   3
ATOM      3  C   UNL     1      -0.132   0.946   0.371  0.00  0.00    -0.067 C 
ATOM      4  C   UNL     1       1.286   1.519   0.120  0.00  0.00    -0.015 C 
ATOM      5  C   UNL     1       2.030   0.321  -0.520  0.00  0.00    -0.002 C 
ATOM      6  C   UNL     1       1.496  -0.908   0.243  0.00  0.00    -0.002 C 
ATOM      7  C   UNL     1       0.122  -0.511   0.810  0.00  0.00    -0.015 C 
ENDBRANCH   1   3
BRANCH   1   8
ATOM      8  C   UNL     1      -1.869   0.885   2.057  0.00  0.00    +0.003 C 
BRANCH   8   9
ATOM      9  C   UNL     1      -3.022   0.748   1.097  0.00  0.00    +0.139 A 
ATOM     10  N   UNL     1      -3.561   1.704   0.379  0.00  0.00    -0.115 NA
ATOM     11  N   UNL     1      -4.518   1.191  -0.313  0.00  0.00    -0.023 NA
ATOM     12  N   UNL     1      -4.605  -0.068  -0.056  0.00  0.00    -0.044 NA
ATOM     13  N   UNL     1      -3.696  -0.380   0.805  0.00  0.00    -0.223 N 
BRANCH  13  14
ATOM     14  C   UNL     1      -3.446  -1.711   1.363  0.00  0.00    +0.221 C 
BRANCH  14  15
ATOM     15  C   UNL     1      -4.272  -1.897   2.610  0.00  0.00    +0.126 A 
ATOM     16  C   UNL     1      -5.521  -2.393   2.659  0.00  0.00    +0.046 A 
ATOM     17  C   UNL     1      -5.908  -2.392   4.019  0.00  0.00    +0.041 A 
ATOM     18  C   UNL     1      -4.876  -1.887   4.718  0.00  0.00    +0.195 A 
ATOM     19  O   UNL     1      -3.887  -1.589   3.859  0.00  0.00    -0.466 OA
ENDBRANCH  14  15
ENDBRANCH  13  14
ENDBRANCH   8   9
BRANCH   8  21
ATOM     20  C   UNL     1      -1.227   1.550   4.378  0.00  0.00    +0.002 C 
ATOM     21  C   UNL     1      -2.350   1.568   3.338  0.00  0.00    -0.011 C 
ENDBRANCH   8  21
ENDBRANCH   1   8
BRANCH   1  22
ATOM     22  C   UNL     1      -1.346   2.964   0.932  0.00  0.00    -0.036 C 
BRANCH  22  23
ATOM     23  C   UNL     1      -0.223   3.957   0.776  0.00  0.00    +0.001 A 
ATOM     24  C   UNL     1       0.266   4.235  -0.458  0.00  0.00    +0.017 A 
ATOM     25  C   UNL     1       1.353   5.208  -0.576  0.00  0.00    -0.001 A 
ATOM     26  C   UNL     1       1.894   5.541  -1.823  0.00  0.00    +0.013 A 
ATOM     27  C   UNL     1       2.911   6.450  -1.899  0.00  0.00    -0.047 A 
ATOM     28  C   UNL     1       3.413   7.046  -0.750  0.00  0.00    -0.046 A 
ATOM     29  C   UNL     1       2.896   6.733   0.489  0.00  0.00    +0.030 A 
ATOM     30  C   UNL     1       1.859   5.811   0.591  0.00  0.00    +0.049 A 
ATOM     31  N   UNL     1       1.322   5.480   1.817  0.00  0.00    -0.322 N 
ATOM     32  H   UNL     1       1.672   5.896   2.620  0.00  0.00    +0.169 HD
ATOM     33  C   UNL     1       0.320   4.589   1.915  0.00  0.00    +0.251 A 
ATOM     34  O   UNL     1      -0.131   4.321   3.015  0.00  0.00    -0.268 OA
ATOM     35  C   UNL     1       4.535   8.046  -0.858  0.00  0.00    +0.044 C 
ATOM     36  C   UNL     1       3.494   6.808  -3.241  0.00  0.00    +0.044 C 
ENDBRANCH  22  23
ENDBRANCH   1  22
TORSDOF 8
