REMARK  Name = ZINC20065711
REMARK  2 active torsions:
REMARK  status: ('A' for Active; 'I' for Inactive)
REMARK    1  A    between atoms: C_1  and  N_2
REMARK    2  A    between atoms: C_13  and  C_16
REMARK                            x       y       z     vdW  Elec       q    Type
REMARK                         _______ _______ _______ _____ _____    ______ ____
ROOT
ATOM      1  C   UNL     1       4.797   0.368   8.325  0.00  0.00    -0.096 C 
ATOM      2  N   UNL     1       4.498   0.122   6.908  0.00  0.00    +0.381 N 
ATOM      3  C   UNL     1       4.958  -1.211   6.496  0.00  0.00    -0.074 C 
ATOM      4  C   UNL     1       4.320  -1.598   5.159  0.00  0.00    +0.018 C 
ATOM      5  C   UNL     1       4.557  -0.461   4.171  0.00  0.00    -0.027 A 
ATOM      6  C   UNL     1       4.907   0.765   4.624  0.00  0.00    -0.021 A 
ATOM      7  S   UNL     1       5.083   1.757   3.166  0.00  0.00    -0.080 S 
ATOM      8  C   UNL     1       4.703   0.573   1.989  0.00  0.00    +0.080 A 
ATOM      9  C   UNL     1       4.436  -0.590   2.730  0.00  0.00    +0.068 A 
ATOM     10  C   UNL     1       4.063  -1.809   1.977  0.00  0.00    +0.248 C 
ATOM     11  O   UNL     1       3.928  -2.882   2.536  0.00  0.00    -0.270 OA
ATOM     12  N   UNL     1       3.879  -1.682   0.646  0.00  0.00    -0.289 N 
ATOM     13  C   UNL     1       3.791  -0.395  -0.036  0.00  0.00    +0.197 C 
ATOM     14  N   UNL     1       4.639   0.616   0.621  0.00  0.00    -0.316 N 
ATOM     15  C   UNL     1       5.096   1.166   6.053  0.00  0.00    -0.036 C 
ATOM     16  H   UNL     1       3.793  -2.616   0.071  0.00  0.00    +0.151 HD
ATOM     17  H   UNL     1       5.182   1.356   0.014  0.00  0.00    +0.149 HD
ATOM     18  H   UNL     1       3.406   0.159   6.786  0.00  0.00    -0.082 HD
ENDROOT
BRANCH  13  19
ATOM     19  C   UNL     1       2.360   0.076  -0.020  0.00  0.00    +0.028 A 
ATOM     20  C   UNL     1       1.220  -0.658  -0.013  0.00  0.00    +0.015 A 
ATOM     21  C   UNL     1       0.002  -0.004   0.002  0.00  0.00    +0.008 A 
ATOM     22  C   UNL     1      -0.016   1.351   0.009  0.00  0.00    +0.045 A 
ATOM     23  S   UNL     1       1.725   1.744  -0.005  0.00  0.00    -0.098 S 
ENDBRANCH  13  19
TORSDOF 1
