REMARK  Name = ZINC28286254
REMARK  7 active torsions:
REMARK  status: ('A' for Active; 'I' for Inactive)
REMARK    1  A    between atoms: C_1  and  C_2
REMARK    2  A    between atoms: C_5  and  C_8
REMARK    3  A    between atoms: C_8  and  C_21
REMARK    4  A    between atoms: N_11  and  C_14
REMARK    5  A    between atoms: C_14  and  C_15
REMARK    6  A    between atoms: C_21  and  N_22
REMARK    7  A    between atoms: C_23  and  C_25
REMARK                            x       y       z     vdW  Elec       q    Type
REMARK                         _______ _______ _______ _____ _____    ______ ____
ROOT
ATOM      1  C   UNL     1      -0.725   1.577   1.269  0.00  0.00    +0.008 C 
ATOM      2  C   UNL     1      -0.859   3.098   1.163  0.00  0.00    -0.006 C 
ATOM      3  C   UNL     1       0.538   3.727   1.145  0.00  0.00    -0.077 C 
ATOM      4  N   UNL     1       1.256   3.364   2.374  0.00  0.00    +0.382 N 
ATOM      5  C   UNL     1       1.437   1.910   2.473  0.00  0.00    -0.077 C 
ATOM      6  C   UNL     1       0.069   1.227   2.531  0.00  0.00    -0.006 C 
ATOM      7  H   UNL     1       0.642   3.685   3.228  0.00  0.00    -0.081 HD
ENDROOT
BRANCH   1  12
ATOM      8  C   UNL     1      -5.980  -0.808   1.570  0.00  0.00    +0.044 C 
ATOM      9  C   UNL     1      -4.609  -0.186   1.492  0.00  0.00    -0.050 A 
ATOM     10  C   UNL     1      -4.234   0.520   0.364  0.00  0.00    +0.003 A 
ATOM     11  C   UNL     1      -2.977   1.091   0.292  0.00  0.00    +0.004 A 
ATOM     12  C   UNL     1      -2.095   0.955   1.348  0.00  0.00    -0.040 A 
ATOM     13  C   UNL     1      -2.468   0.244   2.473  0.00  0.00    +0.004 A 
ATOM     14  C   UNL     1      -3.727  -0.322   2.547  0.00  0.00    +0.003 A 
ENDBRANCH   1  12
BRANCH   4  15
ATOM     15  C   UNL     1       2.547   4.061   2.455  0.00  0.00    -0.043 C 
BRANCH  15  16
ATOM     16  C   UNL     1       2.309   5.543   2.597  0.00  0.00    -0.064 A 
ATOM     17  C   UNL     1       2.217   6.339   1.471  0.00  0.00    +0.002 A 
ATOM     18  C   UNL     1       1.994   7.697   1.601  0.00  0.00    +0.000 A 
ATOM     19  C   UNL     1       1.873   8.261   2.857  0.00  0.00    +0.000 A 
ATOM     20  C   UNL     1       1.970   7.465   3.983  0.00  0.00    +0.000 A 
ATOM     21  C   UNL     1       2.188   6.106   3.853  0.00  0.00    +0.002 A 
ENDBRANCH  15  16
ENDBRANCH   4  15
BRANCH   1  22
ATOM     22  C   UNL     1       0.010   1.041   0.039  0.00  0.00    +0.115 C 
BRANCH  22  23
ATOM     23  N   UNL     1       0.088  -0.420   0.114  0.00  0.00    -0.311 N 
ATOM     24  C   UNL     1       0.609  -1.121  -0.912  0.00  0.00    +0.257 C 
ATOM     25  O   UNL     1       1.013  -0.542  -1.898  0.00  0.00    -0.272 OA
ATOM     26  H   UNL     1      -0.278  -0.945   1.009  0.00  0.00    +0.149 HD
BRANCH  24  27
ATOM     27  C   UNL     1       0.690  -2.624  -0.834  0.00  0.00    +0.296 C 
ATOM     28  C   UNL     1      -0.725  -3.218  -0.824  0.00  0.00    +0.283 C 
ATOM     29  O   UNL     1      -0.612  -4.644  -0.763  0.00  0.00    -0.484 OA
ATOM     30  C   UNL     1       0.283  -5.223  -1.609  0.00  0.00    +0.162 A 
ATOM     31  C   UNL     1       0.197  -6.583  -1.865  0.00  0.00    +0.049 A 
ATOM     32  C   UNL     1       1.100  -7.186  -2.720  0.00  0.00    +0.004 A 
ATOM     33  C   UNL     1       2.093  -6.435  -3.321  0.00  0.00    +0.004 A 
ATOM     34  C   UNL     1       2.185  -5.079  -3.071  0.00  0.00    +0.049 A 
ATOM     35  C   UNL     1       1.280  -4.467  -2.216  0.00  0.00    +0.163 A 
ATOM     36  O   UNL     1       1.380  -3.130  -1.982  0.00  0.00    -0.473 OA
ENDBRANCH  24  27
ENDBRANCH  22  23
ENDBRANCH   1  22
TORSDOF 6
