REMARK  Name = ZINC63775689
REMARK  9 active torsions:
REMARK  status: ('A' for Active; 'I' for Inactive)
REMARK    1  A    between atoms: C_1  and  C_2
REMARK    2  A    between atoms: C_2  and  C_3
REMARK    3  A    between atoms: C_7  and  C_31
REMARK    4  A    between atoms: C_8  and  N_9
REMARK    5  A    between atoms: C_10  and  C_12
REMARK    6  A    between atoms: C_12  and  N_13
REMARK    7  A    between atoms: C_16  and  C_21
REMARK    8  A    between atoms: C_21  and  C_22
REMARK    9  A    between atoms: C_31  and  C_32
REMARK                            x       y       z     vdW  Elec       q    Type
REMARK                         _______ _______ _______ _____ _____    ______ ____
ROOT
ATOM      1  N   UNL     1      -4.648   4.379  -2.741  0.00  0.00    -0.216 N 
ATOM      2  C   UNL     1      -3.720   5.016  -3.482  0.00  0.00    +0.244 C 
ATOM      3  O   UNL     1      -2.594   5.314  -3.146  0.00  0.00    -0.273 OA
ATOM      4  C   UNL     1      -4.376   5.281  -4.822  0.00  0.00    +0.165 C 
ATOM      5  N   UNL     1      -5.725   4.709  -4.667  0.00  0.00    -0.287 N 
ATOM      6  C   UNL     1      -5.787   4.202  -3.422  0.00  0.00    +0.310 C 
ATOM      7  O   UNL     1      -6.768   3.649  -2.966  0.00  0.00    -0.252 OA
ATOM      8  H   UNL     1      -6.430   4.698  -5.333  0.00  0.00    +0.151 HD
ENDROOT
BRANCH   1   9
ATOM      9  C   UNL     1      -4.435   3.929  -1.363  0.00  0.00    +0.214 C 
BRANCH   9  11
ATOM     10  N   UNL     1      -3.606   1.905  -0.209  0.00  0.00    -0.284 N 
ATOM     11  C   UNL     1      -3.882   2.528  -1.372  0.00  0.00    +0.235 C 
ATOM     12  O   UNL     1      -3.685   1.960  -2.425  0.00  0.00    -0.274 OA
ATOM     13  H   UNL     1      -3.842   2.324   0.634  0.00  0.00    +0.155 HD
BRANCH  10  19
ATOM     14  C   UNL     1      -1.638   0.545   0.122  0.00  0.00    -0.026 A 
ATOM     15  C   UNL     1      -1.024  -0.692   0.120  0.00  0.00    +0.005 A 
ATOM     16  C   UNL     1      -1.744  -1.821  -0.225  0.00  0.00    +0.001 A 
ATOM     17  C   UNL     1      -3.079  -1.716  -0.569  0.00  0.00    +0.005 A 
ATOM     18  C   UNL     1      -3.698  -0.482  -0.568  0.00  0.00    -0.026 A 
ATOM     19  C   UNL     1      -2.980   0.654  -0.216  0.00  0.00    +0.040 A 
BRANCH  14  21
ATOM     20  C   UNL     1      -1.053   2.073   1.986  0.00  0.00    +0.009 C 
ATOM     21  C   UNL     1      -0.853   1.776   0.498  0.00  0.00    +0.033 C 
ENDBRANCH  14  21
BRANCH  18  22
ATOM     22  C   UNL     1      -5.154  -0.368  -0.942  0.00  0.00    +0.033 C 
ATOM     23  C   UNL     1      -5.676  -1.737  -1.381  0.00  0.00    +0.009 C 
ENDBRANCH  18  22
ENDBRANCH  10  19
ENDBRANCH   9  11
ENDBRANCH   1   9
BRANCH   4  24
ATOM     24  C   UNL     1      -3.614   4.573  -5.944  0.00  0.00    +0.065 C 
BRANCH  24  25
ATOM     25  C   UNL     1      -4.213   4.952  -7.275  0.00  0.00    -0.039 C 
ATOM     26  C   UNL     1      -3.792   5.933  -8.106  0.00  0.00    -0.001 A 
ATOM     27  C   UNL     1      -2.695   6.904  -8.023  0.00  0.00    +0.010 A 
ATOM     28  C   UNL     1      -2.520   7.784  -9.034  0.00  0.00    +0.001 A 
ATOM     29  C   UNL     1      -3.358   7.792 -10.158  0.00  0.00    +0.002 A 
ATOM     30  C   UNL     1      -4.387   6.931 -10.306  0.00  0.00    +0.026 A 
ATOM     31  C   UNL     1      -4.663   5.962  -9.303  0.00  0.00    +0.043 A 
ATOM     32  N   UNL     1      -5.585   5.034  -9.215  0.00  0.00    -0.380 N 
ATOM     33  C   UNL     1      -5.400   4.308  -7.954  0.00  0.00    +0.144 C 
ATOM     34  H   UNL     1      -6.273   4.856  -9.876  0.00  0.00    +0.160 HD
ENDBRANCH  24  25
ENDBRANCH   4  24
TORSDOF 7
