REMARK  Name = ZINC40555758
REMARK  7 active torsions:
REMARK  status: ('A' for Active; 'I' for Inactive)
REMARK    1  A    between atoms: C_4  and  C_7
REMARK    2  A    between atoms: C_7  and  C_9
REMARK    3  A    between atoms: C_14  and  N_15
REMARK    4  A    between atoms: C_16  and  C_18
REMARK    5  A    between atoms: C_24  and  C_26
REMARK    6  A    between atoms: N_28  and  C_29
REMARK    7  A    between atoms: N_28  and  C_35
REMARK                            x       y       z     vdW  Elec       q    Type
REMARK                         _______ _______ _______ _____ _____    ______ ____
ROOT
ATOM      1  C   UNL     1       8.511  -1.926  -0.091  0.00  0.00    +0.091 C 
ATOM      2  C   UNL     1       8.557  -1.026   1.146  0.00  0.00    +0.040 C 
ATOM      3  C   UNL     1       9.844  -0.254   1.175  0.00  0.00    -0.030 C 
ATOM      4  C   UNL     1      10.891  -0.563   0.479  0.00  0.00    -0.030 C 
ATOM      5  C   UNL     1      10.961  -1.730  -0.462  0.00  0.00    +0.040 C 
ATOM      6  C   UNL     1       9.825  -2.713  -0.174  0.00  0.00    +0.092 C 
ENDROOT
BRANCH   1   8
ATOM      7  N   UNL     1       6.095  -2.413   0.119  0.00  0.00    -0.285 N 
ATOM      8  C   UNL     1       7.353  -2.885   0.024  0.00  0.00    +0.221 C 
ATOM      9  O   UNL     1       7.555  -4.081   0.031  0.00  0.00    -0.275 OA
ATOM     10  H   UNL     1       5.939  -1.458   0.194  0.00  0.00    +0.155 HD
BRANCH   7  16
ATOM     11  C   UNL     1       3.800  -2.929   0.707  0.00  0.00    +0.043 A 
ATOM     12  C   UNL     1       2.725  -3.823   0.685  0.00  0.00    +0.013 A 
ATOM     13  C   UNL     1       2.868  -5.055   0.086  0.00  0.00    +0.001 A 
ATOM     14  C   UNL     1       4.073  -5.415  -0.497  0.00  0.00    +0.002 A 
ATOM     15  C   UNL     1       5.144  -4.544  -0.484  0.00  0.00    +0.024 A 
ATOM     16  C   UNL     1       5.018  -3.295   0.110  0.00  0.00    +0.044 A 
BRANCH  11  17
ATOM     17  C   UNL     1       3.655  -1.609   1.345  0.00  0.00    +0.195 C 
ATOM     18  O   UNL     1       2.981  -0.748   0.814  0.00  0.00    -0.287 OA
BRANCH  17  22
ATOM     19  C   UNL     1       5.588  -0.815   5.043  0.00  0.00    +0.000 A 
ATOM     20  C   UNL     1       4.913   0.200   4.387  0.00  0.00    +0.001 A 
ATOM     21  C   UNL     1       4.282  -0.051   3.186  0.00  0.00    +0.012 A 
ATOM     22  C   UNL     1       4.328  -1.333   2.632  0.00  0.00    +0.022 A 
ATOM     23  C   UNL     1       5.012  -2.351   3.299  0.00  0.00    +0.012 A 
ATOM     24  C   UNL     1       5.637  -2.086   4.500  0.00  0.00    +0.001 A 
ENDBRANCH  17  22
ENDBRANCH  11  17
ENDBRANCH   7  16
ENDBRANCH   1   8
BRANCH   6  25
ATOM     25  C   UNL     1       9.737  -3.731  -1.282  0.00  0.00    +0.228 C 
ATOM     26  O   UNL     1       8.786  -3.727  -2.034  0.00  0.00    -0.275 OA
ATOM     27  N   UNL     1      10.715  -4.645  -1.436  0.00  0.00    -0.240 N 
BRANCH  27  28
ATOM     28  C   UNL     1      10.698  -5.509  -2.538  0.00  0.00    +0.041 A 
ATOM     29  C   UNL     1       9.792  -5.304  -3.569  0.00  0.00    +0.024 A 
ATOM     30  C   UNL     1       9.778  -6.158  -4.654  0.00  0.00    +0.002 A 
ATOM     31  C   UNL     1      10.665  -7.217  -4.714  0.00  0.00    +0.000 A 
ATOM     32  C   UNL     1      11.569  -7.424  -3.688  0.00  0.00    +0.002 A 
ATOM     33  C   UNL     1      11.592  -6.570  -2.603  0.00  0.00    +0.024 A 
ENDBRANCH  27  28
BRANCH  27  34
ATOM     34  C   UNL     1      11.749  -4.730  -0.495  0.00  0.00    +0.041 A 
ATOM     35  C   UNL     1      11.474  -5.134   0.805  0.00  0.00    +0.024 A 
ATOM     36  C   UNL     1      12.496  -5.217   1.731  0.00  0.00    +0.002 A 
ATOM     37  C   UNL     1      13.791  -4.898   1.365  0.00  0.00    +0.000 A 
ATOM     38  C   UNL     1      14.067  -4.495   0.071  0.00  0.00    +0.002 A 
ATOM     39  C   UNL     1      13.051  -4.416  -0.861  0.00  0.00    +0.024 A 
ENDBRANCH  27  34
ENDBRANCH   6  25
TORSDOF 7
