REMARK  Name = ZINC01934964
REMARK  12 active torsions:
REMARK  status: ('A' for Active; 'I' for Inactive)
REMARK    1  A    between atoms: C_1  and  C_2
REMARK    2  A    between atoms: C_2  and  N_3
REMARK    3  A    between atoms: N_3  and  C_4
REMARK    4  A    between atoms: N_3  and  C_6
REMARK    5  A    between atoms: C_4  and  C_5
REMARK    6  A    between atoms: C_6  and  C_7
REMARK    7  A    between atoms: C_8  and  O_31
REMARK    8  A    between atoms: C_14  and  C_27
REMARK    9  A    between atoms: C_15  and  O_18
REMARK   10  A    between atoms: O_18  and  C_19
REMARK   11  A    between atoms: C_22  and  O_25
REMARK   12  A    between atoms: O_25  and  C_26
REMARK                            x       y       z     vdW  Elec       q    Type
REMARK                         _______ _______ _______ _____ _____    ______ ____
ROOT
ATOM      1  C   UNL     1       1.986  -2.219  -0.432  0.00  0.00    +0.020 A 
ATOM      2  C   UNL     1       1.410  -2.470  -1.666  0.00  0.00    +0.122 A 
ATOM      3  C   UNL     1       2.204  -2.635  -2.798  0.00  0.00    +0.046 A 
ATOM      4  C   UNL     1       3.565  -2.553  -2.706  0.00  0.00    +0.019 A 
ATOM      5  C   UNL     1       4.160  -2.301  -1.469  0.00  0.00    +0.068 A 
ATOM      6  C   UNL     1       3.366  -2.126  -0.322  0.00  0.00    +0.144 A 
ATOM      7  O   UNL     1       3.952  -1.878   0.867  0.00  0.00    -0.447 OA
ATOM      8  C   UNL     1       5.281  -1.784   1.006  0.00  0.00    +0.254 A 
ATOM      9  C   UNL     1       6.134  -1.928  -0.027  0.00  0.00    +0.222 A 
ATOM     10  C   UNL     1       5.623  -2.206  -1.327  0.00  0.00    +0.235 A 
ATOM     11  O   UNL     1       6.365  -2.344  -2.285  0.00  0.00    -0.283 OA
ENDROOT
BRANCH   8  12
ATOM     12  C   UNL     1       5.845  -1.503   2.375  0.00  0.00    +0.454 C 
ATOM     13  F   UNL     1       7.228  -1.317   2.280  0.00  0.00    -0.163 F 
ATOM     14  F   UNL     1       5.253  -0.347   2.896  0.00  0.00    -0.163 F 
ATOM     15  F   UNL     1       5.577  -2.586   3.220  0.00  0.00    -0.163 F 
ENDBRANCH   8  12
BRANCH   2  16
ATOM     16  O   UNL     1       0.059  -2.555  -1.773  0.00  0.00    -0.506 OA
ATOM     17  H   UNL     1      -0.374  -1.711  -1.961  0.00  0.00    +0.292 HD
ENDBRANCH   2  16
BRANCH   1  18
ATOM     18  C   UNL     1       1.116  -2.041   0.787  0.00  0.00    -0.036 C 
BRANCH  18  19
ATOM     19  N   UNL     1       0.762  -0.623   0.933  0.00  0.00    +0.382 N 
ATOM     20  H   UNL     1       1.604  -0.067   0.955  0.00  0.00    -0.081 HD
BRANCH  19  22
ATOM     21  C   UNL     1      -0.360   1.292  -0.101  0.00  0.00    -0.017 C 
ATOM     22  C   UNL     1      -0.071  -0.206  -0.203  0.00  0.00    -0.082 C 
ENDBRANCH  19  22
BRANCH  19  23
ATOM     23  C   UNL     1       0.016  -0.431   2.184  0.00  0.00    -0.082 C 
ATOM     24  C   UNL     1       0.928  -0.736   3.374  0.00  0.00    -0.017 C 
ENDBRANCH  19  23
ENDBRANCH  18  19
ENDBRANCH   1  18
BRANCH   9  25
ATOM     25  O   UNL     1       7.476  -1.820   0.173  0.00  0.00    -0.448 OA
BRANCH  25  26
ATOM     26  C   UNL     1       8.124  -0.770  -0.397  0.00  0.00    +0.129 A 
ATOM     27  C   UNL     1       7.403   0.219  -1.050  0.00  0.00    +0.050 A 
ATOM     28  C   UNL     1       8.061   1.286  -1.628  0.00  0.00    +0.049 A 
ATOM     29  C   UNL     1       9.444   1.370  -1.557  0.00  0.00    +0.120 A 
ATOM     30  C   UNL     1      10.166   0.381  -0.905  0.00  0.00    +0.049 A 
ATOM     31  C   UNL     1       9.507  -0.683  -0.320  0.00  0.00    +0.050 A 
BRANCH  29  32
ATOM     32  O   UNL     1      10.092   2.420  -2.127  0.00  0.00    -0.495 OA
ATOM     33  C   UNL     1      11.517   2.442  -2.015  0.00  0.00    +0.277 C 
ENDBRANCH  29  32
ENDBRANCH  25  26
ENDBRANCH   9  25
TORSDOF 9
