REMARK  Name = ZINC39686758
REMARK  10 active torsions:
REMARK  status: ('A' for Active; 'I' for Inactive)
REMARK    1  A    between atoms: C_1  and  C_2
REMARK    2  A    between atoms: C_6  and  C_8
REMARK    3  A    between atoms: C_8  and  C_9
REMARK    4  A    between atoms: C_13  and  C_22
REMARK    5  A    between atoms: N_24  and  C_25
REMARK    6  A    between atoms: C_25  and  C_27
REMARK    7  A    between atoms: C_25  and  C_28
REMARK    8  A    between atoms: C_28  and  C_29
REMARK    9  A    between atoms: C_34  and  O_35
REMARK   10  A    between atoms: O_35  and  C_36
REMARK                            x       y       z     vdW  Elec       q    Type
REMARK                         _______ _______ _______ _____ _____    ______ ____
ROOT
ATOM      1  C   UNL     1       1.560  -3.067   2.932  0.00  0.00    +0.220 C 
ATOM      2  O   UNL     1       2.483  -2.687   2.243  0.00  0.00    -0.275 OA
ATOM      3  N   UNL     1       1.803  -3.749   4.068  0.00  0.00    -0.300 N 
ATOM      4  C   UNL     1       0.815  -4.297   5.028  0.00  0.00    +0.121 C 
ATOM      5  C   UNL     1       1.397  -5.665   5.449  0.00  0.00    +0.100 C 
ATOM      6  C   UNL     1       2.909  -5.544   5.194  0.00  0.00    -0.004 C 
ATOM      7  C   UNL     1       3.119  -4.128   4.637  0.00  0.00    +0.115 C 
ATOM      8  C   UNL     1       3.680  -5.719   6.498  0.00  0.00    -0.010 C 
ATOM      9  C   UNL     1       5.183  -5.652   6.210  0.00  0.00    -0.082 C 
ATOM     10  N   UNL     1       5.547  -6.707   5.257  0.00  0.00    +0.379 N 
ATOM     11  C   UNL     1       4.872  -6.479   3.974  0.00  0.00    -0.082 C 
ATOM     12  C   UNL     1       3.356  -6.580   4.168  0.00  0.00    -0.010 C 
ATOM     13  H   UNL     1       6.546  -6.700   5.116  0.00  0.00    -0.086 HD
ATOM     14  H   UNL     1       5.269  -7.604   5.628  0.00  0.00    -0.086 HD
ENDROOT
BRANCH   5  15
ATOM     15  C   UNL     1       1.128  -5.922   6.909  0.00  0.00    +0.218 C 
ATOM     16  O   UNL     1       1.099  -4.997   7.693  0.00  0.00    -0.275 OA
ATOM     17  N   UNL     1       0.919  -7.181   7.345  0.00  0.00    -0.312 N 
ATOM     18  H   UNL     1       0.942  -7.921   6.718  0.00  0.00    +0.149 HD
BRANCH  17  19
ATOM     19  C   UNL     1       0.657  -7.431   8.764  0.00  0.00    +0.074 C 
ATOM     20  C   UNL     1      -0.834  -7.242   9.049  0.00  0.00    +0.028 C 
BRANCH  19  21
ATOM     21  C   UNL     1       1.065  -8.864   9.113  0.00  0.00    +0.060 C 
BRANCH  21  22
ATOM     22  C   UNL     1       2.556  -9.015   8.950  0.00  0.00    -0.004 A 
ATOM     23  C   UNL     1       3.075  -9.501   7.765  0.00  0.00    +0.007 A 
ATOM     24  C   UNL     1       4.443  -9.641   7.615  0.00  0.00    +0.000 A 
ATOM     25  C   UNL     1       5.293  -9.295   8.649  0.00  0.00    +0.004 A 
ATOM     26  C   UNL     1       4.779  -8.809   9.835  0.00  0.00    +0.046 A 
ATOM     27  C   UNL     1       3.407  -8.662   9.986  0.00  0.00    +0.123 A 
BRANCH  27  28
ATOM     28  O   UNL     1       2.899  -8.178  11.150  0.00  0.00    -0.495 OA
ATOM     29  C   UNL     1       3.835  -7.835  12.174  0.00  0.00    +0.277 C 
ENDBRANCH  27  28
ENDBRANCH  21  22
ENDBRANCH  19  21
ENDBRANCH  17  19
ENDBRANCH   5  15
BRANCH   1  30
ATOM     30  C   UNL     1       0.140  -2.776   2.516  0.00  0.00    +0.131 C 
BRANCH  30  36
ATOM     31  C   UNL     1       0.213   1.588   0.068  0.00  0.00    +0.044 C 
ATOM     32  C   UNL     1       0.178   0.081   0.050  0.00  0.00    -0.050 A 
ATOM     33  C   UNL     1       0.148  -0.595  -1.156  0.00  0.00    +0.003 A 
ATOM     34  C   UNL     1       0.116  -1.976  -1.173  0.00  0.00    +0.001 A 
ATOM     35  C   UNL     1       0.113  -2.682   0.015  0.00  0.00    +0.004 A 
ATOM     36  C   UNL     1       0.144  -2.007   1.221  0.00  0.00    -0.038 A 
ATOM     37  C   UNL     1       0.180  -0.625   1.238  0.00  0.00    +0.007 A 
ENDBRANCH  30  36
ENDBRANCH   1  30
TORSDOF 7
