REMARK  Name = ZINC47722192
REMARK  7 active torsions:
REMARK  status: ('A' for Active; 'I' for Inactive)
REMARK    1  A    between atoms: C_1  and  C_2
REMARK    2  A    between atoms: C_4  and  O_5
REMARK    3  A    between atoms: N_16  and  C_17
REMARK    4  A    between atoms: C_17  and  C_18
REMARK    5  A    between atoms: C_18  and  N_19
REMARK    6  A    between atoms: N_19  and  C_20
REMARK    7  A    between atoms: C_25  and  C_26
REMARK                            x       y       z     vdW  Elec       q    Type
REMARK                         _______ _______ _______ _____ _____    ______ ____
ROOT
ATOM      1  C   UNL     1       0.286   1.446  -0.038  0.00  0.00    +0.045 C 
ATOM      2  C   UNL     1      -0.150   0.005   0.013  0.00  0.00    -0.033 A 
ATOM      3  C   UNL     1      -0.615  -0.633  -1.121  0.00  0.00    +0.091 A 
ATOM      4  C   UNL     1      -1.011  -1.960  -1.055  0.00  0.00    +0.285 A 
ATOM      5  O   UNL     1      -0.954  -2.648   0.091  0.00  0.00    -0.425 OA
ATOM      6  C   UNL     1      -0.507  -2.074   1.227  0.00  0.00    +0.141 A 
ATOM      7  C   UNL     1      -0.086  -0.725   1.217  0.00  0.00    +0.021 A 
ATOM      8  C   UNL     1       0.386  -0.125   2.399  0.00  0.00    +0.013 A 
ATOM      9  C   UNL     1       0.440  -0.844   3.550  0.00  0.00    +0.024 A 
ATOM     10  C   UNL     1       0.027  -2.189   3.568  0.00  0.00    +0.038 A 
ATOM     11  C   UNL     1      -0.454  -2.796   2.405  0.00  0.00    +0.070 A 
ATOM     12  N   UNL     1       0.086  -2.898   4.726  0.00  0.00    -0.269 N 
ATOM     13  C   UNL     1       0.004  -4.223   4.698  0.00  0.00    +0.304 C 
ATOM     14  O   UNL     1       0.002  -4.812   3.629  0.00  0.00    -0.253 OA
ATOM     15  N   UNL     1      -0.077  -4.918   5.850  0.00  0.00    -0.298 N 
ATOM     16  H   UNL     1       0.188  -2.436   5.573  0.00  0.00    +0.156 HD
ATOM     17  H   UNL     1      -0.076  -4.450   6.699  0.00  0.00    +0.150 HD
ENDROOT
BRANCH   4  18
ATOM     18  O   UNL     1      -1.463  -2.570  -2.168  0.00  0.00    -0.480 OA
ATOM     19  H   UNL     1      -1.718  -3.493  -2.035  0.00  0.00    +0.295 HD
ENDBRANCH   4  18
BRANCH  15  20
ATOM     20  C   UNL     1      -0.168  -6.380   5.819  0.00  0.00    +0.124 C 
BRANCH  20  21
ATOM     21  C   UNL     1      -0.248  -6.916   7.249  0.00  0.00    +0.120 C 
BRANCH  21  22
ATOM     22  N   UNL     1      -0.339  -8.378   7.218  0.00  0.00    -0.341 N 
ATOM     23  H   UNL     1      -0.340  -8.846   6.368  0.00  0.00    +0.146 HD
BRANCH  22  24
ATOM     24  C   UNL     1      -0.422  -9.095   8.406  0.00  0.00    +0.048 A 
ATOM     25  C   UNL     1      -0.426  -8.428   9.624  0.00  0.00    +0.024 A 
ATOM     26  C   UNL     1      -0.510  -9.140  10.804  0.00  0.00    +0.005 A 
ATOM     27  C   UNL     1      -0.591 -10.523  10.785  0.00  0.00    +0.040 A 
ATOM     28  C   UNL     1      -0.588 -11.205   9.585  0.00  0.00    +0.142 A 
ATOM     29  C   UNL     1      -0.509 -10.496   8.380  0.00  0.00    +0.108 A 
ATOM     30  F   UNL     1      -0.667 -12.554   9.572  0.00  0.00    -0.204 F 
BRANCH  29  31
ATOM     31  C   UNL     1      -0.512 -11.195   7.131  0.00  0.00    +0.104 C 
ATOM     32  N   UNL     1      -0.514 -11.749   6.139  0.00  0.00    -0.191 NA
ENDBRANCH  29  31
ENDBRANCH  22  24
ENDBRANCH  21  22
ENDBRANCH  20  21
ENDBRANCH  15  20
TORSDOF 6
