REMARK  Name = ZINC19651382
REMARK  12 active torsions:
REMARK  status: ('A' for Active; 'I' for Inactive)
REMARK    1  A    between atoms: C_1  and  C_2
REMARK    2  A    between atoms: C_2  and  C_3
REMARK    3  A    between atoms: C_3  and  C_4
REMARK    4  A    between atoms: C_4  and  O_5
REMARK    5  A    between atoms: O_5  and  C_6
REMARK    6  A    between atoms: C_9  and  C_14
REMARK    7  A    between atoms: C_11  and  O_12
REMARK    8  A    between atoms: O_12  and  C_13
REMARK    9  A    between atoms: N_15  and  N_16
REMARK   10  A    between atoms: C_17  and  C_19
REMARK   11  A    between atoms: C_19  and  N_20
REMARK   12  A    between atoms: C_31  and  C_35
REMARK                            x       y       z     vdW  Elec       q    Type
REMARK                         _______ _______ _______ _____ _____    ______ ____
ROOT
ATOM      1  N   UNL     1       1.222  -6.284  -0.044  0.00  0.00    -0.205 N 
ATOM      2  C   UNL     1       2.400  -6.938  -0.059  0.00  0.00    +0.254 C 
ATOM      3  O   UNL     1       3.440  -6.315  -0.065  0.00  0.00    -0.272 OA
ATOM      4  H   UNL     1       0.278  -6.849  -0.039  0.00  0.00    +0.177 HD
ENDROOT
BRANCH   1   6
ATOM      5  C   UNL     1       0.065  -4.252  -0.022  0.00  0.00    +0.138 C 
ATOM      6  N   UNL     1       1.199  -4.883  -0.036  0.00  0.00    -0.188 NA
BRANCH   5  10
ATOM      7  C   UNL     1       0.002  -0.004   0.002  0.00  0.00    +0.162 A 
ATOM      8  C   UNL     1       1.214  -0.679  -0.019  0.00  0.00    +0.050 A 
ATOM      9  C   UNL     1       1.238  -2.058  -0.021  0.00  0.00    +0.013 A 
ATOM     10  C   UNL     1       0.041  -2.778  -0.013  0.00  0.00    -0.002 A 
ATOM     11  C   UNL     1      -1.179  -2.097   0.002  0.00  0.00    +0.059 A 
ATOM     12  C   UNL     1      -1.196  -0.715   0.010  0.00  0.00    +0.162 A 
BRANCH  12  13
ATOM     13  O   UNL     1      -2.382  -0.050   0.025  0.00  0.00    -0.491 OA
ATOM     14  C   UNL     1      -3.571  -0.842   0.032  0.00  0.00    +0.277 C 
ENDBRANCH  12  13
BRANCH   7  15
ATOM     15  O   UNL     1      -0.016   1.355   0.009  0.00  0.00    -0.488 OA
BRANCH  15  16
ATOM     16  C   UNL     1       1.248   2.021   0.001  0.00  0.00    +0.229 C 
BRANCH  16  17
ATOM     17  C   UNL     1       1.027   3.535   0.011  0.00  0.00    +0.041 C 
BRANCH  17  19
ATOM     18  C   UNL     1       2.159   5.762   0.012  0.00  0.00    +0.004 C 
ATOM     19  C   UNL     1       2.381   4.248   0.002  0.00  0.00    -0.000 C 
ENDBRANCH  17  19
ENDBRANCH  16  17
ENDBRANCH  15  16
ENDBRANCH   7  15
ENDBRANCH   5  10
ENDBRANCH   1   6
BRANCH   2  20
ATOM     20  C   UNL     1       2.424  -8.445  -0.068  0.00  0.00    +0.246 C 
BRANCH  20  21
ATOM     21  N   UNL     1       3.813  -8.911  -0.084  0.00  0.00    -0.201 N 
ATOM     22  C   UNL     1       4.455  -9.129   1.080  0.00  0.00    +0.279 A 
ATOM     23  O   UNL     1       3.891  -8.942   2.145  0.00  0.00    -0.265 OA
ATOM     24  C   UNL     1       5.815  -9.586   1.044  0.00  0.00    +0.079 A 
ATOM     25  C   UNL     1       6.697  -9.884   2.169  0.00  0.00    -0.023 A 
ATOM     26  C   UNL     1       7.947 -10.303   1.875  0.00  0.00    -0.004 A 
ATOM     27  S   UNL     1       8.018 -10.324   0.104  0.00  0.00    -0.071 S 
ATOM     28  C   UNL     1       6.366  -9.768  -0.235  0.00  0.00    +0.138 A 
ATOM     29  N   UNL     1       5.678  -9.534  -1.348  0.00  0.00    -0.123 NA
ATOM     30  N   UNL     1       4.455  -9.130  -1.307  0.00  0.00    -0.061 NA
ATOM     31  C   UNL     1       9.033 -10.669   2.840  0.00  0.00    +0.046 C 
ATOM     32  C   UNL     1       8.643 -10.143   4.229  0.00  0.00    -0.009 C 
ATOM     33  C   UNL     1       7.192 -10.540   4.514  0.00  0.00    +0.008 C 
ATOM     34  C   UNL     1       6.247  -9.736   3.620  0.00  0.00    +0.037 C 
ATOM     35  C   UNL     1       9.563 -10.755   5.287  0.00  0.00    +0.008 C 
ENDBRANCH  20  21
ENDBRANCH   2  20
TORSDOF 9
