REMARK  Name = ZINC02323030
REMARK  18 active torsions:
REMARK  status: ('A' for Active; 'I' for Inactive)
REMARK    1  A    between atoms: C_1  and  C_2
REMARK    2  A    between atoms: C_2  and  O_3
REMARK    3  A    between atoms: O_3  and  C_4
REMARK    4  A    between atoms: C_4  and  C_6
REMARK    5  A    between atoms: C_7  and  C_36
REMARK    6  A    between atoms: C_8  and  C_31
REMARK    7  A    between atoms: C_10  and  N_11
REMARK    8  A    between atoms: N_11  and  C_12
REMARK    9  A    between atoms: C_13  and  C_14
REMARK   10  A    between atoms: C_13  and  C_16
REMARK   11  A    between atoms: C_18  and  C_21
REMARK   12  A    between atoms: C_24  and  C_27
REMARK   13  A    between atoms: C_27  and  C_28
REMARK   14  A    between atoms: C_28  and  C_29
REMARK   15  A    between atoms: C_28  and  C_30
REMARK   16  A    between atoms: C_31  and  O_33
REMARK   17  A    between atoms: O_33  and  C_34
REMARK   18  A    between atoms: C_34  and  C_35
REMARK                            x       y       z     vdW  Elec       q    Type
REMARK                         _______ _______ _______ _____ _____    ______ ____
ROOT
ATOM      1  C   UNL     1      -1.129  -2.789  -5.150  0.00  0.00    +0.094 C 
ATOM      2  C   UNL     1      -2.473  -2.719  -5.355  0.00  0.00    +0.098 C 
ENDROOT
BRANCH   2   3
ATOM      3  C   UNL     1      -3.354  -2.182  -4.300  0.00  0.00    +0.120 A 
ATOM      4  N   UNL     1      -3.474  -2.559  -3.036  0.00  0.00    -0.238 NA
ATOM      5  C   UNL     1      -4.323  -1.959  -2.220  0.00  0.00    +0.079 A 
ATOM      6  C   UNL     1      -5.092  -0.928  -2.689  0.00  0.00    +0.075 A 
ATOM      7  S   UNL     1      -4.535  -0.843  -4.386  0.00  0.00    -0.074 S 
BRANCH   5   8
ATOM      8  C   UNL     1      -4.442  -2.399  -0.808  0.00  0.00    +0.001 A 
ATOM      9  C   UNL     1      -5.343  -1.767   0.048  0.00  0.00    +0.010 A 
ATOM     10  C   UNL     1      -5.449  -2.181   1.360  0.00  0.00    +0.004 A 
ATOM     11  C   UNL     1      -4.664  -3.220   1.826  0.00  0.00    -0.047 A 
ATOM     12  C   UNL     1      -3.768  -3.850   0.981  0.00  0.00    +0.004 A 
ATOM     13  C   UNL     1      -3.658  -3.449  -0.335  0.00  0.00    +0.010 A 
BRANCH  11  14
ATOM     14  C   UNL     1      -4.785  -3.667   3.260  0.00  0.00    +0.038 C 
BRANCH  14  15
ATOM     15  C   UNL     1      -5.848  -4.762   3.366  0.00  0.00    -0.013 C 
ATOM     16  C   UNL     1      -5.884  -5.303   4.796  0.00  0.00    +0.007 C 
ATOM     17  C   UNL     1      -7.217  -4.179   3.007  0.00  0.00    +0.007 C 
ENDBRANCH  14  15
ENDBRANCH  11  14
ENDBRANCH   5   8
ENDBRANCH   2   3
BRANCH   1  18
ATOM     18  N   UNL     1      -0.604  -2.452  -3.932  0.00  0.00    -0.313 N 
ATOM     19  H   UNL     1      -1.179  -2.090  -3.239  0.00  0.00    +0.152 HD
BRANCH  18  24
ATOM     20  C   UNL     1       1.450  -2.341  -2.518  0.00  0.00    +0.091 A 
ATOM     21  C   UNL     1       2.811  -2.610  -2.510  0.00  0.00    -0.014 A 
ATOM     22  C   UNL     1       3.335  -3.128  -3.664  0.00  0.00    +0.102 A 
ATOM     23  S   UNL     1       1.913  -3.227  -4.732  0.00  0.00    -0.066 S 
ATOM     24  C   UNL     1       0.741  -2.626  -3.689  0.00  0.00    +0.084 A 
ATOM     25  C   UNL     1       3.666  -2.345  -1.297  0.00  0.00    +0.046 C 
BRANCH  20  26
ATOM     26  C   UNL     1       0.777  -1.784  -1.339  0.00  0.00    +0.342 C 
ATOM     27  O   UNL     1       0.308  -2.528  -0.499  0.00  0.00    -0.245 OA
BRANCH  26  28
ATOM     28  O   UNL     1       0.679  -0.448  -1.188  0.00  0.00    -0.461 OA
BRANCH  28  30
ATOM     29  C   UNL     1      -0.001   1.554  -0.018  0.00  0.00    +0.048 C 
ATOM     30  C   UNL     1       0.012   0.024  -0.016  0.00  0.00    +0.229 C 
ENDBRANCH  28  30
ENDBRANCH  26  28
ENDBRANCH  20  26
BRANCH  22  31
ATOM     31  C   UNL     1       4.718  -3.506  -3.950  0.00  0.00    +0.346 C 
ATOM     32  O   UNL     1       5.574  -3.371  -3.096  0.00  0.00    -0.244 OA
BRANCH  31  33
ATOM     33  O   UNL     1       5.046  -4.005  -5.160  0.00  0.00    -0.461 OA
BRANCH  33  34
ATOM     34  C   UNL     1       6.416  -4.354  -5.369  0.00  0.00    +0.229 C 
ATOM     35  C   UNL     1       6.593  -4.898  -6.788  0.00  0.00    +0.048 C 
ENDBRANCH  33  34
ENDBRANCH  31  33
ENDBRANCH  22  31
ENDBRANCH  18  24
ENDBRANCH   1  18
BRANCH   2  36
ATOM     36  C   UNL     1      -3.032  -3.167  -6.595  0.00  0.00    +0.103 C 
ATOM     37  N   UNL     1      -3.476  -3.523  -7.579  0.00  0.00    -0.191 NA
ENDBRANCH   2  36
TORSDOF 13
