REMARK  Name = ZINC12158326
REMARK  7 active torsions:
REMARK  status: ('A' for Active; 'I' for Inactive)
REMARK    1  A    between atoms: C_9  and  C_12
REMARK    2  A    between atoms: C_17  and  C_18
REMARK    3  A    between atoms: C_17  and  N_58
REMARK    4  A    between atoms: C_18  and  N_19
REMARK    5  A    between atoms: C_20  and  C_22
REMARK    6  A    between atoms: C_22  and  C_23
REMARK    7  A    between atoms: C_23  and  C_24
REMARK                            x       y       z     vdW  Elec       q    Type
REMARK                         _______ _______ _______ _____ _____    ______ ____
ROOT
ATOM      1  C   UNL     1       4.062   0.121   1.549  0.00  0.00    -0.059 C 
ENDROOT
BRANCH   1  12
ATOM      2  C   UNL     1      -1.218   1.755   0.017  0.00  0.00    +0.000 A 
ATOM      3  C   UNL     1      -1.235   3.138   0.022  0.00  0.00    +0.004 A 
ATOM      4  C   UNL     1      -0.050   3.848   0.016  0.00  0.00    +0.046 A 
ATOM      5  C   UNL     1       1.160   3.167   0.015  0.00  0.00    +0.123 A 
ATOM      6  C   UNL     1       1.170   1.785   0.001  0.00  0.00    -0.022 A 
ATOM      7  C   UNL     1      -0.013   1.076   0.008  0.00  0.00    +0.005 A 
ATOM      8  C   UNL     1       2.498   1.054  -0.044  0.00  0.00    -0.039 C 
ATOM      9  C   UNL     1       3.949   2.514   1.256  0.00  0.00    -0.028 C 
ATOM     10  C   UNL     1       3.074   3.749   1.268  0.00  0.00    +0.188 C 
ATOM     11  O   UNL     1       2.332   3.857   0.046  0.00  0.00    -0.486 OA
ATOM     12  N   UNL     1       3.172   1.257   1.261  0.00  0.00    +0.386 N 
ATOM     13  H   UNL     1       2.458   1.314   1.995  0.00  0.00    -0.081 HD
BRANCH  10  14
ATOM     14  C   UNL     1       3.941   4.971   1.430  0.00  0.00    -0.002 A 
ATOM     15  C   UNL     1       4.154   5.519   2.681  0.00  0.00    +0.015 A 
ATOM     16  C   UNL     1       4.944   6.615   2.792  0.00  0.00    +0.045 A 
ATOM     17  S   UNL     1       5.405   6.912   1.094  0.00  0.00    -0.105 S 
ATOM     18  C   UNL     1       4.520   5.552   0.350  0.00  0.00    +0.052 A 
ENDBRANCH  10  14
ENDBRANCH   1  12
BRANCH   1  19
ATOM     19  C   UNL     1       5.194   0.035   0.523  0.00  0.00    +0.085 C 
BRANCH  19  20
ATOM     20  N   UNL     1       6.058  -1.104   0.842  0.00  0.00    -0.317 N 
ATOM     21  C   UNL     1       7.128  -1.376   0.069  0.00  0.00    +0.213 C 
ATOM     22  O   UNL     1       7.375  -0.678  -0.891  0.00  0.00    -0.276 OA
ATOM     23  H   UNL     1       5.860  -1.663   1.610  0.00  0.00    +0.149 HD
BRANCH  21  24
ATOM     24  C   UNL     1       8.016  -2.549   0.397  0.00  0.00    +0.100 C 
BRANCH  24  25
ATOM     25  C   UNL     1       9.148  -2.634  -0.629  0.00  0.00    +0.044 C 
BRANCH  25  26
ATOM     26  C   UNL     1      10.036  -3.806  -0.301  0.00  0.00    -0.043 A 
ATOM     27  C   UNL     1       9.764  -5.050  -0.840  0.00  0.00    +0.007 A 
ATOM     28  C   UNL     1      10.576  -6.128  -0.542  0.00  0.00    +0.050 A 
ATOM     29  C   UNL     1      11.665  -5.965   0.298  0.00  0.00    +0.166 A 
ATOM     30  C   UNL     1      11.939  -4.712   0.842  0.00  0.00    +0.166 A 
ATOM     31  C   UNL     1      11.124  -3.634   0.534  0.00  0.00    +0.053 A 
ATOM     32  O   UNL     1      13.051  -4.810   1.627  0.00  0.00    -0.453 OA
ATOM     33  C   UNL     1      13.691  -6.039   1.235  0.00  0.00    +0.466 C 
ATOM     34  O   UNL     1      12.606  -6.848   0.744  0.00  0.00    -0.453 OA
ENDBRANCH  25  26
ENDBRANCH  24  25
ENDBRANCH  21  24
ENDBRANCH  19  20
ENDBRANCH   1  19
TORSDOF 7
