REMARK  Name = ZINC14094248
REMARK  5 active torsions:
REMARK  status: ('A' for Active; 'I' for Inactive)
REMARK    1  A    between atoms: C_4  and  C_7
REMARK    2  A    between atoms: C_7  and  C_9
REMARK    3  A    between atoms: C_7  and  N_14
REMARK    4  A    between atoms: N_14  and  C_15
REMARK    5  A    between atoms: C_26  and  C_29
REMARK                            x       y       z     vdW  Elec       q    Type
REMARK                         _______ _______ _______ _____ _____    ______ ____
ROOT
ATOM      1  C   UNL     1       2.068   5.356  -1.453  0.00  0.00    +0.072 A 
ATOM      2  C   UNL     1       0.938   6.154  -1.173  0.00  0.00    +0.158 A 
ATOM      3  N   UNL     1       0.817   7.338  -1.707  0.00  0.00    -0.168 NA
ATOM      4  N   UNL     1       1.798   7.845  -2.564  0.00  0.00    -0.177 N 
ATOM      5  C   UNL     1       2.894   7.118  -2.858  0.00  0.00    +0.293 A 
ATOM      6  O   UNL     1       3.747   7.568  -3.608  0.00  0.00    -0.264 OA
ATOM      7  C   UNL     1       3.052   5.844  -2.294  0.00  0.00    +0.129 A 
ATOM      8 CL   UNL     1       4.457   4.890  -2.651  0.00  0.00    -0.076 Cl
ATOM      9  C   UNL     1       1.641   9.116  -3.121  0.00  0.00    +0.158 A 
ATOM     10  C   UNL     1       0.511   9.866  -2.818  0.00  0.00    +0.049 A 
ATOM     11  C   UNL     1       0.368  11.124  -3.376  0.00  0.00    +0.017 A 
ATOM     12  C   UNL     1       1.365  11.590  -4.221  0.00  0.00    +0.073 A 
ATOM     13  C   UNL     1       2.461  10.791  -4.479  0.00  0.00    +0.125 A 
ATOM     14  N   UNL     1       2.573   9.598  -3.928  0.00  0.00    -0.235 NA
ENDROOT
BRANCH  12  15
ATOM     15  C   UNL     1       1.252  12.955  -4.852  0.00  0.00    +0.419 C 
ATOM     16  F   UNL     1       1.845  13.906  -4.014  0.00  0.00    -0.166 F 
ATOM     17  F   UNL     1       1.904  12.952  -6.090  0.00  0.00    -0.166 F 
ATOM     18  F   UNL     1      -0.098  13.273  -5.036  0.00  0.00    -0.166 F 
ENDBRANCH  12  15
BRANCH   1  19
ATOM     19  N   UNL     1       2.193   4.100  -0.885  0.00  0.00    -0.330 N 
ATOM     20  H   UNL     1       2.972   3.555  -1.080  0.00  0.00    +0.147 HD
BRANCH  19  21
ATOM     21  C   UNL     1       1.151   3.592   0.010  0.00  0.00    +0.138 C 
BRANCH  21  25
ATOM     22  C   UNL     1       1.208  -0.679  -0.014  0.00  0.00    +0.000 A 
ATOM     23  C   UNL     1       0.002  -0.004   0.002  0.00  0.00    +0.000 A 
ATOM     24  C   UNL     1      -0.017   1.378   0.010  0.00  0.00    +0.006 A 
ATOM     25  C   UNL     1       1.171   2.086   0.002  0.00  0.00    -0.022 A 
ATOM     26  C   UNL     1       2.377   1.411  -0.014  0.00  0.00    +0.006 A 
ATOM     27  C   UNL     1       2.396   0.029  -0.021  0.00  0.00    +0.000 A 
ENDBRANCH  21  25
BRANCH  21  28
ATOM     28  C   UNL     1       1.403   4.091   1.409  0.00  0.00    +0.014 A 
ATOM     29  C   UNL     1       0.514   4.536   2.331  0.00  0.00    +0.013 A 
ATOM     30  C   UNL     1       0.979   4.946   3.567  0.00  0.00    +0.008 A 
ATOM     31  C   UNL     1       2.310   4.900   3.817  0.00  0.00    +0.045 A 
ATOM     32  S   UNL     1       2.953   4.256   2.281  0.00  0.00    -0.099 S 
ENDBRANCH  21  28
ENDBRANCH  19  21
ENDBRANCH   1  19
TORSDOF 5
