REMARK  Name = ZINC46571378
REMARK  9 active torsions:
REMARK  status: ('A' for Active; 'I' for Inactive)
REMARK    1  A    between atoms: C_1  and  N_2
REMARK    2  A    between atoms: N_2  and  C_3
REMARK    3  A    between atoms: N_2  and  C_27
REMARK    4  A    between atoms: C_3  and  C_4
REMARK    5  A    between atoms: C_9  and  N_10
REMARK    6  A    between atoms: C_11  and  C_13
REMARK    7  A    between atoms: C_14  and  C_15
REMARK    8  A    between atoms: C_18  and  C_21
REMARK    9  A    between atoms: N_23  and  C_24
REMARK                            x       y       z     vdW  Elec       q    Type
REMARK                         _______ _______ _______ _____ _____    ______ ____
ROOT
ATOM      1  N   UNL     1       2.619  -1.907   0.321  0.00  0.00    -0.282 N 
ATOM      2  C   UNL     1       3.307  -2.312   1.407  0.00  0.00    +0.241 C 
ATOM      3  O   UNL     1       4.244  -1.651   1.815  0.00  0.00    -0.270 OA
ATOM      4  H   UNL     1       1.824  -2.388   0.043  0.00  0.00    +0.155 HD
ENDROOT
BRANCH   1  10
ATOM      5  C   UNL     1       2.147  -0.065  -1.167  0.00  0.00    -0.043 A 
ATOM      6  C   UNL     1       2.576   1.038  -1.879  0.00  0.00    +0.003 A 
ATOM      7  C   UNL     1       3.906   1.415  -1.838  0.00  0.00    +0.000 A 
ATOM      8  C   UNL     1       4.810   0.689  -1.084  0.00  0.00    +0.002 A 
ATOM      9  C   UNL     1       4.388  -0.415  -0.370  0.00  0.00    +0.023 A 
ATOM     10  C   UNL     1       3.051  -0.793  -0.405  0.00  0.00    +0.035 A 
BRANCH   5  11
ATOM     11  C   UNL     1       0.697  -0.475  -1.213  0.00  0.00    -0.041 C 
BRANCH  11  13
ATOM     12  C   UNL     1       0.002   1.479  -0.007  0.00  0.00    -0.095 C 
ATOM     13  N   UNL     1       0.013   0.010  -0.007  0.00  0.00    +0.382 N 
ATOM     14  H   UNL     1       0.500  -0.323   0.812  0.00  0.00    -0.081 HD
BRANCH  13  15
ATOM     15  C   UNL     1      -1.368  -0.490   0.007  0.00  0.00    -0.069 C 
ATOM     16  C   UNL     1      -2.080   0.014   1.264  0.00  0.00    -0.015 C 
ATOM     17  C   UNL     1      -3.519  -0.507   1.278  0.00  0.00    -0.002 C 
ATOM     18  C   UNL     1      -3.507  -2.037   1.278  0.00  0.00    -0.000 C 
ATOM     19  C   UNL     1      -2.795  -2.541   0.022  0.00  0.00    -0.002 C 
ATOM     20  C   UNL     1      -1.356  -2.020   0.007  0.00  0.00    -0.015 C 
ENDBRANCH  13  15
ENDBRANCH  11  13
ENDBRANCH   5  11
ENDBRANCH   1  10
BRANCH   2  21
ATOM     21  C   UNL     1       2.926  -3.547   2.097  0.00  0.00    +0.068 C 
ATOM     22  C   UNL     1       3.613  -3.952   3.183  0.00  0.00    +0.013 C 
BRANCH  22  23
ATOM     23  C   UNL     1       3.231  -5.194   3.876  0.00  0.00    -0.025 A 
ATOM     24  C   UNL     1       2.157  -5.956   3.404  0.00  0.00    +0.008 A 
ATOM     25  C   UNL     1       1.800  -7.117   4.053  0.00  0.00    +0.013 A 
ATOM     26  C   UNL     1       2.510  -7.533   5.182  0.00  0.00    +0.037 A 
ATOM     27  C   UNL     1       3.582  -6.772   5.654  0.00  0.00    +0.013 A 
ATOM     28  C   UNL     1       3.944  -5.614   5.003  0.00  0.00    +0.008 A 
BRANCH  26  29
ATOM     29  C   UNL     1       2.125  -8.780   5.878  0.00  0.00    +0.244 C 
ATOM     30  O   UNL     1       1.192  -9.442   5.467  0.00  0.00    -0.270 OA
ATOM     31  N   UNL     1       2.809  -9.182   6.967  0.00  0.00    -0.308 N 
ATOM     32  H   UNL     1       3.554  -8.653   7.294  0.00  0.00    +0.149 HD
BRANCH  31  33
ATOM     33  C   UNL     1       2.429 -10.417   7.657  0.00  0.00    +0.073 C 
ATOM     34  C   UNL     1       2.384 -10.387   9.185  0.00  0.00    +0.024 C 
ATOM     35  C   UNL     1       3.509 -11.135   8.468  0.00  0.00    +0.024 C 
ENDBRANCH  31  33
ENDBRANCH  26  29
ENDBRANCH  22  23
ENDBRANCH   2  21
TORSDOF 8
