REMARK  Name = ZINC21263621
REMARK  11 active torsions:
REMARK  status: ('A' for Active; 'I' for Inactive)
REMARK    1  A    between atoms: C_1  and  C_2
REMARK    2  A    between atoms: C_2  and  C_32
REMARK    3  A    between atoms: C_4  and  N_10
REMARK    4  A    between atoms: C_6  and  C_8
REMARK    5  A    between atoms: C_6  and  C_9
REMARK    6  A    between atoms: N_10  and  C_11
REMARK    7  A    between atoms: C_11  and  N_13
REMARK    8  A    between atoms: N_13  and  C_14
REMARK    9  A    between atoms: N_13  and  C_24
REMARK   10  A    between atoms: C_14  and  C_15
REMARK   11  A    between atoms: C_24  and  C_25
REMARK                            x       y       z     vdW  Elec       q    Type
REMARK                         _______ _______ _______ _____ _____    ______ ____
ROOT
ATOM      1  N   UNL     1      -1.645   5.093   2.358  0.00  0.00    -0.308 N 
ENDROOT
BRANCH   1   2
ATOM      2  C   UNL     1      -2.800   5.630   1.917  0.00  0.00    +0.133 C 
ATOM      3  S   UNL     1      -2.963   7.330   1.799  0.00  0.00    -0.019 S 
BRANCH   2   4
ATOM      4  N   UNL     1      -3.826   4.829   1.568  0.00  0.00    -0.324 N 
ATOM      5  H   UNL     1      -3.721   3.737   1.643  0.00  0.00    +0.148 HD
BRANCH   4   9
ATOM      6  C   UNL     1      -6.875   5.972  -1.400  0.00  0.00    -0.010 C 
ATOM      7  C   UNL     1      -7.142   4.965  -0.275  0.00  0.00    -0.072 C 
ATOM      8  C   UNL     1      -5.817   4.391   0.221  0.00  0.00    +0.009 C 
ATOM      9  C   UNL     1      -5.084   5.415   1.087  0.00  0.00    +0.069 C 
ATOM     10  C   UNL     1      -5.969   5.760   2.285  0.00  0.00    +0.009 C 
ATOM     11  C   UNL     1      -7.294   6.352   1.813  0.00  0.00    -0.072 C 
ATOM     12  N   UNL     1      -7.932   5.559   0.782  0.00  0.00    +0.386 N 
ATOM     13  C   UNL     1      -7.073   7.795   1.344  0.00  0.00    -0.010 C 
ATOM     14  C   UNL     1      -8.240   6.408   3.033  0.00  0.00    -0.010 C 
ATOM     15  C   UNL     1      -7.953   3.801  -0.887  0.00  0.00    -0.010 C 
ATOM     16  H   UNL     1      -8.674   6.244   0.345  0.00  0.00    -0.084 HD
ATOM     17  H   UNL     1      -8.450   4.767   1.343  0.00  0.00    -0.084 HD
ENDBRANCH   4   9
ENDBRANCH   2   4
ENDBRANCH   1   2
BRANCH   1  18
ATOM     18  C   UNL     1      -0.530   5.963   2.737  0.00  0.00    +0.142 C 
BRANCH  18  19
ATOM     19  C   UNL     1       0.341   6.217   1.534  0.00  0.00    -0.026 A 
ATOM     20  C   UNL     1       0.081   7.295   0.709  0.00  0.00    +0.009 A 
ATOM     21  C   UNL     1       0.878   7.532  -0.396  0.00  0.00    +0.050 A 
ATOM     22  C   UNL     1       1.939   6.688  -0.679  0.00  0.00    +0.166 A 
ATOM     23  C   UNL     1       2.201   5.601   0.151  0.00  0.00    +0.167 A 
ATOM     24  C   UNL     1       1.402   5.373   1.260  0.00  0.00    +0.054 A 
ATOM     25  O   UNL     1       3.285   4.931  -0.336  0.00  0.00    -0.453 OA
ATOM     26  C   UNL     1       3.932   5.849  -1.237  0.00  0.00    +0.466 C 
ATOM     27  O   UNL     1       2.860   6.698  -1.687  0.00  0.00    -0.453 OA
ENDBRANCH  18  19
ENDBRANCH   1  18
BRANCH   1  28
ATOM     28  C   UNL     1      -1.506   3.638   2.458  0.00  0.00    +0.111 C 
BRANCH  28  29
ATOM     29  C   UNL     1      -0.961   3.085   1.140  0.00  0.00    +0.010 C 
ATOM     30  C   UNL     1      -0.723   1.577   1.271  0.00  0.00    +0.009 C 
ATOM     31  C   UNL     1      -0.013   1.086   0.008  0.00  0.00    +0.027 C 
ATOM     32  C   UNL     1      -0.733   1.580  -1.212  0.00  0.00    -0.031 C 
ATOM     33  C   UNL     1      -1.587   2.553  -1.206  0.00  0.00    -0.031 C 
ATOM     34  C   UNL     1      -1.983   3.316   0.024  0.00  0.00    +0.032 C 
ENDBRANCH  28  29
ENDBRANCH   1  28
TORSDOF 7
