REMARK  Name = ZINC14733400
REMARK  11 active torsions:
REMARK  status: ('A' for Active; 'I' for Inactive)
REMARK    1  A    between atoms: C_1  and  C_2
REMARK    2  A    between atoms: C_2  and  C_4
REMARK    3  A    between atoms: C_2  and  N_8
REMARK    4  A    between atoms: N_8  and  C_9
REMARK    5  A    between atoms: C_11  and  C_22
REMARK    6  A    between atoms: C_13  and  S_15
REMARK    7  A    between atoms: S_15  and  N_18
REMARK    8  A    between atoms: N_18  and  C_19
REMARK    9  A    between atoms: C_19  and  C_20
REMARK   10  A    between atoms: C_19  and  C_21
REMARK   11  A    between atoms: N_24  and  C_25
REMARK                            x       y       z     vdW  Elec       q    Type
REMARK                         _______ _______ _______ _____ _____    ______ ____
ROOT
ATOM      1  C   UNL     1      -2.159  -0.666  -1.017  0.00  0.00    +0.030 A 
ATOM      2  C   UNL     1      -1.659  -0.312  -2.261  0.00  0.00    +0.036 A 
ATOM      3  C   UNL     1      -2.459  -0.452  -3.394  0.00  0.00    +0.040 A 
ATOM      4  C   UNL     1      -3.759  -0.948  -3.268  0.00  0.00    +0.041 A 
ATOM      5  C   UNL     1      -4.247  -1.297  -2.026  0.00  0.00    +0.108 A 
ATOM      6  C   UNL     1      -3.451  -1.163  -0.903  0.00  0.00    +0.051 A 
ENDROOT
BRANCH   3   7
ATOM      7  C   UNL     1      -1.934  -0.077  -4.724  0.00  0.00    +0.244 C 
ATOM      8  O   UNL     1      -2.634  -0.200  -5.711  0.00  0.00    -0.270 OA
ATOM      9  N   UNL     1      -0.680   0.402  -4.843  0.00  0.00    -0.308 N 
ATOM     10  H   UNL     1      -0.122   0.500  -4.056  0.00  0.00    +0.149 HD
BRANCH   9  11
ATOM     11  C   UNL     1      -0.160   0.774  -6.161  0.00  0.00    +0.082 C 
ATOM     12  C   UNL     1       0.574  -0.415  -6.817  0.00  0.00    +0.058 C 
ATOM     13  C   UNL     1       1.726   0.203  -7.581  0.00  0.00    -0.042 A 
ATOM     14  C   UNL     1       2.515  -0.320  -8.592  0.00  0.00    +0.004 A 
ATOM     15  C   UNL     1       3.524   0.440  -9.149  0.00  0.00    +0.000 A 
ATOM     16  C   UNL     1       3.748   1.728  -8.698  0.00  0.00    +0.000 A 
ATOM     17  C   UNL     1       2.961   2.251  -7.690  0.00  0.00    +0.004 A 
ATOM     18  C   UNL     1       1.949   1.490  -7.130  0.00  0.00    -0.042 A 
ATOM     19  C   UNL     1       0.963   1.825  -6.031  0.00  0.00    +0.058 C 
ENDBRANCH   9  11
ENDBRANCH   3   7
BRANCH   5  20
ATOM     20  S   UNL     1      -5.887  -1.921  -1.871  0.00  0.00    +0.059 S 
ATOM     21  O   UNL     1      -6.296  -1.662  -0.535  0.00  0.00    -0.153 OA
ATOM     22  O   UNL     1      -6.612  -1.443  -2.996  0.00  0.00    -0.153 OA
BRANCH  20  23
ATOM     23  N   UNL     1      -5.801  -3.567  -2.028  0.00  0.00    -0.187 NA
ATOM     24  H   UNL     1      -6.224  -4.005  -2.784  0.00  0.00    +0.148 HD
BRANCH  23  25
ATOM     25  C   UNL     1      -5.086  -4.363  -1.027  0.00  0.00    +0.070 C 
ATOM     26  C   UNL     1      -6.078  -4.880   0.016  0.00  0.00    +0.025 C 
ATOM     27  C   UNL     1      -4.401  -5.548  -1.711  0.00  0.00    +0.025 C 
ENDBRANCH  23  25
ENDBRANCH  20  23
ENDBRANCH   5  20
BRANCH   1  28
ATOM     28  N   UNL     1      -1.361  -0.528   0.122  0.00  0.00    -0.341 N 
ATOM     29  H   UNL     1      -1.709  -0.779   0.992  0.00  0.00    +0.146 HD
BRANCH  28  31
ATOM     30  C   UNL     1      -0.036   1.525   0.023  0.00  0.00    +0.028 C 
ATOM     31  C   UNL     1       0.002  -0.004   0.002  0.00  0.00    +0.070 C 
BRANCH  31  32
ATOM     32  C   UNL     1       0.848  -0.509   1.173  0.00  0.00    +0.009 C 
ATOM     33  C   UNL     1       2.362  -0.405   0.929  0.00  0.00    +0.005 C 
ATOM     34  C   UNL     1       2.487  -1.776   1.615  0.00  0.00    +0.001 C 
ATOM     35  C   UNL     1       1.034  -2.035   1.185  0.00  0.00    +0.005 C 
ENDBRANCH  31  32
ENDBRANCH  28  31
ENDBRANCH   1  28
TORSDOF 8
