REMARK  Name = ZINC41293077
REMARK  10 active torsions:
REMARK  status: ('A' for Active; 'I' for Inactive)
REMARK    1  A    between atoms: C_1  and  C_2
REMARK    2  A    between atoms: C_2  and  O_3
REMARK    3  A    between atoms: O_3  and  C_4
REMARK    4  A    between atoms: C_7  and  C_10
REMARK    5  A    between atoms: C_12  and  O_13
REMARK    6  A    between atoms: C_22  and  C_24
REMARK    7  A    between atoms: C_26  and  O_32
REMARK    8  A    between atoms: C_28  and  O_30
REMARK    9  A    between atoms: O_30  and  C_31
REMARK   10  A    between atoms: O_32  and  C_33
REMARK                            x       y       z     vdW  Elec       q    Type
REMARK                         _______ _______ _______ _____ _____    ______ ____
ROOT
ATOM      1  C   UNL     1       0.636  -5.786  -1.593  0.00  0.00    +0.139 A 
ATOM      2  C   UNL     1       0.946  -6.170  -2.884  0.00  0.00    +0.093 A 
ATOM      3  C   UNL     1       0.944  -7.523  -3.222  0.00  0.00    +0.131 A 
ATOM      4  C   UNL     1       0.621  -8.469  -2.217  0.00  0.00    +0.059 A 
ATOM      5  C   UNL     1       0.605  -9.843  -2.503  0.00  0.00    +0.017 A 
ATOM      6  C   UNL     1       0.292 -10.736  -1.526  0.00  0.00    +0.024 A 
ATOM      7  C   UNL     1      -0.016 -10.291  -0.229  0.00  0.00    +0.037 A 
ATOM      8  C   UNL     1      -0.004  -8.926   0.070  0.00  0.00    +0.070 A 
ATOM      9  C   UNL     1       0.313  -8.011  -0.918  0.00  0.00    +0.141 A 
ATOM     10  O   UNL     1       0.335  -6.689  -0.646  0.00  0.00    -0.455 OA
ATOM     11  N   UNL     1      -0.327 -11.192   0.740  0.00  0.00    -0.281 N 
ATOM     12  C   UNL     1      -0.306 -10.829   2.015  0.00  0.00    +0.248 C 
ATOM     13  O   UNL     1       0.114  -9.726   2.329  0.00  0.00    -0.270 OA
ATOM     14  H   UNL     1      -0.565 -12.101   0.498  0.00  0.00    +0.155 HD
ENDROOT
BRANCH   1  18
ATOM     15  C   UNL     1       0.652  -1.661  -0.595  0.00  0.00    +0.121 A 
ATOM     16  C   UNL     1       0.342  -2.607   0.375  0.00  0.00    +0.046 A 
ATOM     17  C   UNL     1       0.335  -3.946   0.056  0.00  0.00    +0.015 A 
ATOM     18  C   UNL     1       0.641  -4.354  -1.247  0.00  0.00    +0.018 A 
ATOM     19  C   UNL     1       0.952  -3.398  -2.220  0.00  0.00    +0.015 A 
ATOM     20  C   UNL     1       0.951  -2.061  -1.893  0.00  0.00    +0.046 A 
BRANCH  15  21
ATOM     21  O   UNL     1       0.657  -0.342  -0.276  0.00  0.00    -0.492 OA
BRANCH  21  23
ATOM     22  C   UNL     1       0.398   1.520   1.243  0.00  0.00    +0.048 C 
ATOM     23  C   UNL     1       0.341   0.000   1.075  0.00  0.00    +0.225 C 
ENDBRANCH  21  23
ENDBRANCH  15  21
ENDBRANCH   1  18
BRANCH  12  24
ATOM     24  C   UNL     1      -0.791 -11.762   3.060  0.00  0.00    +0.044 A 
ATOM     25  C   UNL     1      -1.265 -13.023   2.704  0.00  0.00    +0.059 A 
ATOM     26  C   UNL     1      -1.718 -13.893   3.683  0.00  0.00    +0.124 A 
ATOM     27  C   UNL     1      -1.700 -13.509   5.016  0.00  0.00    +0.091 A 
ATOM     28  C   UNL     1      -1.229 -12.255   5.373  0.00  0.00    +0.124 A 
ATOM     29  C   UNL     1      -0.770 -11.382   4.400  0.00  0.00    +0.059 A 
BRANCH  28  30
ATOM     30  O   UNL     1      -1.214 -11.883   6.681  0.00  0.00    -0.495 OA
ATOM     31  C   UNL     1      -1.696 -12.834   7.631  0.00  0.00    +0.277 C 
ENDBRANCH  28  30
BRANCH  26  32
ATOM     32  O   UNL     1      -2.180 -15.123   3.337  0.00  0.00    -0.495 OA
ATOM     33  C   UNL     1      -2.631 -15.969   4.397  0.00  0.00    +0.277 C 
ENDBRANCH  26  32
ENDBRANCH  12  24
BRANCH   3  34
ATOM     34  O   UNL     1       1.245  -7.922  -4.478  0.00  0.00    -0.506 OA
ATOM     35  H   UNL     1       1.450  -7.196  -5.083  0.00  0.00    +0.292 HD
ENDBRANCH   3  34
TORSDOF 7
