REMARK  Name = ZINC06173138
REMARK  11 active torsions:
REMARK  status: ('A' for Active; 'I' for Inactive)
REMARK    1  A    between atoms: C_1  and  C_2
REMARK    2  A    between atoms: C_5  and  S_8
REMARK    3  A    between atoms: S_8  and  C_11
REMARK    4  A    between atoms: C_11  and  N_12
REMARK    5  A    between atoms: C_13  and  C_17
REMARK    6  A    between atoms: C_17  and  C_19
REMARK    7  A    between atoms: C_17  and  N_65
REMARK    8  A    between atoms: C_19  and  C_20
REMARK    9  A    between atoms: C_20  and  C_21
REMARK   10  A    between atoms: C_20  and  C_22
REMARK   11  A    between atoms: N_25  and  C_28
REMARK                            x       y       z     vdW  Elec       q    Type
REMARK                         _______ _______ _______ _____ _____    ______ ____
ROOT
ATOM      1  C   UNL     1       0.101   0.081  -0.143  0.00  0.00    +0.003 C 
ENDROOT
BRANCH   1   7
ATOM      2  C   UNL     1       0.010   2.155   1.103  0.00  0.00    -0.059 C 
ATOM      3  C   UNL     1      -0.571   2.821   2.353  0.00  0.00    +0.086 C 
ATOM      4  N   UNL     1      -0.076   2.126   3.549  0.00  0.00    -0.331 N 
ATOM      5  C   UNL     1      -0.461   0.708   3.528  0.00  0.00    +0.086 C 
ATOM      6  C   UNL     1       0.120   0.043   2.278  0.00  0.00    -0.059 C 
ATOM      7  N   UNL     1      -0.403   0.736   1.083  0.00  0.00    +0.388 N 
ATOM      8  H   UNL     1      -1.428   0.687   1.090  0.00  0.00    -0.081 HD
BRANCH   4   9
ATOM      9  C   UNL     1      -0.529   2.751   4.715  0.00  0.00    +0.065 A 
ATOM     10  C   UNL     1      -0.113   2.292   5.958  0.00  0.00    +0.026 A 
ATOM     11  C   UNL     1      -0.559   2.914   7.108  0.00  0.00    +0.002 A 
ATOM     12  C   UNL     1      -1.427   3.987   7.024  0.00  0.00    +0.003 A 
ATOM     13  C   UNL     1      -1.848   4.445   5.789  0.00  0.00    +0.040 A 
ATOM     14  C   UNL     1      -1.402   3.830   4.633  0.00  0.00    +0.144 A 
ATOM     15  F   UNL     1      -1.815   4.277   3.427  0.00  0.00    -0.204 F 
ENDBRANCH   4   9
ENDBRANCH   1   7
BRANCH   1  17
ATOM     16  N   UNL     1       0.585  -2.415  -0.351  0.00  0.00    -0.209 N 
ATOM     17  C   UNL     1      -0.243  -1.385  -0.093  0.00  0.00    +0.140 A 
ATOM     18  N   UNL     1      -1.409  -1.906   0.203  0.00  0.00    -0.115 NA
ATOM     19  N   UNL     1      -1.302  -3.188   0.137  0.00  0.00    -0.023 NA
ATOM     20  N   UNL     1      -0.097  -3.499  -0.195  0.00  0.00    -0.042 NA
BRANCH  16  21
ATOM     21  C   UNL     1       1.996  -2.322  -0.733  0.00  0.00    +0.318 C 
BRANCH  21  22
ATOM     22  S   UNL     1       3.035  -2.490   0.744  0.00  0.00    +0.017 S 
ATOM     23  O   UNL     1       2.865  -1.363   1.593  0.00  0.00    -0.168 OA
ATOM     24  O   UNL     1       2.937  -3.809   1.263  0.00  0.00    -0.168 OA
BRANCH  22  29
ATOM     25  C   UNL     1       8.700  -2.050  -1.286  0.00  0.00    +0.044 C 
ATOM     26  C   UNL     1       7.285  -2.160  -0.778  0.00  0.00    -0.050 A 
ATOM     27  C   UNL     1       6.601  -1.024  -0.387  0.00  0.00    +0.005 A 
ATOM     28  C   UNL     1       5.303  -1.125   0.078  0.00  0.00    +0.027 A 
ATOM     29  C   UNL     1       4.689  -2.362   0.151  0.00  0.00    +0.090 A 
ATOM     30  C   UNL     1       5.375  -3.498  -0.236  0.00  0.00    +0.027 A 
ATOM     31  C   UNL     1       6.671  -3.396  -0.705  0.00  0.00    +0.005 A 
ENDBRANCH  22  29
ENDBRANCH  21  22
ENDBRANCH  16  21
ENDBRANCH   1  17
BRANCH   1  32
ATOM     32  C   UNL     1      -0.570   0.722  -1.359  0.00  0.00    -0.005 C 
BRANCH  32  33
ATOM     33  C   UNL     1       0.046   0.154  -2.640  0.00  0.00    -0.018 C 
ATOM     34  C   UNL     1      -0.713   0.694  -3.853  0.00  0.00    +0.007 C 
ATOM     35  C   UNL     1       1.514   0.574  -2.729  0.00  0.00    +0.007 C 
ENDBRANCH  32  33
ENDBRANCH   1  32
TORSDOF 8
