REMARK  Name = ZINC01326679
REMARK  4 active torsions:
REMARK  status: ('A' for Active; 'I' for Inactive)
REMARK    1  A    between atoms: C_6  and  N_7
REMARK    2  A    between atoms: C_8  and  C_10
REMARK    3  A    between atoms: C_15  and  C_30
REMARK    4  A    between atoms: C_18  and  C_21
REMARK                            x       y       z     vdW  Elec       q    Type
REMARK                         _______ _______ _______ _____ _____    ______ ____
ROOT
ATOM      1  C   UNL     1      -2.452  -2.813  -0.202  0.00  0.00    +0.149 A 
ATOM      2  C   UNL     1      -2.581  -4.216  -0.315  0.00  0.00    +0.078 A 
ATOM      3  C   UNL     1      -3.896  -4.499  -0.382  0.00  0.00    +0.119 A 
ATOM      4  N   UNL     1      -4.589  -3.324  -0.316  0.00  0.00    -0.238 N 
ATOM      5  N   UNL     1      -3.664  -2.287  -0.198  0.00  0.00    -0.164 NA
ATOM      6  C   UNL     1      -6.051  -3.238  -0.365  0.00  0.00    +0.215 C 
ATOM      7  C   UNL     1      -6.605  -4.534  -0.968  0.00  0.00    +0.063 C 
ATOM      8  C   UNL     1      -5.989  -5.745  -0.257  0.00  0.00    +0.104 C 
ATOM      9  N   UNL     1      -4.532  -5.739  -0.496  0.00  0.00    -0.322 N 
ATOM     10  H   UNL     1      -4.046  -6.547  -0.721  0.00  0.00    +0.148 HD
ENDROOT
BRANCH   8  11
ATOM     11  C   UNL     1      -6.263  -5.656   1.222  0.00  0.00    -0.024 A 
ATOM     12  C   UNL     1      -5.490  -4.833   2.019  0.00  0.00    +0.009 A 
ATOM     13  C   UNL     1      -5.738  -4.749   3.377  0.00  0.00    +0.050 A 
ATOM     14  C   UNL     1      -6.763  -5.490   3.942  0.00  0.00    +0.166 A 
ATOM     15  C   UNL     1      -7.542  -6.319   3.139  0.00  0.00    +0.167 A 
ATOM     16  C   UNL     1      -7.292  -6.394   1.778  0.00  0.00    +0.055 A 
ATOM     17  O   UNL     1      -8.475  -6.935   3.923  0.00  0.00    -0.453 OA
ATOM     18  C   UNL     1      -7.998  -6.788   5.274  0.00  0.00    +0.466 C 
ATOM     19  O   UNL     1      -7.207  -5.586   5.229  0.00  0.00    -0.453 OA
ENDBRANCH   8  11
BRANCH   1  21
ATOM     20  N   UNL     1      -1.199  -0.721   0.010  0.00  0.00    -0.280 N 
ATOM     21  C   UNL     1      -1.183  -2.064  -0.099  0.00  0.00    +0.268 C 
ATOM     22  O   UNL     1      -0.123  -2.660  -0.113  0.00  0.00    -0.268 OA
ATOM     23  H   UNL     1      -2.043  -0.252   0.098  0.00  0.00    +0.155 HD
BRANCH  20  29
ATOM     24  C   UNL     1       1.072  -0.453  -0.767  0.00  0.00    +0.024 A 
ATOM     25  C   UNL     1       2.256   0.258  -0.779  0.00  0.00    +0.017 A 
ATOM     26  C   UNL     1       2.377   1.417  -0.032  0.00  0.00    +0.018 A 
ATOM     27  C   UNL     1       1.312   1.866   0.729  0.00  0.00    +0.017 A 
ATOM     28  C   UNL     1       0.126   1.159   0.746  0.00  0.00    +0.024 A 
ATOM     29  C   UNL     1       0.002  -0.004  -0.004  0.00  0.00    +0.034 A 
ATOM     30 BR   UNL     1       4.000   2.387  -0.051  0.00  0.00    -0.050 Br
ENDBRANCH  20  29
ENDBRANCH   1  21
BRANCH   6  31
ATOM     31  C   UNL     1      -6.466  -2.048  -1.233  0.00  0.00    +0.412 C 
ATOM     32  F   UNL     1      -5.967  -2.220  -2.529  0.00  0.00    -0.168 F 
ATOM     33  F   UNL     1      -7.862  -1.968  -1.278  0.00  0.00    -0.168 F 
ATOM     34  F   UNL     1      -5.949  -0.869  -0.686  0.00  0.00    -0.168 F 
ENDBRANCH   6  31
TORSDOF 4
