REMARK  Name = ZINC35553207
REMARK  10 active torsions:
REMARK  status: ('A' for Active; 'I' for Inactive)
REMARK    1  A    between atoms: C_2  and  C_3
REMARK    2  A    between atoms: C_3  and  N_4
REMARK    3  A    between atoms: N_4  and  C_5
REMARK    4  A    between atoms: N_4  and  C_35
REMARK    5  A    between atoms: C_5  and  C_6
REMARK    6  A    between atoms: C_6  and  N_7
REMARK    7  A    between atoms: C_20  and  C_22
REMARK    8  A    between atoms: C_22  and  C_23
REMARK    9  A    between atoms: C_23  and  C_24
REMARK   10  A    between atoms: C_35  and  C_36
REMARK                            x       y       z     vdW  Elec       q    Type
REMARK                         _______ _______ _______ _____ _____    ______ ____
ROOT
ATOM      1  N   UNL     1      -3.818  -4.473  -1.573  0.00  0.00    +0.383 N 
ATOM      2  C   UNL     1      -5.002  -5.340  -1.638  0.00  0.00    -0.060 C 
ATOM      3  C   UNL     1      -4.845  -6.493  -0.642  0.00  0.00    +0.088 C 
ATOM      4  N   UNL     1      -3.574  -7.180  -0.920  0.00  0.00    -0.318 N 
ATOM      5  C   UNL     1      -2.356  -6.363  -1.035  0.00  0.00    +0.088 C 
ATOM      6  C   UNL     1      -2.630  -5.216  -2.013  0.00  0.00    -0.060 C 
ATOM      7  C   UNL     1      -3.526  -8.554  -1.069  0.00  0.00    +0.133 A 
ATOM      8  C   UNL     1      -3.421  -9.400   0.070  0.00  0.00    +0.051 A 
ATOM      9  C   UNL     1      -3.351  -9.022   1.486  0.00  0.00    -0.025 A 
ATOM     10  C   UNL     1      -3.250 -10.027   2.377  0.00  0.00    -0.004 A 
ATOM     11  S   UNL     1      -3.253 -11.513   1.406  0.00  0.00    -0.073 S 
ATOM     12  C   UNL     1      -3.381 -10.781  -0.203  0.00  0.00    +0.114 A 
ATOM     13  N   UNL     1      -3.438 -11.242  -1.438  0.00  0.00    -0.225 NA
ATOM     14  C   UNL     1      -3.535 -10.408  -2.455  0.00  0.00    +0.133 A 
ATOM     15  N   UNL     1      -3.583  -9.100  -2.273  0.00  0.00    -0.217 NA
ATOM     16  C   UNL     1      -3.144  -9.927   3.867  0.00  0.00    +0.043 C 
ATOM     17  C   UNL     1      -4.236  -8.985   4.391  0.00  0.00    +0.005 C 
ATOM     18  C   UNL     1      -3.680  -7.565   4.405  0.00  0.00    +0.001 C 
ATOM     19  C   UNL     1      -2.697  -7.377   3.251  0.00  0.00    +0.005 C 
ATOM     20  C   UNL     1      -3.403  -7.557   1.912  0.00  0.00    +0.037 C 
ATOM     21  H   UNL     1      -3.686  -4.160  -0.624  0.00  0.00    -0.082 HD
ENDROOT
BRANCH   1  22
ATOM     22  C   UNL     1      -4.017  -3.309  -2.447  0.00  0.00    -0.063 C 
BRANCH  22  23
ATOM     23  C   UNL     1      -5.179  -2.466  -1.918  0.00  0.00    +0.066 C 
BRANCH  23  24
ATOM     24  N   UNL     1      -5.377  -1.302  -2.792  0.00  0.00    -0.297 NA
BRANCH  24  25
ATOM     25  C   UNL     1      -4.226  -0.392  -2.726  0.00  0.00    +0.111 C 
BRANCH  25  27
ATOM     26  C   UNL     1      -4.252   1.861  -3.666  0.00  0.00    +0.005 C 
ATOM     27  C   UNL     1      -4.280   0.570  -3.885  0.00  0.00    -0.019 C 
ENDBRANCH  25  27
ENDBRANCH  24  25
BRANCH  24  28
ATOM     28  C   UNL     1      -6.624  -0.600  -2.458  0.00  0.00    +0.111 C 
BRANCH  28  29
ATOM     29  C   UNL     1      -7.797  -1.513  -2.705  0.00  0.00    -0.019 C 
ATOM     30  C   UNL     1      -8.661  -1.742  -1.748  0.00  0.00    +0.005 C 
ENDBRANCH  28  29
ENDBRANCH  24  28
ENDBRANCH  23  24
ENDBRANCH  22  23
ENDBRANCH   1  22
BRANCH  14  31
ATOM     31  C   UNL     1      -3.598 -10.960  -3.856  0.00  0.00    +0.081 C 
BRANCH  31  32
ATOM     32  C   UNL     1      -5.058 -11.206  -4.242  0.00  0.00    +0.043 C 
BRANCH  32  33
ATOM     33  C   UNL     1      -5.122 -11.757  -5.643  0.00  0.00    -0.047 A 
ATOM     34  C   UNL     1      -5.218 -10.897  -6.721  0.00  0.00    +0.003 A 
ATOM     35  C   UNL     1      -5.276 -11.402  -8.006  0.00  0.00    +0.000 A 
ATOM     36  C   UNL     1      -5.237 -12.769  -8.213  0.00  0.00    +0.000 A 
ATOM     37  C   UNL     1      -5.140 -13.629  -7.136  0.00  0.00    +0.000 A 
ATOM     38  C   UNL     1      -5.078 -13.123  -5.851  0.00  0.00    +0.003 A 
ENDBRANCH  32  33
ENDBRANCH  31  32
ENDBRANCH  14  31
TORSDOF 10
