REMARK  Name = ZINC13211254
REMARK  7 active torsions:
REMARK  status: ('A' for Active; 'I' for Inactive)
REMARK    1  A    between atoms: C_3  and  N_21
REMARK    2  A    between atoms: C_4  and  S_10
REMARK    3  A    between atoms: C_6  and  N_7
REMARK    4  A    between atoms: S_10  and  N_13
REMARK    5  A    between atoms: C_16  and  C_19
REMARK    6  A    between atoms: N_21  and  C_22
REMARK    7  A    between atoms: C_22  and  C_23
REMARK                            x       y       z     vdW  Elec       q    Type
REMARK                         _______ _______ _______ _____ _____    ______ ____
ROOT
ATOM      1  C   UNL     1      -1.554   9.361  -1.000  0.00  0.00    +0.034 A 
ATOM      2  C   UNL     1      -1.456   8.013  -0.716  0.00  0.00    +0.027 A 
ATOM      3  C   UNL     1      -2.084   7.085  -1.538  0.00  0.00    +0.054 A 
ATOM      4  C   UNL     1      -2.803   7.517  -2.645  0.00  0.00    +0.128 A 
ATOM      5  C   UNL     1      -2.901   8.866  -2.920  0.00  0.00    +0.063 A 
ATOM      6  C   UNL     1      -2.275   9.788  -2.100  0.00  0.00    +0.128 A 
ENDROOT
BRANCH   6   7
ATOM      7  N   UNL     1      -2.377  11.233  -2.400  0.00  0.00    +0.056 N 
ATOM      8  O   UNL     1      -1.826  12.046  -1.679  0.00  0.00    -0.126 OA
ATOM      9  O   UNL     1      -3.013  11.610  -3.369  0.00  0.00    -0.126 OA
ENDBRANCH   6   7
BRANCH   4  10
ATOM     10  S   UNL     1      -3.595   6.343  -3.695  0.00  0.00    +0.063 S 
ATOM     11  O   UNL     1      -4.262   5.422  -2.843  0.00  0.00    -0.153 OA
ATOM     12  O   UNL     1      -4.276   7.088  -4.695  0.00  0.00    -0.153 OA
BRANCH  10  13
ATOM     13  N   UNL     1      -2.402   5.494  -4.468  0.00  0.00    -0.176 NA
ATOM     14  C   UNL     1      -1.764   6.031  -5.678  0.00  0.00    +0.110 C 
ATOM     15  C   UNL     1      -1.852   4.988  -6.791  0.00  0.00    +0.032 C 
ATOM     16  C   UNL     1      -1.254   3.668  -6.298  0.00  0.00    +0.105 C 
ATOM     17  C   UNL     1      -2.053   3.162  -5.095  0.00  0.00    +0.032 C 
ATOM     18  C   UNL     1      -1.964   4.187  -3.960  0.00  0.00    +0.110 C 
BRANCH  16  19
ATOM     19  C   UNL     1      -1.311   2.647  -7.404  0.00  0.00    +0.359 C 
ATOM     20  O   UNL     1      -1.928   1.620  -7.247  0.00  0.00    -0.246 OA
ATOM     21  O   UNL     1      -0.677   2.878  -8.565  0.00  0.00    -0.246 OA
ENDBRANCH  16  19
ENDBRANCH  10  13
ENDBRANCH   4  10
BRANCH   3  22
ATOM     22  N   UNL     1      -1.987   5.721  -1.254  0.00  0.00    -0.342 N 
ATOM     23  H   UNL     1      -2.342   5.069  -1.879  0.00  0.00    +0.146 HD
BRANCH  22  24
ATOM     24  C   UNL     1      -1.350   5.274  -0.013  0.00  0.00    +0.108 C 
BRANCH  24  25
ATOM     25  C   UNL     1      -1.392   3.747   0.061  0.00  0.00    -0.013 C 
ATOM     26  C   UNL     1      -0.521   3.158  -1.051  0.00  0.00    +0.012 C 
ATOM     27  C   UNL     1      -0.563   1.631  -0.978  0.00  0.00    -0.010 C 
ATOM     28  C   UNL     1      -0.033   1.171   0.382  0.00  0.00    +0.007 C 
ATOM     29  C   UNL     1      -0.904   1.759   1.494  0.00  0.00    -0.010 C 
ATOM     30  C   UNL     1      -0.862   3.287   1.421  0.00  0.00    +0.012 C 
ATOM     31  C   UNL     1      -2.346   1.279   1.320  0.00  0.00    +0.007 C 
ATOM     32  C   UNL     1      -2.876   1.739  -0.040  0.00  0.00    -0.010 C 
ATOM     33  C   UNL     1      -2.005   1.151  -1.152  0.00  0.00    +0.007 C 
ATOM     34  C   UNL     1      -2.834   3.267  -0.114  0.00  0.00    +0.012 C 
ENDBRANCH  24  25
ENDBRANCH  22  24
ENDBRANCH   3  22
TORSDOF 7
