REMARK  Name = ZINC31158607
REMARK  9 active torsions:
REMARK  status: ('A' for Active; 'I' for Inactive)
REMARK    1  A    between atoms: C_1  and  C_2
REMARK    2  A    between atoms: C_7  and  C_34
REMARK    3  A    between atoms: C_8  and  C_10
REMARK    4  A    between atoms: C_10  and  C_11
REMARK    5  A    between atoms: C_12  and  O_25
REMARK    6  A    between atoms: C_14  and  O_24
REMARK    7  A    between atoms: C_18  and  O_23
REMARK    8  A    between atoms: C_29  and  C_30
REMARK    9  A    between atoms: C_29  and  C_31
REMARK                            x       y       z     vdW  Elec       q    Type
REMARK                         _______ _______ _______ _____ _____    ______ ____
ROOT
ATOM      1  C   UNL     1      -1.197   2.268  -0.312  0.00  0.00    +0.039 C 
ATOM      2  C   UNL     1      -1.473   2.370   1.166  0.00  0.00    -0.073 C 
ATOM      3  C   UNL     1      -2.696   2.541   1.545  0.00  0.00    -0.027 C 
ATOM      4  C   UNL     1      -3.127   2.653   2.973  0.00  0.00    +0.032 C 
ATOM      5  C   UNL     1      -2.034   2.248   3.953  0.00  0.00    +0.016 C 
ATOM      6  C   UNL     1      -0.677   2.771   3.499  0.00  0.00    -0.021 C 
ATOM      7  C   UNL     1      -0.309   2.266   2.105  0.00  0.00    +0.023 C 
ATOM      8  C   UNL     1       0.408   2.342   4.495  0.00  0.00    +0.007 C 
ATOM      9  C   UNL     1       0.420   0.818   4.611  0.00  0.00    +0.002 C 
ATOM     10  C   UNL     1      -0.910   0.355   5.195  0.00  0.00    +0.018 C 
ATOM     11  C   UNL     1      -2.082   0.777   4.307  0.00  0.00    +0.073 C 
ATOM     12  C   UNL     1      -2.136  -0.120   3.070  0.00  0.00    +0.023 C 
ATOM     13  C   UNL     1      -0.711   4.315   3.470  0.00  0.00    +0.012 C 
ENDROOT
BRANCH  11  14
ATOM     14  C   UNL     1      -3.351   0.519   5.112  0.00  0.00    +0.362 C 
ATOM     15  O   UNL     1      -4.107   1.429   5.356  0.00  0.00    -0.246 OA
ATOM     16  O   UNL     1      -3.627  -0.720   5.550  0.00  0.00    -0.246 OA
ENDBRANCH  11  14
BRANCH   7  17
ATOM     17  C   UNL     1       0.833   3.126   1.544  0.00  0.00    +0.049 C 
BRANCH  17  18
ATOM     18  C   UNL     1       1.543   2.364   0.424  0.00  0.00    +0.128 C 
ATOM     19  C   UNL     1       1.562   0.865   0.608  0.00  0.00    +0.182 C 
ATOM     20  C   UNL     1       2.504   0.150  -0.340  0.00  0.00    +0.174 C 
ATOM     21  C   UNL     1       3.798   0.882  -0.502  0.00  0.00    -0.015 C 
ATOM     22  C   UNL     1       4.923   0.239  -0.306  0.00  0.00    +0.013 C 
ATOM     23  C   UNL     1       3.844   2.331  -0.884  0.00  0.00    +0.174 C 
ATOM     24  C   UNL     1       2.702   3.097  -0.224  0.00  0.00    +0.186 C 
ATOM     25  O   UNL     1       1.419   2.955  -0.859  0.00  0.00    -0.359 OA
BRANCH  23  26
ATOM     26  O   UNL     1       5.090   2.889  -0.464  0.00  0.00    -0.385 OA
ATOM     27  H   UNL     1       5.311   3.950  -0.657  0.00  0.00    +0.210 HD
ENDBRANCH  23  26
BRANCH  20  28
ATOM     28  O   UNL     1       2.771  -1.158   0.170  0.00  0.00    -0.385 OA
ATOM     29  H   UNL     1       3.438  -1.838  -0.381  0.00  0.00    +0.210 HD
ENDBRANCH  20  28
BRANCH  19  30
ATOM     30  O   UNL     1       0.240   0.363   0.404  0.00  0.00    -0.386 OA
ATOM     31  H   UNL     1       0.042  -0.715   0.494  0.00  0.00    +0.210 HD
ENDBRANCH  19  30
ENDBRANCH  17  18
ENDBRANCH   7  17
TORSDOF 6
