REMARK  Name = ZINC41586394
REMARK  11 active torsions:
REMARK  status: ('A' for Active; 'I' for Inactive)
REMARK    1  A    between atoms: C_1  and  C_2
REMARK    2  A    between atoms: C_2  and  C_3
REMARK    3  A    between atoms: C_6  and  C_9
REMARK    4  A    between atoms: C_14  and  C_34
REMARK    5  A    between atoms: C_16  and  O_33
REMARK    6  A    between atoms: C_17  and  C_20
REMARK    7  A    between atoms: C_20  and  N_21
REMARK    8  A    between atoms: C_25  and  C_28
REMARK    9  A    between atoms: C_28  and  O_30
REMARK   10  A    between atoms: O_30  and  C_31
REMARK   11  A    between atoms: C_31  and  C_32
REMARK                            x       y       z     vdW  Elec       q    Type
REMARK                         _______ _______ _______ _____ _____    ______ ____
ROOT
ATOM      1  C   UNL     1       2.782  -1.908   4.658  0.00  0.00    +0.058 C 
ATOM      2  C   UNL     1       2.117  -2.059   5.830  0.00  0.00    +0.176 C 
ATOM      3  C   UNL     1       2.710  -2.429   7.126  0.00  0.00    +0.232 C 
ATOM      4  O   UNL     1       3.881  -2.662   7.370  0.00  0.00    -0.283 OA
ATOM      5  C   UNL     1       1.571  -2.454   8.060  0.00  0.00    +0.071 A 
ATOM      6  C   UNL     1       1.460  -2.731   9.424  0.00  0.00    -0.033 A 
ATOM      7  C   UNL     1       0.239  -2.674  10.033  0.00  0.00    +0.050 A 
ATOM      8  C   UNL     1      -0.895  -2.340   9.297  0.00  0.00    +0.122 A 
ATOM      9  C   UNL     1      -0.800  -2.063   7.943  0.00  0.00    +0.020 A 
ATOM     10  C   UNL     1       0.434  -2.116   7.308  0.00  0.00    +0.145 A 
ATOM     11  O   UNL     1       0.788  -1.889   6.024  0.00  0.00    -0.451 OA
ATOM     12  C   UNL     1       2.686  -3.093  10.222  0.00  0.00    +0.045 C 
ENDROOT
BRANCH   1  16
ATOM     13  C   UNL     1       0.732  -0.500   1.224  0.00  0.00    -0.048 A 
ATOM     14  C   UNL     1       2.103  -0.683   1.180  0.00  0.00    +0.004 A 
ATOM     15  C   UNL     1       2.777  -1.141   2.292  0.00  0.00    +0.008 A 
ATOM     16  C   UNL     1       2.071  -1.420   3.468  0.00  0.00    -0.021 A 
ATOM     17  C   UNL     1       0.685  -1.232   3.504  0.00  0.00    +0.008 A 
ATOM     18  C   UNL     1       0.027  -0.768   2.385  0.00  0.00    +0.004 A 
BRANCH  13  20
ATOM     19  C   UNL     1      -0.041   1.530   0.027  0.00  0.00    +0.009 C 
ATOM     20  C   UNL     1       0.003   0.001   0.003  0.00  0.00    +0.032 C 
ENDBRANCH  13  20
ENDBRANCH   1  16
BRANCH   8  21
ATOM     21  O   UNL     1      -2.104  -2.286   9.912  0.00  0.00    -0.506 OA
ATOM     22  H   UNL     1      -2.323  -1.417  10.274  0.00  0.00    +0.292 HD
ENDBRANCH   8  21
BRANCH   9  23
ATOM     23  C   UNL     1      -2.036  -1.703   7.159  0.00  0.00    -0.036 C 
BRANCH  23  24
ATOM     24  N   UNL     1      -2.232  -0.248   7.193  0.00  0.00    +0.383 N 
ATOM     25  C   UNL     1      -1.117   0.410   6.500  0.00  0.00    -0.078 C 
ATOM     26  C   UNL     1      -1.274   1.929   6.603  0.00  0.00    -0.018 C 
ATOM     27  C   UNL     1      -2.597   2.345   5.954  0.00  0.00    +0.011 C 
ATOM     28  C   UNL     1      -3.746   1.596   6.636  0.00  0.00    +0.081 C 
ATOM     29  C   UNL     1      -3.498   0.090   6.532  0.00  0.00    -0.064 C 
ATOM     30  H   UNL     1      -2.260   0.065   8.152  0.00  0.00    -0.081 HD
BRANCH  28  31
ATOM     31  C   UNL     1      -5.045   1.941   5.955  0.00  0.00    +0.308 C 
ATOM     32  O   UNL     1      -5.708   1.071   5.442  0.00  0.00    -0.251 OA
BRANCH  31  33
ATOM     33  O   UNL     1      -5.466   3.215   5.918  0.00  0.00    -0.465 OA
BRANCH  33  34
ATOM     34  C   UNL     1      -6.707   3.470   5.256  0.00  0.00    +0.229 C 
ATOM     35  C   UNL     1      -7.019   4.966   5.316  0.00  0.00    +0.048 C 
ENDBRANCH  33  34
ENDBRANCH  31  33
ENDBRANCH  28  31
ENDBRANCH  23  24
ENDBRANCH   9  23
TORSDOF 8
