REMARK  Name = ZINC20323545
REMARK  6 active torsions:
REMARK  status: ('A' for Active; 'I' for Inactive)
REMARK    1  A    between atoms: C_1  and  C_2
REMARK    2  A    between atoms: C_5  and  S_8
REMARK    3  A    between atoms: S_8  and  N_11
REMARK    4  A    between atoms: N_11  and  N_12
REMARK    5  A    between atoms: C_14  and  C_23
REMARK    6  A    between atoms: N_25  and  C_26
REMARK                            x       y       z     vdW  Elec       q    Type
REMARK                         _______ _______ _______ _____ _____    ______ ____
ROOT
ATOM      1  N   UNL     1       0.409   5.024   0.341  0.00  0.00    -0.260 N 
ATOM      2  C   UNL     1       1.607   4.511   0.354  0.00  0.00    +0.225 A 
ATOM      3  C   UNL     1       1.818   3.059   0.149  0.00  0.00    +0.099 A 
ATOM      4  C   UNL     1       3.030   2.667  -0.367  0.00  0.00    +0.030 A 
ATOM      5  C   UNL     1       4.006   3.716  -0.683  0.00  0.00    +0.018 A 
ATOM      6  C   UNL     1       5.137   3.432  -1.455  0.00  0.00    +0.011 A 
ATOM      7  C   UNL     1       6.039   4.435  -1.738  0.00  0.00    +0.001 A 
ATOM      8  C   UNL     1       5.830   5.720  -1.263  0.00  0.00    +0.004 A 
ATOM      9  C   UNL     1       4.718   6.014  -0.497  0.00  0.00    +0.047 A 
ATOM     10  C   UNL     1       3.800   5.020  -0.199  0.00  0.00    +0.137 A 
ATOM     11  O   UNL     1       2.706   5.294   0.556  0.00  0.00    -0.437 OA
ATOM     12  H   UNL     1      -0.471   4.365   0.323  0.00  0.00    +0.189 HD
ENDROOT
BRANCH   3  13
ATOM     13  C   UNL     1       0.775   2.077   0.490  0.00  0.00    +0.253 C 
ATOM     14  O   UNL     1       0.883   0.923   0.120  0.00  0.00    -0.270 OA
ATOM     15  N   UNL     1      -0.300   2.458   1.207  0.00  0.00    -0.281 N 
ATOM     16  H   UNL     1      -0.444   3.518   1.462  0.00  0.00    +0.155 HD
BRANCH  15  17
ATOM     17  C   UNL     1      -1.234   1.504   1.627  0.00  0.00    +0.034 A 
ATOM     18  C   UNL     1      -0.810   0.240   2.016  0.00  0.00    +0.025 A 
ATOM     19  C   UNL     1      -1.734  -0.697   2.436  0.00  0.00    +0.022 A 
ATOM     20  C   UNL     1      -3.081  -0.382   2.457  0.00  0.00    +0.041 A 
ATOM     21  C   UNL     1      -3.506   0.875   2.064  0.00  0.00    +0.022 A 
ATOM     22  C   UNL     1      -2.587   1.818   1.650  0.00  0.00    +0.025 A 
ATOM     23 CL   UNL     1      -4.239  -1.565   2.978  0.00  0.00    -0.084 Cl
ENDBRANCH  15  17
ENDBRANCH   3  13
BRANCH   1  24
ATOM     24  N   UNL     1       0.243   6.415   0.350  0.00  0.00    -0.157 N 
ATOM     25  H   UNL     1       1.014   6.995   0.447  0.00  0.00    +0.194 HD
BRANCH  24  26
ATOM     26  S   UNL     1      -1.271   7.069   0.197  0.00  0.00    +0.085 S 
ATOM     27  O   UNL     1      -1.110   8.480   0.250  0.00  0.00    -0.149 OA
ATOM     28  O   UNL     1      -1.887   6.413  -0.902  0.00  0.00    -0.149 OA
BRANCH  26  33
ATOM     29  C   UNL     1      -4.398   5.506   5.114  0.00  0.00    +0.044 C 
ATOM     30  C   UNL     1      -3.616   5.896   3.886  0.00  0.00    -0.050 A 
ATOM     31  C   UNL     1      -2.765   6.984   3.926  0.00  0.00    +0.005 A 
ATOM     32  C   UNL     1      -2.049   7.343   2.799  0.00  0.00    +0.029 A 
ATOM     33  C   UNL     1      -2.183   6.612   1.633  0.00  0.00    +0.110 A 
ATOM     34  C   UNL     1      -3.039   5.527   1.592  0.00  0.00    +0.029 A 
ATOM     35  C   UNL     1      -3.751   5.166   2.720  0.00  0.00    +0.005 A 
ENDBRANCH  26  33
ENDBRANCH  24  26
ENDBRANCH   1  24
TORSDOF 5
