REMARK  Name = ZINC41586529
REMARK  10 active torsions:
REMARK  status: ('A' for Active; 'I' for Inactive)
REMARK    1  A    between atoms: C_1  and  C_2
REMARK    2  A    between atoms: C_2  and  N_3
REMARK    3  A    between atoms: C_5  and  C_12
REMARK    4  A    between atoms: C_19  and  O_36
REMARK    5  A    between atoms: C_20  and  C_23
REMARK    6  A    between atoms: C_23  and  N_24
REMARK    7  A    between atoms: C_28  and  C_31
REMARK    8  A    between atoms: C_31  and  O_33
REMARK    9  A    between atoms: O_33  and  C_34
REMARK   10  A    between atoms: C_34  and  C_35
REMARK                            x       y       z     vdW  Elec       q    Type
REMARK                         _______ _______ _______ _____ _____    ______ ____
ROOT
ATOM      1  C   UNL     1      -4.364  -1.773   1.679  0.00  0.00    +0.060 C 
ATOM      2  C   UNL     1      -4.138  -1.820   3.021  0.00  0.00    +0.176 C 
ATOM      3  C   UNL     1      -5.062  -2.262   4.004  0.00  0.00    +0.231 C 
ATOM      4  O   UNL     1      -6.198  -2.668   3.823  0.00  0.00    -0.283 OA
ATOM      5  C   UNL     1      -4.355  -2.123   5.289  0.00  0.00    +0.068 A 
ATOM      6  C   UNL     1      -4.709  -2.385   6.613  0.00  0.00    +0.019 A 
ATOM      7  C   UNL     1      -3.812  -2.147   7.616  0.00  0.00    +0.046 A 
ATOM      8  C   UNL     1      -2.547  -1.646   7.321  0.00  0.00    +0.122 A 
ATOM      9  C   UNL     1      -2.182  -1.381   6.011  0.00  0.00    +0.020 A 
ATOM     10  C   UNL     1      -3.082  -1.617   4.981  0.00  0.00    +0.144 A 
ATOM     11  O   UNL     1      -2.990  -1.458   3.643  0.00  0.00    -0.451 OA
ENDROOT
BRANCH   1  14
ATOM     12  N   UNL     1      -1.372  -0.511   0.012  0.00  0.00    -0.346 N 
ATOM     13  C   UNL     1      -2.055  -0.870   1.128  0.00  0.00    +0.094 A 
ATOM     14  C   UNL     1      -3.316  -1.300   0.776  0.00  0.00    +0.004 A 
ATOM     15  C   UNL     1      -3.397  -1.188  -0.693  0.00  0.00    +0.007 A 
ATOM     16  C   UNL     1      -2.155  -0.684  -1.111  0.00  0.00    +0.050 A 
ATOM     17  C   UNL     1      -1.931  -0.464  -2.466  0.00  0.00    +0.026 A 
ATOM     18  C   UNL     1      -2.924  -0.736  -3.381  0.00  0.00    +0.002 A 
ATOM     19  C   UNL     1      -4.152  -1.230  -2.966  0.00  0.00    +0.001 A 
ATOM     20  C   UNL     1      -4.391  -1.463  -1.628  0.00  0.00    +0.010 A 
BRANCH  12  22
ATOM     21  C   UNL     1      -0.019   1.526   0.010  0.00  0.00    +0.027 C 
ATOM     22  C   UNL     1       0.002  -0.004   0.002  0.00  0.00    +0.118 C 
ENDBRANCH  12  22
ENDBRANCH   1  14
BRANCH   8  23
ATOM     23  O   UNL     1      -1.664  -1.413   8.326  0.00  0.00    -0.506 OA
ATOM     24  H   UNL     1      -1.100  -2.169   8.537  0.00  0.00    +0.292 HD
ENDBRANCH   8  23
BRANCH   9  25
ATOM     25  C   UNL     1      -0.810  -0.838   5.705  0.00  0.00    -0.036 C 
BRANCH  25  26
ATOM     26  N   UNL     1       0.119  -1.953   5.479  0.00  0.00    +0.383 N 
ATOM     27  C   UNL     1       0.266  -2.724   6.720  0.00  0.00    -0.078 C 
ATOM     28  C   UNL     1       1.169  -3.933   6.469  0.00  0.00    -0.018 C 
ATOM     29  C   UNL     1       2.545  -3.448   6.002  0.00  0.00    +0.011 C 
ATOM     30  C   UNL     1       2.372  -2.583   4.750  0.00  0.00    +0.081 C 
ATOM     31  C   UNL     1       1.424  -1.424   5.064  0.00  0.00    -0.064 C 
ATOM     32  H   UNL     1      -0.246  -2.552   4.754  0.00  0.00    -0.081 HD
BRANCH  30  33
ATOM     33  C   UNL     1       3.712  -2.038   4.326  0.00  0.00    +0.308 C 
ATOM     34  O   UNL     1       3.890  -0.845   4.277  0.00  0.00    -0.251 OA
BRANCH  33  35
ATOM     35  O   UNL     1       4.707  -2.880   4.004  0.00  0.00    -0.465 OA
BRANCH  35  36
ATOM     36  C   UNL     1       5.950  -2.294   3.611  0.00  0.00    +0.229 C 
ATOM     37  C   UNL     1       6.954  -3.401   3.285  0.00  0.00    +0.048 C 
ENDBRANCH  35  36
ENDBRANCH  33  35
ENDBRANCH  30  33
ENDBRANCH  25  26
ENDBRANCH   9  25
TORSDOF 8
