REMARK  Name = ZINC31362585
REMARK  14 active torsions:
REMARK  status: ('A' for Active; 'I' for Inactive)
REMARK    1  A    between atoms: C_1  and  C_2
REMARK    2  A    between atoms: C_2  and  C_3
REMARK    3  A    between atoms: C_3  and  C_4
REMARK    4  A    between atoms: C_4  and  N_5
REMARK    5  A    between atoms: C_8  and  C_18
REMARK    6  A    between atoms: N_11  and  C_14
REMARK    7  A    between atoms: C_14  and  C_15
REMARK    8  A    between atoms: C_19  and  C_20
REMARK    9  A    between atoms: N_24  and  C_34
REMARK   10  A    between atoms: N_27  and  C_30
REMARK   11  A    between atoms: C_30  and  C_31
REMARK   12  A    between atoms: C_34  and  C_35
REMARK   13  A    between atoms: C_35  and  C_36
REMARK   14  A    between atoms: C_36  and  C_37
REMARK                            x       y       z     vdW  Elec       q    Type
REMARK                         _______ _______ _______ _____ _____    ______ ____
ROOT
ATOM      1  C   UNL     1      -4.603  10.033   1.086  0.00  0.00    +0.019 C 
ATOM      2  C   UNL     1      -3.560   9.331   1.550  0.00  0.00    +0.002 C 
ENDROOT
BRANCH   2   3
ATOM      3  C   UNL     1      -3.541   7.925   1.419  0.00  0.00    +0.018 C 
ATOM      4  C   UNL     1      -2.418   7.211   1.796  0.00  0.00    +0.100 C 
ATOM      5  C   UNL     1      -2.430   5.736   1.867  0.00  0.00    +0.259 C 
ATOM      6  O   UNL     1      -3.434   5.105   1.595  0.00  0.00    -0.269 OA
ATOM      7  N   UNL     1      -1.297   5.107   2.242  0.00  0.00    -0.221 N 
ATOM      8  C   UNL     1      -0.185   5.790   2.550  0.00  0.00    +0.318 C 
ATOM      9  O   UNL     1       0.800   5.163   2.885  0.00  0.00    -0.252 OA
ATOM     10  N   UNL     1      -0.100   7.127   2.502  0.00  0.00    -0.210 N 
ATOM     11  C   UNL     1      -1.154   7.889   2.144  0.00  0.00    +0.260 C 
ATOM     12  O   UNL     1      -1.065   9.101   2.110  0.00  0.00    -0.269 OA
BRANCH  10  13
ATOM     13  C   UNL     1       1.166   7.776   2.853  0.00  0.00    +0.243 C 
BRANCH  13  14
ATOM     14  C   UNL     1       1.188   8.066   4.332  0.00  0.00    +0.374 C 
ATOM     15  O   UNL     1       0.243   7.763   5.021  0.00  0.00    -0.245 OA
ATOM     16  O   UNL     1       2.257   8.663   4.882  0.00  0.00    -0.245 OA
ENDBRANCH  13  14
ENDBRANCH  10  13
BRANCH   7  17
ATOM     17  C   UNL     1      -1.283   3.644   2.320  0.00  0.00    +0.118 C 
BRANCH  17  18
ATOM     18  C   UNL     1      -0.860   3.066   0.968  0.00  0.00    +0.019 C 
BRANCH  18  19
ATOM     19  C   UNL     1      -0.845   1.538   1.050  0.00  0.00    -0.002 C 
ATOM     20  C   UNL     1      -0.423   0.959  -0.301  0.00  0.00    +0.004 C 
ENDBRANCH  18  19
ENDBRANCH  17  18
ENDBRANCH   7  17
ENDBRANCH   2   3
BRANCH   1  24
ATOM     21  N   UNL     1      -6.737  12.751   1.488  0.00  0.00    -0.260 N 
ATOM     22  C   UNL     1      -5.838  11.914   2.050  0.00  0.00    +0.268 A 
ATOM     23  O   UNL     1      -5.997  11.484   3.172  0.00  0.00    -0.267 OA
ATOM     24  C   UNL     1      -4.624  11.533   1.225  0.00  0.00    +0.104 A 
ATOM     25  C   UNL     1      -4.540  12.137  -0.164  0.00  0.00    +0.268 A 
ATOM     26  O   UNL     1      -3.608  11.894  -0.900  0.00  0.00    -0.267 OA
ATOM     27  N   UNL     1      -5.541  12.956  -0.550  0.00  0.00    -0.249 N 
ATOM     28  C   UNL     1      -6.577  13.235   0.251  0.00  0.00    +0.335 A 
ATOM     29  O   UNL     1      -7.434  13.982  -0.177  0.00  0.00    -0.246 OA
BRANCH  21  30
ATOM     30  C   UNL     1      -7.922  13.140   2.255  0.00  0.00    +0.130 C 
BRANCH  30  31
ATOM     31  C   UNL     1      -7.617  14.407   3.057  0.00  0.00    +0.022 C 
BRANCH  31  33
ATOM     32  C   UNL     1      -8.549  16.081   4.661  0.00  0.00    +0.004 C 
ATOM     33  C   UNL     1      -8.855  14.814   3.859  0.00  0.00    -0.002 C 
ENDBRANCH  31  33
ENDBRANCH  30  31
ENDBRANCH  21  30
BRANCH  27  34
ATOM     34  C   UNL     1      -5.492  13.558  -1.884  0.00  0.00    +0.254 C 
BRANCH  34  35
ATOM     35  C   UNL     1      -4.768  14.878  -1.814  0.00  0.00    +0.376 C 
ATOM     36  O   UNL     1      -4.337  15.275  -0.757  0.00  0.00    -0.244 OA
ATOM     37  O   UNL     1      -4.602  15.613  -2.925  0.00  0.00    -0.244 OA
ENDBRANCH  34  35
ENDBRANCH  27  34
ENDBRANCH   1  24
TORSDOF 12
