REMARK  Name = ZINC58945123
REMARK  7 active torsions:
REMARK  status: ('A' for Active; 'I' for Inactive)
REMARK    1  A    between atoms: C_1  and  C_2
REMARK    2  A    between atoms: C_6  and  N_8
REMARK    3  A    between atoms: C_9  and  C_11
REMARK    4  A    between atoms: N_16  and  C_27
REMARK    5  A    between atoms: N_18  and  C_19
REMARK    6  A    between atoms: C_27  and  C_28
REMARK    7  A    between atoms: C_28  and  C_29
REMARK                            x       y       z     vdW  Elec       q    Type
REMARK                         _______ _______ _______ _____ _____    ______ ____
ROOT
ATOM      1  C   UNL     1      -0.129  -4.898   3.686  0.00  0.00    +0.149 C 
ATOM      2  C   UNL     1      -0.907  -6.198   3.471  0.00  0.00    +0.120 C 
ATOM      3  C   UNL     1      -0.861  -7.092   4.662  0.00  0.00    +0.223 C 
ATOM      4  O   UNL     1      -1.810  -7.834   4.800  0.00  0.00    -0.275 OA
ATOM      5  N   UNL     1       0.080  -7.184   5.591  0.00  0.00    -0.250 N 
ATOM      6  C   UNL     1       1.164  -6.332   5.688  0.00  0.00    +0.164 C 
ATOM      7  N   UNL     1       1.883  -6.263   6.783  0.00  0.00    -0.226 NA
ATOM      8  S   UNL     1       1.542  -5.333   4.272  0.00  0.00    -0.077 S 
ENDROOT
BRANCH   7   9
ATOM      9  C   UNL     1       2.951  -5.408   6.848  0.00  0.00    +0.068 A 
ATOM     10  C   UNL     1       3.850  -5.326   5.782  0.00  0.00    +0.028 A 
ATOM     11  C   UNL     1       4.924  -4.463   5.854  0.00  0.00    +0.003 A 
ATOM     12  C   UNL     1       5.112  -3.680   6.979  0.00  0.00    +0.020 A 
ATOM     13  C   UNL     1       4.226  -3.756   8.040  0.00  0.00    +0.043 A 
ATOM     14  C   UNL     1       3.143  -4.611   7.978  0.00  0.00    +0.047 A 
ATOM     15 CL   UNL     1       4.472  -2.770   9.447  0.00  0.00    -0.083 Cl
ENDBRANCH   7   9
BRANCH   1  17
ATOM     16  N   UNL     1       0.052  -2.797   2.393  0.00  0.00    -0.285 N 
ATOM     17  C   UNL     1      -0.031  -4.143   2.385  0.00  0.00    +0.231 C 
ATOM     18  O   UNL     1      -0.028  -4.745   1.333  0.00  0.00    -0.274 OA
ATOM     19  H   UNL     1       0.127  -2.321   3.234  0.00  0.00    +0.155 HD
BRANCH  16  25
ATOM     20  C   UNL     1       1.524   1.061  -0.275  0.00  0.00    +0.044 C 
ATOM     21  C   UNL     1       0.735  -0.215  -0.134  0.00  0.00    -0.049 A 
ATOM     22  C   UNL     1      -0.011  -0.687  -1.199  0.00  0.00    +0.003 A 
ATOM     23  C   UNL     1      -0.736  -1.857  -1.074  0.00  0.00    +0.002 A 
ATOM     24  C   UNL     1      -0.717  -2.559   0.116  0.00  0.00    +0.023 A 
ATOM     25  C   UNL     1       0.031  -2.089   1.186  0.00  0.00    +0.034 A 
ATOM     26  C   UNL     1       0.763  -0.915   1.056  0.00  0.00    +0.026 A 
ENDBRANCH  16  25
ENDBRANCH   1  17
BRANCH   5  27
ATOM     27  C   UNL     1      -0.037  -8.260   6.579  0.00  0.00    +0.120 C 
BRANCH  27  28
ATOM     28  C   UNL     1       0.685  -9.506   6.064  0.00  0.00    +0.054 C 
BRANCH  28  29
ATOM     29  C   UNL     1       0.566 -10.612   7.080  0.00  0.00    -0.042 A 
ATOM     30  C   UNL     1       1.521 -10.744   8.072  0.00  0.00    +0.007 A 
ATOM     31  C   UNL     1       1.415 -11.757   9.007  0.00  0.00    +0.050 A 
ATOM     32  C   UNL     1       0.351 -12.643   8.952  0.00  0.00    +0.166 A 
ATOM     33  C   UNL     1      -0.611 -12.510   7.954  0.00  0.00    +0.166 A 
ATOM     34  C   UNL     1      -0.501 -11.489   7.023  0.00  0.00    +0.053 A 
ATOM     35  O   UNL     1      -1.544 -13.492   8.114  0.00  0.00    -0.453 OA
ATOM     36  C   UNL     1      -0.928 -14.473   8.970  0.00  0.00    +0.466 C 
ATOM     37  O   UNL     1       0.020 -13.709   9.738  0.00  0.00    -0.453 OA
ENDBRANCH  28  29
ENDBRANCH  27  28
ENDBRANCH   5  27
TORSDOF 6
