REMARK  Name = ZINC57931337
REMARK  10 active torsions:
REMARK  status: ('A' for Active; 'I' for Inactive)
REMARK    1  A    between atoms: C_1  and  C_2
REMARK    2  A    between atoms: C_2  and  C_3
REMARK    3  A    between atoms: C_3  and  C_5
REMARK    4  A    between atoms: C_3  and  N_6
REMARK    5  A    between atoms: C_7  and  C_9
REMARK    6  A    between atoms: C_9  and  N_10
REMARK    7  A    between atoms: C_13  and  C_24
REMARK    8  A    between atoms: C_14  and  C_23
REMARK    9  A    between atoms: C_18  and  C_21
REMARK   10  A    between atoms: C_18  and  C_22
REMARK                            x       y       z     vdW  Elec       q    Type
REMARK                         _______ _______ _______ _____ _____    ______ ____
ROOT
ATOM      1  N   UNL     1      -5.542   0.379   2.437  0.00  0.00    -0.259 N 
ATOM      2  C   UNL     1      -6.144   1.576   2.035  0.00  0.00    +0.058 A 
ATOM      3  C   UNL     1      -5.372   2.652   1.625  0.00  0.00    +0.029 A 
ATOM      4  C   UNL     1      -5.983   3.825   1.222  0.00  0.00    -0.046 A 
ATOM      5  C   UNL     1      -7.362   3.932   1.226  0.00  0.00    -0.046 A 
ATOM      6  C   UNL     1      -8.141   2.865   1.637  0.00  0.00    +0.028 A 
ATOM      7  C   UNL     1      -7.535   1.689   2.044  0.00  0.00    +0.050 A 
ATOM      8  N   UNL     1      -8.300   0.600   2.486  0.00  0.00    -0.329 N 
ATOM      9  C   UNL     1      -7.747  -0.751   2.311  0.00  0.00    +0.103 C 
ATOM     10  C   UNL     1      -6.277  -0.729   2.643  0.00  0.00    +0.243 C 
ATOM     11  O   UNL     1      -5.752  -1.720   3.104  0.00  0.00    -0.273 OA
ATOM     12  C   UNL     1      -7.933  -1.196   0.859  0.00  0.00    +0.041 C 
ATOM     13  C   UNL     1      -8.471  -1.724   3.243  0.00  0.00    +0.041 C 
ATOM     14  C   UNL     1      -8.017   5.214   0.782  0.00  0.00    +0.044 C 
ATOM     15  C   UNL     1      -5.142   4.994   0.777  0.00  0.00    +0.044 C 
ATOM     16  H   UNL     1      -9.169   0.735   2.895  0.00  0.00    +0.147 HD
ENDROOT
BRANCH   1  17
ATOM     17  C   UNL     1      -4.090   0.329   2.630  0.00  0.00    +0.209 C 
BRANCH  17  19
ATOM     18  N   UNL     1      -2.082  -0.162   1.273  0.00  0.00    -0.311 N 
ATOM     19  C   UNL     1      -3.424  -0.053   1.334  0.00  0.00    +0.231 C 
ATOM     20  O   UNL     1      -4.095  -0.264   0.346  0.00  0.00    -0.274 OA
ATOM     21  H   UNL     1      -1.545   0.006   2.063  0.00  0.00    +0.149 HD
BRANCH  18  22
ATOM     22  C   UNL     1      -1.433  -0.534   0.013  0.00  0.00    +0.070 C 
ATOM     23  C   UNL     1      -1.416  -2.058  -0.121  0.00  0.00    +0.028 C 
BRANCH  22  25
ATOM     24  C   UNL     1      -0.019   1.526   0.010  0.00  0.00    +0.005 C 
ATOM     25  C   UNL     1       0.002  -0.004   0.002  0.00  0.00    +0.018 C 
ENDBRANCH  22  25
ENDBRANCH  18  22
ENDBRANCH  17  19
ENDBRANCH   1  17
TORSDOF 4
