REMARK  Name = ZINC01382478
REMARK  13 active torsions:
REMARK  status: ('A' for Active; 'I' for Inactive)
REMARK    1  A    between atoms: C_1  and  C_2
REMARK    2  A    between atoms: C_2  and  C_3
REMARK    3  A    between atoms: C_10  and  C_15
REMARK    4  A    between atoms: C_15  and  C_17
REMARK    5  A    between atoms: C_15  and  N_28
REMARK    6  A    between atoms: N_21  and  C_22
REMARK    7  A    between atoms: C_22  and  C_23
REMARK    8  A    between atoms: N_28  and  C_29
REMARK    9  A    between atoms: N_28  and  C_36
REMARK   10  A    between atoms: C_29  and  C_30
REMARK   11  A    between atoms: C_36  and  C_37
REMARK   12  A    between atoms: C_40  and  O_43
REMARK   13  A    between atoms: O_43  and  C_44
REMARK                            x       y       z     vdW  Elec       q    Type
REMARK                         _______ _______ _______ _____ _____    ______ ____
ROOT
ATOM      1  C   UNL     1       6.889  -0.261  -3.322  0.00  0.00    +0.163 C 
ENDROOT
BRANCH   1   9
ATOM      2  C   UNL     1       0.790  -0.034  -4.337  0.00  0.00    -0.047 A 
ATOM      3  C   UNL     1       0.822   1.016  -5.244  0.00  0.00    +0.005 A 
ATOM      4  C   UNL     1       2.017   1.605  -5.597  0.00  0.00    +0.026 A 
ATOM      5  C   UNL     1       3.204   1.144  -5.037  0.00  0.00    +0.049 A 
ATOM      6  C   UNL     1       3.168   0.080  -4.117  0.00  0.00    -0.001 A 
ATOM      7  C   UNL     1       1.943  -0.499  -3.771  0.00  0.00    +0.013 A 
ATOM      8  C   UNL     1       4.423  -0.397  -3.534  0.00  0.00    +0.021 A 
ATOM      9  C   UNL     1       5.580   0.206  -3.904  0.00  0.00    +0.042 A 
ATOM     10  C   UNL     1       5.561   1.270  -4.831  0.00  0.00    +0.254 A 
ATOM     11  O   UNL     1       6.613   1.799  -5.149  0.00  0.00    -0.268 OA
ATOM     12  N   UNL     1       4.414   1.715  -5.371  0.00  0.00    -0.322 N 
ATOM     13  H   UNL     1       4.437   2.449  -6.006  0.00  0.00    +0.169 HD
BRANCH   2  15
ATOM     14  C   UNL     1      -1.124   0.071  -2.763  0.00  0.00    +0.009 C 
ATOM     15  C   UNL     1      -0.530  -0.662  -3.967  0.00  0.00    +0.032 C 
ENDBRANCH   2  15
ENDBRANCH   1   9
BRANCH   1  16
ATOM     16  C   UNL     1       6.645  -1.443  -2.420  0.00  0.00    +0.174 A 
ATOM     17  N   UNL     1       5.999  -2.541  -2.726  0.00  0.00    -0.111 NA
ATOM     18  N   UNL     1       6.006  -3.308  -1.691  0.00  0.00    -0.023 NA
ATOM     19  N   UNL     1       6.639  -2.728  -0.733  0.00  0.00    -0.043 NA
ATOM     20  N   UNL     1       7.053  -1.578  -1.144  0.00  0.00    -0.220 N 
BRANCH  20  21
ATOM     21  C   UNL     1       7.821  -0.600  -0.368  0.00  0.00    +0.221 C 
BRANCH  21  22
ATOM     22  C   UNL     1       6.874   0.328   0.348  0.00  0.00    +0.126 A 
ATOM     23  C   UNL     1       6.373   0.142   1.582  0.00  0.00    +0.046 A 
ATOM     24  C   UNL     1       5.535   1.247   1.855  0.00  0.00    +0.041 A 
ATOM     25  C   UNL     1       5.574   2.043   0.771  0.00  0.00    +0.195 A 
ATOM     26  O   UNL     1       6.391   1.484  -0.136  0.00  0.00    -0.466 OA
ENDBRANCH  21  22
ENDBRANCH  20  21
ENDBRANCH   1  16
BRANCH   1  27
ATOM     27  N   UNL     1       7.795  -0.654  -4.410  0.00  0.00    -0.280 NA
BRANCH  27  28
ATOM     28  C   UNL     1       7.209  -1.729  -5.221  0.00  0.00    +0.121 C 
BRANCH  28  29
ATOM     29  C   UNL     1       6.207  -1.143  -6.183  0.00  0.00    -0.033 A 
ATOM     30  C   UNL     1       4.903  -1.602  -6.188  0.00  0.00    +0.005 A 
ATOM     31  C   UNL     1       3.985  -1.065  -7.070  0.00  0.00    +0.000 A 
ATOM     32  C   UNL     1       4.370  -0.069  -7.948  0.00  0.00    +0.000 A 
ATOM     33  C   UNL     1       5.674   0.391  -7.942  0.00  0.00    +0.000 A 
ATOM     34  C   UNL     1       6.592  -0.144  -7.057  0.00  0.00    +0.005 A 
ENDBRANCH  28  29
ENDBRANCH  27  28
BRANCH  27  35
ATOM     35  C   UNL     1       9.109  -1.048  -3.884  0.00  0.00    +0.121 C 
BRANCH  35  36
ATOM     36  C   UNL     1      10.116  -1.059  -5.005  0.00  0.00    -0.033 A 
ATOM     37  C   UNL     1      10.317  -2.212  -5.742  0.00  0.00    +0.008 A 
ATOM     38  C   UNL     1      11.239  -2.225  -6.769  0.00  0.00    +0.046 A 
ATOM     39  C   UNL     1      11.965  -1.080  -7.063  0.00  0.00    +0.120 A 
ATOM     40  C   UNL     1      11.762   0.076  -6.322  0.00  0.00    +0.046 A 
ATOM     41  C   UNL     1      10.834   0.085  -5.299  0.00  0.00    +0.008 A 
BRANCH  39  42
ATOM     42  O   UNL     1      12.874  -1.090  -8.073  0.00  0.00    -0.495 OA
ATOM     43  C   UNL     1      13.585   0.125  -8.319  0.00  0.00    +0.277 C 
ENDBRANCH  39  42
ENDBRANCH  35  36
ENDBRANCH  27  35
ENDBRANCH   1  27
TORSDOF 11
