REMARK  Name = ZINC14723258
REMARK  10 active torsions:
REMARK  status: ('A' for Active; 'I' for Inactive)
REMARK    1  A    between atoms: C_1  and  C_2
REMARK    2  A    between atoms: C_5  and  O_8
REMARK    3  A    between atoms: O_8  and  C_9
REMARK    4  A    between atoms: C_9  and  C_11
REMARK    5  A    between atoms: C_9  and  C_12
REMARK    6  A    between atoms: N_14  and  C_15
REMARK    7  A    between atoms: C_15  and  C_16
REMARK    8  A    between atoms: C_16  and  N_17
REMARK    9  A    between atoms: C_21  and  C_22
REMARK   10  A    between atoms: C_26  and  N_28
REMARK                            x       y       z     vdW  Elec       q    Type
REMARK                         _______ _______ _______ _____ _____    ______ ____
ROOT
ATOM      1  N   UNL     1       0.996  -0.289  -1.077  0.00  0.00    -0.227 N 
ATOM      2  C   UNL     1       1.723   0.667  -0.525  0.00  0.00    +0.260 C 
ATOM      3  O   UNL     1       2.923   0.546  -0.365  0.00  0.00    -0.269 OA
ATOM      4  C   UNL     1       1.004   1.890  -0.111  0.00  0.00    +0.080 C 
ATOM      5  C   UNL     1       1.480   3.018   0.472  0.00  0.00    +0.028 C 
ATOM      6  S   UNL     1      -0.667   1.474  -0.592  0.00  0.00    -0.026 S 
ATOM      7  C   UNL     1      -0.334  -0.151  -1.252  0.00  0.00    +0.286 C 
ATOM      8  O   UNL     1      -1.118  -0.942  -1.742  0.00  0.00    -0.262 OA
ENDROOT
BRANCH   5   9
ATOM      9  C   UNL     1       0.619   4.203   0.593  0.00  0.00    -0.022 A 
ATOM     10  C   UNL     1       1.037   5.302   1.353  0.00  0.00    +0.009 A 
ATOM     11  C   UNL     1       0.225   6.409   1.461  0.00  0.00    +0.023 A 
ATOM     12  C   UNL     1      -1.004   6.437   0.820  0.00  0.00    +0.071 A 
ATOM     13  C   UNL     1      -1.425   5.353   0.067  0.00  0.00    +0.145 A 
ATOM     14  C   UNL     1      -0.621   4.240  -0.055  0.00  0.00    +0.042 A 
ATOM     15 CL   UNL     1      -2.020   7.837   0.962  0.00  0.00    -0.081 Cl
BRANCH  13  16
ATOM     16  N   UNL     1      -2.739   5.393  -0.613  0.00  0.00    +0.058 N 
ATOM     17  O   UNL     1      -3.110   4.441  -1.276  0.00  0.00    -0.126 OA
ATOM     18  O   UNL     1      -3.449   6.377  -0.510  0.00  0.00    -0.126 OA
ENDBRANCH  13  16
ENDBRANCH   5   9
BRANCH   1  19
ATOM     19  C   UNL     1       1.649  -1.527  -1.509  0.00  0.00    +0.136 C 
BRANCH  19  20
ATOM     20  C   UNL     1       2.108  -1.382  -2.961  0.00  0.00    +0.124 C 
BRANCH  20  23
ATOM     21  C   UNL     1       3.250  -2.723  -4.645  0.00  0.00    +0.254 C 
ATOM     22  O   UNL     1       3.147  -1.791  -5.414  0.00  0.00    -0.272 OA
ATOM     23  N   UNL     1       2.762  -2.620  -3.393  0.00  0.00    -0.311 N 
ATOM     24  H   UNL     1       2.844  -3.365  -2.777  0.00  0.00    +0.149 HD
BRANCH  21  25
ATOM     25  C   UNL     1       3.922  -3.997  -5.089  0.00  0.00    +0.255 C 
ATOM     26  C   UNL     1       5.134  -4.271  -4.196  0.00  0.00    +0.062 C 
BRANCH  25  27
ATOM     27  O   UNL     1       4.351  -3.861  -6.445  0.00  0.00    -0.480 OA
BRANCH  27  32
ATOM     28  C   UNL     1       4.622  -8.570  -9.523  0.00  0.00    +0.044 C 
ATOM     29  C   UNL     1       4.550  -7.310  -8.700  0.00  0.00    -0.050 A 
ATOM     30  C   UNL     1       4.173  -7.375  -7.371  0.00  0.00    +0.007 A 
ATOM     31  C   UNL     1       4.106  -6.222  -6.614  0.00  0.00    +0.046 A 
ATOM     32  C   UNL     1       4.416  -4.997  -7.188  0.00  0.00    +0.122 A 
ATOM     33  C   UNL     1       4.788  -4.934  -8.523  0.00  0.00    +0.046 A 
ATOM     34  C   UNL     1       4.859  -6.091  -9.275  0.00  0.00    +0.007 A 
ENDBRANCH  27  32
ENDBRANCH  25  27
ENDBRANCH  21  25
ENDBRANCH  20  23
ENDBRANCH  19  20
ENDBRANCH   1  19
TORSDOF 8
