REMARK  Name = ZINC13596591
REMARK  7 active torsions:
REMARK  status: ('A' for Active; 'I' for Inactive)
REMARK    1  A    between atoms: C_1  and  C_2
REMARK    2  A    between atoms: N_10  and  C_11
REMARK    3  A    between atoms: C_11  and  C_12
REMARK    4  A    between atoms: C_12  and  N_13
REMARK    5  A    between atoms: N_13  and  C_14
REMARK    6  A    between atoms: C_14  and  C_15
REMARK    7  A    between atoms: C_16  and  C_24
REMARK                            x       y       z     vdW  Elec       q    Type
REMARK                         _______ _______ _______ _____ _____    ______ ____
ROOT
ATOM      1  C   UNL     1      -2.954   0.989   6.292  0.00  0.00    +0.039 A 
ATOM      2  C   UNL     1      -2.712   0.227   7.399  0.00  0.00    +0.146 A 
ATOM      3  N   UNL     1      -2.461   1.053   8.431  0.00  0.00    -0.223 NA
ATOM      4  C   UNL     1      -2.537   2.304   8.010  0.00  0.00    +0.139 A 
ATOM      5  N   UNL     1      -2.839   2.292   6.671  0.00  0.00    -0.305 N 
ATOM      6  C   UNL     1      -2.971   3.466   5.983  0.00  0.00    +0.093 A 
ATOM      7  C   UNL     1      -2.804   4.650   6.605  0.00  0.00    +0.018 A 
ATOM      8  C   UNL     1      -2.490   4.695   7.974  0.00  0.00    +0.005 A 
ATOM      9  C   UNL     1      -2.364   3.538   8.675  0.00  0.00    +0.047 A 
ENDROOT
BRANCH   2  10
ATOM     10  C   UNL     1      -2.725  -1.248   7.454  0.00  0.00    +0.267 C 
ATOM     11  O   UNL     1      -2.850  -1.893   6.431  0.00  0.00    -0.268 OA
ATOM     12  N   UNL     1      -2.597  -1.880   8.637  0.00  0.00    -0.292 N 
ATOM     13  C   UNL     1      -2.600  -1.127   9.902  0.00  0.00    +0.136 C 
ATOM     14  C   UNL     1      -3.614  -1.777  10.850  0.00  0.00    +0.179 C 
ATOM     15  O   UNL     1      -3.339  -3.177  10.945  0.00  0.00    -0.377 OA
ATOM     16  C   UNL     1      -3.474  -3.885   9.710  0.00  0.00    +0.179 C 
ATOM     17  C   UNL     1      -2.458  -3.343   8.704  0.00  0.00    +0.136 C 
ENDBRANCH   2  10
BRANCH   1  18
ATOM     18  C   UNL     1      -3.279   0.484   4.910  0.00  0.00    -0.025 C 
BRANCH  18  19
ATOM     19  N   UNL     1      -2.034   0.291   4.154  0.00  0.00    +0.384 N 
ATOM     20  H   UNL     1      -1.453  -0.382   4.630  0.00  0.00    -0.085 HD
ATOM     21  H   UNL     1      -1.544   1.170   4.084  0.00  0.00    -0.085 HD
BRANCH  19  22
ATOM     22  C   UNL     1      -2.352  -0.202   2.807  0.00  0.00    -0.060 C 
BRANCH  22  23
ATOM     23  C   UNL     1      -1.055  -0.403   2.019  0.00  0.00    +0.103 C 
BRANCH  23  33
ATOM     24  C   UNL     1      -1.569   1.404  -0.416  0.00  0.00    +0.063 C 
ATOM     25  C   UNL     1      -1.602  -0.102  -0.416  0.00  0.00    +0.017 A 
ATOM     26  C   UNL     1      -1.857  -0.867  -1.490  0.00  0.00    +0.031 A 
ATOM     27  C   UNL     1      -1.789  -2.262  -1.048  0.00  0.00    +0.000 A 
ATOM     28  C   UNL     1      -1.958  -3.492  -1.687  0.00  0.00    +0.010 A 
ATOM     29  C   UNL     1      -1.824  -4.650  -0.976  0.00  0.00    +0.001 A 
ATOM     30  C   UNL     1      -1.523  -4.615   0.379  0.00  0.00    +0.002 A 
ATOM     31  C   UNL     1      -1.352  -3.412   1.030  0.00  0.00    +0.026 A 
ATOM     32  C   UNL     1      -1.483  -2.220   0.324  0.00  0.00    +0.049 A 
ATOM     33  N   UNL     1      -1.371  -0.894   0.676  0.00  0.00    -0.346 N 
ENDBRANCH  23  33
ENDBRANCH  22  23
ENDBRANCH  19  22
ENDBRANCH  18  19
ENDBRANCH   1  18
TORSDOF 6
