REMARK  Name = ZINC36341839
REMARK  6 active torsions:
REMARK  status: ('A' for Active; 'I' for Inactive)
REMARK    1  A    between atoms: C_4  and  C_7
REMARK    2  A    between atoms: C_7  and  C_8
REMARK    3  A    between atoms: N_11  and  C_14
REMARK    4  A    between atoms: C_14  and  C_15
REMARK    5  A    between atoms: C_18  and  C_30
REMARK    6  A    between atoms: C_21  and  C_23
REMARK                            x       y       z     vdW  Elec       q    Type
REMARK                         _______ _______ _______ _____ _____    ______ ____
ROOT
ATOM      1  C   UNL     1       6.775  -3.988   4.668  0.00  0.00    +0.219 C 
ATOM      2  O   UNL     1       7.278  -4.197   3.584  0.00  0.00    -0.276 OA
ATOM      3  N   UNL     1       7.379  -4.431   5.788  0.00  0.00    -0.187 N 
ATOM      4  C   UNL     1       8.649  -5.172   5.840  0.00  0.00    +0.137 C 
ATOM      5  C   UNL     1       8.863  -5.420   7.346  0.00  0.00    +0.087 C 
ATOM      6  C   UNL     1       7.660  -4.774   7.995  0.00  0.00    +0.072 C 
ATOM      7  N   UNL     1       6.907  -4.256   7.088  0.00  0.00    -0.181 NA
ENDROOT
BRANCH   4   8
ATOM      8  C   UNL     1       9.771  -4.343   5.271  0.00  0.00    -0.021 A 
ATOM      9  C   UNL     1       9.823  -2.985   5.526  0.00  0.00    +0.009 A 
ATOM     10  C   UNL     1      10.850  -2.219   5.007  0.00  0.00    +0.050 A 
ATOM     11  C   UNL     1      11.832  -2.812   4.229  0.00  0.00    +0.166 A 
ATOM     12  C   UNL     1      11.780  -4.180   3.972  0.00  0.00    +0.167 A 
ATOM     13  C   UNL     1      10.750  -4.942   4.500  0.00  0.00    +0.055 A 
ATOM     14  O   UNL     1      12.847  -4.518   3.191  0.00  0.00    -0.453 OA
ATOM     15  C   UNL     1      13.324  -3.279   2.635  0.00  0.00    +0.466 C 
ATOM     16  O   UNL     1      12.931  -2.293   3.608  0.00  0.00    -0.453 OA
ENDBRANCH   4   8
BRANCH   6  17
ATOM     17  C   UNL     1       7.392  -4.737   9.445  0.00  0.00    +0.033 A 
ATOM     18  C   UNL     1       8.290  -5.325  10.339  0.00  0.00    +0.012 A 
ATOM     19  C   UNL     1       8.034  -5.287  11.694  0.00  0.00    +0.001 A 
ATOM     20  C   UNL     1       6.890  -4.669  12.169  0.00  0.00    +0.003 A 
ATOM     21  C   UNL     1       5.995  -4.085  11.292  0.00  0.00    +0.039 A 
ATOM     22  C   UNL     1       6.241  -4.109   9.932  0.00  0.00    +0.132 A 
ATOM     23  F   UNL     1       5.370  -3.533   9.075  0.00  0.00    -0.205 F 
ENDBRANCH   6  17
BRANCH   1  24
ATOM     24  C   UNL     1       5.474  -3.233   4.762  0.00  0.00    +0.021 C 
BRANCH  24  28
ATOM     25  C   UNL     1       4.171  -0.963   1.399  0.00  0.00    -0.010 C 
ATOM     26  C   UNL     1       3.192  -1.919   2.088  0.00  0.00    -0.015 C 
ATOM     27  C   UNL     1       3.701  -2.233   3.496  0.00  0.00    -0.078 C 
ATOM     28  N   UNL     1       5.024  -2.862   3.413  0.00  0.00    +0.385 N 
ATOM     29  C   UNL     1       5.985  -1.925   2.819  0.00  0.00    -0.078 C 
ATOM     30  C   UNL     1       5.565  -1.599   1.385  0.00  0.00    -0.015 C 
ATOM     31  H   UNL     1       4.967  -3.691   2.841  0.00  0.00    -0.081 HD
BRANCH  25  32
ATOM     32  C   UNL     1       3.711  -0.707  -0.038  0.00  0.00    +0.038 C 
BRANCH  32  36
ATOM     33  C   UNL     1      -0.017   1.378   0.010  0.00  0.00    +0.000 A 
ATOM     34  C   UNL     1       1.171   2.086   0.002  0.00  0.00    +0.000 A 
ATOM     35  C   UNL     1       2.377   1.411  -0.013  0.00  0.00    +0.003 A 
ATOM     36  C   UNL     1       2.396   0.029  -0.020  0.00  0.00    -0.047 A 
ATOM     37  C   UNL     1       1.208  -0.679  -0.012  0.00  0.00    +0.003 A 
ATOM     38  C   UNL     1       0.002  -0.004   0.002  0.00  0.00    +0.000 A 
ENDBRANCH  32  36
ENDBRANCH  25  32
ENDBRANCH  24  28
ENDBRANCH   1  24
TORSDOF 6
