REMARK  Name = ZINC65739234
REMARK  8 active torsions:
REMARK  status: ('A' for Active; 'I' for Inactive)
REMARK    1  A    between atoms: C_1  and  C_2
REMARK    2  A    between atoms: N_4  and  C_11
REMARK    3  A    between atoms: C_16  and  C_19
REMARK    4  A    between atoms: C_19  and  O_20
REMARK    5  A    between atoms: O_20  and  C_21
REMARK    6  A    between atoms: C_21  and  C_22
REMARK    7  A    between atoms: C_21  and  C_28
REMARK    8  A    between atoms: C_21  and  C_34
REMARK                            x       y       z     vdW  Elec       q    Type
REMARK                         _______ _______ _______ _____ _____    ______ ____
ROOT
ATOM      1  C   UNL     1      -4.917  -5.825   3.727  0.00  0.00    +0.144 C 
ENDROOT
BRANCH   1   2
ATOM      2  C   UNL     1      -5.835  -4.658   3.986  0.00  0.00    -0.007 A 
ATOM      3  C   UNL     1      -7.171  -4.878   4.264  0.00  0.00    +0.007 A 
ATOM      4  C   UNL     1      -8.013  -3.808   4.502  0.00  0.00    +0.000 A 
ATOM      5  C   UNL     1      -7.519  -2.518   4.462  0.00  0.00    +0.000 A 
ATOM      6  C   UNL     1      -6.183  -2.298   4.185  0.00  0.00    +0.000 A 
ATOM      7  C   UNL     1      -5.340  -3.368   3.952  0.00  0.00    +0.007 A 
ENDBRANCH   1   2
BRANCH   1   8
ATOM      8  C   UNL     1      -5.679  -6.916   3.021  0.00  0.00    -0.007 A 
ATOM      9  C   UNL     1      -5.508  -8.235   3.400  0.00  0.00    +0.007 A 
ATOM     10  C   UNL     1      -6.207  -9.236   2.752  0.00  0.00    +0.000 A 
ATOM     11  C   UNL     1      -7.077  -8.919   1.725  0.00  0.00    +0.000 A 
ATOM     12  C   UNL     1      -7.248  -7.601   1.347  0.00  0.00    +0.000 A 
ATOM     13  C   UNL     1      -6.552  -6.599   1.997  0.00  0.00    +0.007 A 
ENDBRANCH   1   8
BRANCH   1  14
ATOM     14  C   UNL     1      -4.388  -6.348   5.037  0.00  0.00    -0.007 A 
ATOM     15  C   UNL     1      -5.154  -6.244   6.183  0.00  0.00    +0.007 A 
ATOM     16  C   UNL     1      -4.668  -6.725   7.385  0.00  0.00    +0.000 A 
ATOM     17  C   UNL     1      -3.417  -7.309   7.441  0.00  0.00    +0.000 A 
ATOM     18  C   UNL     1      -2.651  -7.414   6.295  0.00  0.00    +0.000 A 
ATOM     19  C   UNL     1      -3.138  -6.938   5.092  0.00  0.00    +0.007 A 
ENDBRANCH   1  14
BRANCH   1  20
ATOM     20  O   UNL     1      -3.825  -5.399   2.908  0.00  0.00    -0.357 OA
BRANCH  20  21
ATOM     21  C   UNL     1      -4.220  -4.883   1.636  0.00  0.00    +0.195 C 
BRANCH  21  25
ATOM     22  C   UNL     1      -2.360  -2.206   0.608  0.00  0.00    +0.225 C 
ATOM     23  C   UNL     1      -2.450  -2.802  -0.820  0.00  0.00    +0.076 C 
ATOM     24  C   UNL     1      -3.384  -4.018  -0.574  0.00  0.00    +0.116 C 
ATOM     25  C   UNL     1      -2.978  -4.460   0.849  0.00  0.00    +0.164 C 
ATOM     26  O   UNL     1      -2.354  -3.340   1.490  0.00  0.00    -0.349 OA
ATOM     27 CL   UNL     1      -5.115  -3.519  -0.626  0.00  0.00    -0.119 Cl
BRANCH  22  31
ATOM     28  C   UNL     1      -0.099   2.104   1.396  0.00  0.00    +0.051 C 
ATOM     29  C   UNL     1      -0.048   0.620   1.136  0.00  0.00    +0.030 A 
ATOM     30  C   UNL     1      -1.188  -0.090   0.996  0.00  0.00    +0.101 A 
ATOM     31  N   UNL     1      -1.123  -1.436   0.760  0.00  0.00    -0.274 N 
ATOM     32  C   UNL     1       0.065  -2.059   0.668  0.00  0.00    +0.331 A 
ATOM     33  O   UNL     1       0.100  -3.257   0.459  0.00  0.00    -0.246 OA
ATOM     34  N   UNL     1       1.217  -1.376   0.804  0.00  0.00    -0.275 N 
ATOM     35  H   UNL     1       2.066  -1.841   0.735  0.00  0.00    +0.173 HD
ATOM     36  C   UNL     1       1.196  -0.047   1.031  0.00  0.00    +0.257 A 
ATOM     37  O   UNL     1       2.238   0.573   1.149  0.00  0.00    -0.267 OA
ENDBRANCH  22  31
ENDBRANCH  21  25
ENDBRANCH  20  21
ENDBRANCH   1  20
TORSDOF 7
