REMARK  Name = ZINC66789195
REMARK  5 active torsions:
REMARK  status: ('A' for Active; 'I' for Inactive)
REMARK    1  A    between atoms: C_3  and  C_28
REMARK    2  A    between atoms: C_5  and  O_7
REMARK    3  A    between atoms: O_7  and  C_8
REMARK    4  A    between atoms: C_11  and  N_14
REMARK    5  A    between atoms: C_15  and  C_17
REMARK                            x       y       z     vdW  Elec       q    Type
REMARK                         _______ _______ _______ _____ _____    ______ ____
ROOT
ATOM      1  C   UNL     1       0.015  -2.700   0.149  0.00  0.00    +0.129 A 
ATOM      2  C   UNL     1      -1.170  -2.049   0.459  0.00  0.00    +0.048 A 
ATOM      3  C   UNL     1      -2.378  -2.699   0.297  0.00  0.00    +0.027 A 
ATOM      4  C   UNL     1      -2.406  -4.004  -0.176  0.00  0.00    +0.034 A 
ATOM      5  C   UNL     1      -1.219  -4.655  -0.486  0.00  0.00    +0.027 A 
ATOM      6  C   UNL     1      -0.012  -4.003  -0.330  0.00  0.00    +0.048 A 
ENDROOT
BRANCH   4   7
ATOM      7  N   UNL     1      -3.630  -4.664  -0.340  0.00  0.00    -0.281 N 
ATOM      8  C   UNL     1      -3.679  -6.011  -0.312  0.00  0.00    +0.253 C 
ATOM      9  O   UNL     1      -2.648  -6.656  -0.292  0.00  0.00    -0.270 OA
ATOM     10  H   UNL     1      -4.443  -4.152  -0.473  0.00  0.00    +0.155 HD
BRANCH   8  11
ATOM     11  C   UNL     1      -4.978  -6.699  -0.305  0.00  0.00    +0.101 A 
ATOM     12  C   UNL     1      -5.053  -8.073  -0.097  0.00  0.00    +0.023 A 
ATOM     13  C   UNL     1      -6.303  -8.699  -0.096  0.00  0.00    -0.027 A 
ATOM     14  C   UNL     1      -7.430  -7.968  -0.297  0.00  0.00    +0.022 A 
ATOM     15  N   UNL     1      -7.359  -6.625  -0.499  0.00  0.00    -0.325 N 
ATOM     16  H   UNL     1      -8.178  -6.123  -0.640  0.00  0.00    +0.169 HD
ATOM     17  C   UNL     1      -6.183  -5.975  -0.504  0.00  0.00    +0.261 A 
ATOM     18  O   UNL     1      -6.149  -4.770  -0.683  0.00  0.00    -0.267 OA
ATOM     19  C   UNL     1      -8.647  -8.870  -0.250  0.00  0.00    +0.054 C 
ATOM     20  C   UNL     1      -8.095 -10.300  -0.432  0.00  0.00    +0.011 C 
ATOM     21  C   UNL     1      -6.654 -10.159   0.102  0.00  0.00    +0.037 C 
ENDBRANCH   8  11
ENDBRANCH   4   7
BRANCH   1  22
ATOM     22  O   UNL     1       1.204  -2.060   0.308  0.00  0.00    -0.456 OA
BRANCH  22  27
ATOM     23  C   UNL     1       4.351  -3.890   0.222  0.00  0.00    +0.005 A 
ATOM     24  C   UNL     1       4.615  -3.901  -1.132  0.00  0.00    +0.019 A 
ATOM     25  C   UNL     1       3.728  -3.289  -2.020  0.00  0.00    +0.055 A 
ATOM     26  C   UNL     1       2.578  -2.668  -1.532  0.00  0.00    +0.065 A 
ATOM     27  C   UNL     1       2.323  -2.664  -0.171  0.00  0.00    +0.130 A 
ATOM     28  C   UNL     1       3.211  -3.275   0.704  0.00  0.00    +0.046 A 
BRANCH  25  29
ATOM     29  C   UNL     1       3.999  -3.298  -3.426  0.00  0.00    +0.099 C 
ATOM     30  N   UNL     1       4.214  -3.305  -4.542  0.00  0.00    -0.191 NA
ENDBRANCH  25  29
ENDBRANCH  22  27
ENDBRANCH   1  22
TORSDOF 5
