REMARK  Name = ZINC44737337
REMARK  7 active torsions:
REMARK  status: ('A' for Active; 'I' for Inactive)
REMARK    1  A    between atoms: C_1  and  C_2
REMARK    2  A    between atoms: C_9  and  C_11
REMARK    3  A    between atoms: C_11  and  C_13
REMARK    4  A    between atoms: C_11  and  N_14
REMARK    5  A    between atoms: C_15  and  C_17
REMARK    6  A    between atoms: C_28  and  C_30
REMARK    7  A    between atoms: N_34  and  C_35
REMARK                            x       y       z     vdW  Elec       q    Type
REMARK                         _______ _______ _______ _____ _____    ______ ____
ROOT
ATOM      1  C   UNL     1      -1.787  -9.092   0.034  0.00  0.00    +0.100 C 
ATOM      2  C   UNL     1      -0.559  -9.725  -0.658  0.00  0.00    +0.121 C 
ATOM      3  N   UNL     1      -0.027 -10.691   0.332  0.00  0.00    -0.295 N 
ATOM      4  C   UNL     1      -1.235 -11.300   0.938  0.00  0.00    +0.115 C 
ATOM      5  C   UNL     1      -2.230 -10.131   1.079  0.00  0.00    -0.004 C 
ATOM      6  C   UNL     1      -3.649 -10.607   0.782  0.00  0.00    -0.010 C 
ATOM      7  C   UNL     1      -4.088 -11.594   1.867  0.00  0.00    -0.082 C 
ATOM      8  N   UNL     1      -4.035 -10.939   3.179  0.00  0.00    +0.379 N 
ATOM      9  C   UNL     1      -2.650 -10.568   3.497  0.00  0.00    -0.082 C 
ATOM     10  C   UNL     1      -2.150  -9.537   2.482  0.00  0.00    -0.010 C 
ATOM     11  C   UNL     1       1.264 -10.955   0.617  0.00  0.00    +0.263 C 
ATOM     12  O   UNL     1       1.549 -11.909   1.317  0.00  0.00    -0.268 OA
ATOM     13  H   UNL     1      -4.609 -10.109   3.163  0.00  0.00    -0.086 HD
ATOM     14  H   UNL     1      -4.382 -11.571   3.884  0.00  0.00    -0.086 HD
ENDROOT
BRANCH  11  15
ATOM     15  C   UNL     1       2.324 -10.094   0.083  0.00  0.00    +0.104 A 
ATOM     16  C   UNL     1       2.166  -8.816  -0.409  0.00  0.00    +0.032 A 
ATOM     17  C   UNL     1       3.429  -8.370  -0.808  0.00  0.00    +0.020 A 
ATOM     18  C   UNL     1       4.318  -9.361  -0.559  0.00  0.00    +0.086 A 
ATOM     19  N   UNL     1       3.660 -10.412  -0.012  0.00  0.00    -0.346 N 
ATOM     20  C   UNL     1       4.269 -11.678   0.406  0.00  0.00    +0.149 C 
ENDBRANCH  11  15
BRANCH   1  22
ATOM     21  N   UNL     1      -2.304  -6.807   0.826  0.00  0.00    -0.305 N 
ATOM     22  C   UNL     1      -1.402  -7.801   0.709  0.00  0.00    +0.219 C 
ATOM     23  O   UNL     1      -0.280  -7.657   1.147  0.00  0.00    -0.275 OA
ATOM     24  H   UNL     1      -3.201  -6.922   0.476  0.00  0.00    +0.149 HD
BRANCH  21  25
ATOM     25  C   UNL     1      -1.929  -5.551   1.482  0.00  0.00    +0.136 C 
ATOM     26  C   UNL     1      -1.259  -4.625   0.466  0.00  0.00    +0.036 C 
BRANCH  25  35
ATOM     27  C   UNL     1      -7.183  -1.676   5.055  0.00  0.00    +0.044 C 
ATOM     28  C   UNL     1      -6.492  -2.602   4.088  0.00  0.00    -0.048 A 
ATOM     29  C   UNL     1      -7.235  -3.279   3.131  0.00  0.00    +0.005 A 
ATOM     30  C   UNL     1      -6.627  -4.123   2.246  0.00  0.00    +0.030 A 
ATOM     31  C   UNL     1      -5.243  -4.310   2.300  0.00  0.00    +0.089 A 
ATOM     32  C   UNL     1      -4.490  -3.625   3.268  0.00  0.00    +0.067 A 
ATOM     33  C   UNL     1      -5.125  -2.767   4.157  0.00  0.00    +0.031 A 
ATOM     34  N   UNL     1      -3.179  -4.009   3.073  0.00  0.00    -0.340 N 
ATOM     35  C   UNL     1      -3.164  -4.884   2.032  0.00  0.00    +0.128 A 
ATOM     36  N   UNL     1      -4.371  -5.061   1.579  0.00  0.00    -0.231 NA
ATOM     37  H   UNL     1      -2.410  -3.709   3.583  0.00  0.00    +0.167 HD
ENDBRANCH  25  35
ENDBRANCH  21  25
ENDBRANCH   1  22
TORSDOF 4
