REMARK  Name = ZINC39950404
REMARK  7 active torsions:
REMARK  status: ('A' for Active; 'I' for Inactive)
REMARK    1  A    between atoms: C_1  and  O_2
REMARK    2  A    between atoms: O_2  and  C_3
REMARK    3  A    between atoms: C_6  and  C_9
REMARK    4  A    between atoms: C_13  and  C_16
REMARK    5  A    between atoms: C_17  and  N_33
REMARK    6  A    between atoms: N_18  and  N_22
REMARK    7  A    between atoms: C_23  and  C_24
REMARK                            x       y       z     vdW  Elec       q    Type
REMARK                         _______ _______ _______ _____ _____    ______ ____
ROOT
ATOM      1  C   UNL     1       4.163  -5.792  -4.682  0.00  0.00    +0.060 C 
ATOM      2  C   UNL     1       4.378  -7.058  -4.194  0.00  0.00    +0.113 C 
ATOM      3  N   UNL     1       5.586  -7.557  -4.602  0.00  0.00    -0.203 N 
ATOM      4  C   UNL     1       6.231  -6.532  -5.435  0.00  0.00    +0.212 C 
ATOM      5  C   UNL     1       5.243  -5.384  -5.461  0.00  0.00    +0.184 C 
ATOM      6  O   UNL     1       5.369  -4.322  -6.042  0.00  0.00    -0.290 OA
ENDROOT
BRANCH   1  10
ATOM      7  C   UNL     1       2.505  -2.503  -4.381  0.00  0.00    +0.095 C 
ATOM      8  C   UNL     1       1.417  -2.888  -5.414  0.00  0.00    +0.094 C 
ATOM      9  S   UNL     1       2.085  -4.511  -5.995  0.00  0.00    -0.135 S 
ATOM     10  C   UNL     1       2.931  -4.965  -4.418  0.00  0.00    +0.150 C 
ATOM     11  N   UNL     1       3.286  -3.630  -3.888  0.00  0.00    -0.293 NA
ATOM     12  H   UNL     1       4.275  -3.456  -3.988  0.00  0.00    +0.124 HD
BRANCH   7  16
ATOM     13  C   UNL     1       0.606  -0.607  -1.056  0.00  0.00    +0.120 A 
ATOM     14  C   UNL     1       1.173   0.161  -2.062  0.00  0.00    +0.046 A 
ATOM     15  C   UNL     1       1.786  -0.455  -3.136  0.00  0.00    +0.009 A 
ATOM     16  C   UNL     1       1.835  -1.835  -3.209  0.00  0.00    -0.029 A 
ATOM     17  C   UNL     1       1.270  -2.602  -2.207  0.00  0.00    +0.009 A 
ATOM     18  C   UNL     1       0.661  -1.992  -1.128  0.00  0.00    +0.046 A 
BRANCH  13  20
ATOM     19  C   UNL     1      -0.017   1.425   0.010  0.00  0.00    +0.277 C 
ATOM     20  O   UNL     1       0.002  -0.004   0.002  0.00  0.00    -0.495 OA
ENDBRANCH  13  20
ENDBRANCH   7  16
ENDBRANCH   1  10
BRANCH   2  21
ATOM     21  N   UNL     1       3.494  -7.735  -3.398  0.00  0.00    -0.345 N 
ATOM     22  H   UNL     1       2.653  -7.322  -3.145  0.00  0.00    +0.144 HD
ATOM     23  H   UNL     1       3.708  -8.629  -3.087  0.00  0.00    +0.144 HD
ENDBRANCH   2  21
BRANCH   3  24
ATOM     24  N   UNL     1       6.112  -8.816  -4.282  0.00  0.00    -0.186 NA
ATOM     25  C   UNL     1       7.287  -9.171  -4.741  0.00  0.00    +0.136 C 
BRANCH  25  26
ATOM     26  C   UNL     1       7.813 -10.429  -4.422  0.00  0.00    +0.000 C 
ATOM     27  C   UNL     1       9.041 -10.955  -4.821  0.00  0.00    +0.004 A 
ATOM     28  C   UNL     1      10.086 -10.440  -5.618  0.00  0.00    +0.010 A 
ATOM     29  C   UNL     1      11.192 -11.192  -5.846  0.00  0.00    +0.001 A 
ATOM     30  C   UNL     1      11.329 -12.475  -5.309  0.00  0.00    +0.002 A 
ATOM     31  C   UNL     1      10.366 -13.033  -4.535  0.00  0.00    +0.026 A 
ATOM     32  C   UNL     1       9.179 -12.307  -4.252  0.00  0.00    +0.043 A 
ATOM     33  N   UNL     1       8.115 -12.619  -3.542  0.00  0.00    -0.380 N 
ATOM     34  C   UNL     1       7.170 -11.499  -3.567  0.00  0.00    +0.150 C 
ATOM     35  H   UNL     1       7.980 -13.457  -3.072  0.00  0.00    +0.160 HD
ENDBRANCH  25  26
ENDBRANCH   3  24
TORSDOF 6
