REMARK  Name = ZINC37261964
REMARK  12 active torsions:
REMARK  status: ('A' for Active; 'I' for Inactive)
REMARK    1  A    between atoms: C_1  and  C_2
REMARK    2  A    between atoms: C_3  and  C_11
REMARK    3  A    between atoms: C_5  and  C_7
REMARK    4  A    between atoms: C_7  and  C_8
REMARK    5  A    between atoms: C_7  and  C_9
REMARK    6  A    between atoms: C_7  and  C_10
REMARK    7  A    between atoms: C_11  and  C_13
REMARK    8  A    between atoms: C_11  and  N_14
REMARK    9  A    between atoms: N_14  and  C_15
REMARK   10  A    between atoms: C_15  and  C_16
REMARK   11  A    between atoms: C_16  and  S_17
REMARK   12  A    between atoms: S_17  and  N_20
REMARK                            x       y       z     vdW  Elec       q    Type
REMARK                         _______ _______ _______ _____ _____    ______ ____
ROOT
ATOM      1  C   UNL     1      -0.008  -0.215  -2.583  0.00  0.00    -0.035 C 
ATOM      2  C   UNL     1      -1.402  -0.420  -3.180  0.00  0.00    -0.008 C 
ENDROOT
BRANCH   1   5
ATOM      3  C   UNL     1      -0.018   1.503   0.010  0.00  0.00    +0.066 C 
ATOM      4  C   UNL     1       0.002  -0.004   0.002  0.00  0.00    +0.047 A 
ATOM      5  C   UNL     1       0.006  -0.708  -1.159  0.00  0.00    -0.002 A 
ATOM      6  S   UNL     1       0.032  -2.379  -0.531  0.00  0.00    -0.078 S 
ATOM      7  C   UNL     1       0.036  -2.009   1.111  0.00  0.00    +0.084 A 
ATOM      8  N   UNL     1       0.023  -0.699   1.122  0.00  0.00    -0.248 NA
BRANCH   7   9
ATOM      9  C   UNL     1       0.055  -2.955   2.284  0.00  0.00    +0.011 C 
ATOM     10  C   UNL     1      -1.193  -2.731   3.140  0.00  0.00    +0.017 C 
ATOM     11  C   UNL     1       0.072  -4.398   1.775  0.00  0.00    +0.017 C 
ATOM     12  C   UNL     1       1.305  -2.696   3.127  0.00  0.00    +0.017 C 
ENDBRANCH   7   9
ENDBRANCH   1   5
BRANCH   1  13
ATOM     13  N   UNL     1       0.978  -0.966  -3.371  0.00  0.00    +0.385 N 
ATOM     14  H   UNL     1       1.883  -0.898  -2.931  0.00  0.00    -0.085 HD
ATOM     15  H   UNL     1       0.700  -1.935  -3.421  0.00  0.00    -0.085 HD
BRANCH  13  16
ATOM     16  C   UNL     1       1.049  -0.406  -4.728  0.00  0.00    -0.057 C 
BRANCH  16  17
ATOM     17  C   UNL     1       2.076  -1.189  -5.549  0.00  0.00    +0.166 C 
BRANCH  17  18
ATOM     18  S   UNL     1       2.165  -0.498  -7.223  0.00  0.00    +0.025 S 
ATOM     19  O   UNL     1       0.952  -0.747  -7.920  0.00  0.00    -0.158 OA
ATOM     20  O   UNL     1       2.724   0.807  -7.185  0.00  0.00    -0.158 OA
BRANCH  18  21
ATOM     21  N   UNL     1       3.297  -1.420  -8.005  0.00  0.00    -0.208 NA
ATOM     22  H   UNL     1       3.739  -2.146  -7.536  0.00  0.00    +0.144 HD
ATOM     23  H   UNL     1       3.519  -1.235  -8.931  0.00  0.00    +0.144 HD
ENDBRANCH  18  21
ENDBRANCH  17  18
ENDBRANCH  16  17
ENDBRANCH  13  16
ENDBRANCH   1  13
TORSDOF 7
