REMARK  Name = ZINC12051478
REMARK  14 active torsions:
REMARK  status: ('A' for Active; 'I' for Inactive)
REMARK    1  A    between atoms: C_1  and  C_2
REMARK    2  A    between atoms: C_5  and  C_35
REMARK    3  A    between atoms: C_6  and  C_8
REMARK    4  A    between atoms: C_8  and  N_72
REMARK    5  A    between atoms: C_14  and  C_18
REMARK    6  A    between atoms: C_18  and  C_20
REMARK    7  A    between atoms: C_18  and  N_24
REMARK    8  A    between atoms: C_20  and  C_21
REMARK    9  A    between atoms: C_21  and  C_22
REMARK   10  A    between atoms: C_21  and  C_23
REMARK   11  A    between atoms: C_25  and  C_27
REMARK   12  A    between atoms: C_30  and  C_32
REMARK   13  A    between atoms: C_32  and  O_33
REMARK   14  A    between atoms: O_33  and  C_34
REMARK                            x       y       z     vdW  Elec       q    Type
REMARK                         _______ _______ _______ _____ _____    ______ ____
ROOT
ATOM      1  C   UNL     1      -9.324   4.736   2.180  0.00  0.00    -0.071 C 
ATOM      2  C   UNL     1      -9.146   5.175   0.730  0.00  0.00    +0.058 C 
ATOM      3  C   UNL     1      -7.779   4.756   0.254  0.00  0.00    +0.132 A 
ATOM      4  N   UNL     1      -6.921   5.461  -0.423  0.00  0.00    -0.134 NA
ATOM      5  N   UNL     1      -5.877   4.748  -0.670  0.00  0.00    -0.132 NA
ATOM      6  C   UNL     1      -6.026   3.555  -0.155  0.00  0.00    +0.154 A 
ATOM      7  N   UNL     1      -7.232   3.531   0.450  0.00  0.00    -0.315 N 
ATOM      8  C   UNL     1      -7.840   2.426   1.191  0.00  0.00    +0.106 C 
ATOM      9  C   UNL     1      -9.365   2.548   1.116  0.00  0.00    -0.056 C 
ATOM     10  N   UNL     1      -9.848   3.354   2.260  0.00  0.00    +0.384 N 
ATOM     11  H   UNL     1      -9.516   2.924   3.131  0.00  0.00    -0.081 HD
ENDROOT
BRANCH  10  12
ATOM     12  C   UNL     1     -11.322   3.378   2.271  0.00  0.00    -0.043 C 
BRANCH  12  18
ATOM     13  C   UNL     1     -13.219   7.294   4.743  0.00  0.00    +0.044 C 
ATOM     14  C   UNL     1     -12.691   5.883   4.742  0.00  0.00    -0.050 A 
ATOM     15  C   UNL     1     -12.628   5.167   5.924  0.00  0.00    +0.003 A 
ATOM     16  C   UNL     1     -12.143   3.873   5.923  0.00  0.00    +0.004 A 
ATOM     17  C   UNL     1     -11.721   3.294   4.740  0.00  0.00    -0.049 A 
ATOM     18  C   UNL     1     -11.783   4.009   3.559  0.00  0.00    -0.061 A 
ATOM     19  C   UNL     1     -12.264   5.306   3.561  0.00  0.00    +0.005 A 
ATOM     20  C   UNL     1     -11.191   1.883   4.739  0.00  0.00    +0.044 C 
ENDBRANCH  12  18
ENDBRANCH  10  12
BRANCH   6  21
ATOM     21  C   UNL     1      -5.038   2.420  -0.228  0.00  0.00    +0.142 C 
BRANCH  21  22
ATOM     22  N   UNL     1      -3.709   2.902   0.158  0.00  0.00    -0.299 N 
ATOM     23  C   UNL     1      -2.779   2.033   0.599  0.00  0.00    +0.280 C 
ATOM     24  O   UNL     1      -3.064   0.860   0.748  0.00  0.00    -0.267 OA
ATOM     25  H   UNL     1      -3.500   3.847   0.096  0.00  0.00    +0.150 HD
BRANCH  23  26
ATOM     26  C   UNL     1      -1.421   2.502   0.899  0.00  0.00    +0.190 A 
ATOM     27  C   UNL     1      -0.388   1.731   1.350  0.00  0.00    +0.055 A 
ATOM     28  C   UNL     1       0.718   2.584   1.494  0.00  0.00    +0.048 A 
ATOM     29  C   UNL     1       0.314   3.823   1.135  0.00  0.00    +0.131 A 
ATOM     30  O   UNL     1      -0.976   3.770   0.781  0.00  0.00    -0.453 OA
BRANCH  29  31
ATOM     31  C   UNL     1       1.174   5.060   1.135  0.00  0.00    +0.233 C 
BRANCH  31  32
ATOM     32  O   UNL     1       1.807   5.199  -0.139  0.00  0.00    -0.375 OA
ATOM     33  C   UNL     1       2.651   6.348  -0.246  0.00  0.00    +0.194 C 
ENDBRANCH  31  32
ENDBRANCH  29  31
ENDBRANCH  23  26
ENDBRANCH  21  22
BRANCH  21  34
ATOM     34  C   UNL     1      -4.988   1.878  -1.658  0.00  0.00    +0.033 C 
BRANCH  34  35
ATOM     35  C   UNL     1      -6.338   1.252  -2.013  0.00  0.00    -0.015 C 
ATOM     36  C   UNL     1      -6.338   0.843  -3.487  0.00  0.00    +0.007 C 
ATOM     37  C   UNL     1      -6.572   0.017  -1.141  0.00  0.00    +0.007 C 
ENDBRANCH  34  35
ENDBRANCH  21  34
ENDBRANCH   6  21
TORSDOF 9
