REMARK  Name = ZINC64539835
REMARK  12 active torsions:
REMARK  status: ('A' for Active; 'I' for Inactive)
REMARK    1  A    between atoms: C_1  and  C_2
REMARK    2  A    between atoms: C_2  and  N_3
REMARK    3  A    between atoms: N_3  and  C_4
REMARK    4  A    between atoms: N_3  and  S_6
REMARK    5  A    between atoms: C_4  and  C_5
REMARK    6  A    between atoms: S_6  and  C_9
REMARK    7  A    between atoms: C_16  and  C_20
REMARK    8  A    between atoms: N_18  and  C_19
REMARK    9  A    between atoms: N_22  and  C_23
REMARK   10  A    between atoms: C_23  and  C_24
REMARK   11  A    between atoms: C_24  and  C_25
REMARK   12  A    between atoms: C_28  and  C_34
REMARK                            x       y       z     vdW  Elec       q    Type
REMARK                         _______ _______ _______ _____ _____    ______ ____
ROOT
ATOM      1  C   UNL     1      -0.337   0.586  -3.526  0.00  0.00    +0.106 A 
ATOM      2  C   UNL     1      -1.405   1.443  -3.331  0.00  0.00    +0.030 A 
ATOM      3  C   UNL     1      -1.525   2.586  -4.091  0.00  0.00    +0.025 A 
ATOM      4  C   UNL     1      -0.570   2.888  -5.065  0.00  0.00    +0.033 A 
ATOM      5  C   UNL     1       0.496   2.023  -5.252  0.00  0.00    -0.022 A 
ATOM      6  C   UNL     1       0.615   0.881  -4.483  0.00  0.00    +0.034 A 
ATOM      7  C   UNL     1       1.376   2.574  -6.351  0.00  0.00    +0.069 C 
ATOM      8  C   UNL     1       0.683   3.877  -6.783  0.00  0.00    +0.163 C 
ATOM      9  N   UNL     1      -0.505   3.980  -5.931  0.00  0.00    -0.321 N 
ATOM     10  C   UNL     1      -1.483   5.070  -5.982  0.00  0.00    +0.130 C 
ENDROOT
BRANCH   8  11
ATOM     11  C   UNL     1       0.284   3.801  -8.234  0.00  0.00    +0.234 C 
ATOM     12  O   UNL     1      -0.862   3.542  -8.535  0.00  0.00    -0.274 OA
ATOM     13  N   UNL     1       1.200   4.021  -9.197  0.00  0.00    -0.313 N 
ATOM     14  H   UNL     1       2.117   4.228  -8.957  0.00  0.00    +0.149 HD
BRANCH  13  15
ATOM     15  C   UNL     1       0.812   3.947 -10.608  0.00  0.00    +0.108 C 
BRANCH  15  16
ATOM     16  C   UNL     1       2.030   4.235 -11.488  0.00  0.00    +0.052 C 
BRANCH  16  17
ATOM     17  C   UNL     1       1.631   4.159 -12.939  0.00  0.00    -0.040 C 
ATOM     18  C   UNL     1       1.269   5.189 -13.738  0.00  0.00    -0.001 A 
ATOM     19  C   UNL     1       1.142   6.632 -13.503  0.00  0.00    +0.013 A 
ATOM     20  C   UNL     1       0.748   7.430 -14.522  0.00  0.00    -0.050 A 
ATOM     21  C   UNL     1       0.458   6.914 -15.793  0.00  0.00    +0.005 A 
ATOM     22  C   UNL     1       0.552   5.600 -16.085  0.00  0.00    +0.026 A 
ATOM     23  C   UNL     1       0.957   4.669 -15.088  0.00  0.00    +0.043 A 
ATOM     24  N   UNL     1       1.121   3.369 -15.123  0.00  0.00    -0.380 N 
ATOM     25  C   UNL     1       1.560   2.917 -13.799  0.00  0.00    +0.144 C 
ATOM     26  C   UNL     1       0.617   8.913 -14.284  0.00  0.00    +0.044 C 
ATOM     27  H   UNL     1       0.978   2.801 -15.897  0.00  0.00    +0.160 HD
ENDBRANCH  16  17
ENDBRANCH  15  16
ENDBRANCH  13  15
ENDBRANCH   8  11
BRANCH   1  28
ATOM     28  S   UNL     1      -0.188  -0.875  -2.551  0.00  0.00    +0.061 S 
ATOM     29  O   UNL     1       0.610  -1.782  -3.300  0.00  0.00    -0.153 OA
ATOM     30  O   UNL     1      -1.496  -1.201  -2.104  0.00  0.00    -0.153 OA
BRANCH  28  31
ATOM     31  N   UNL     1       0.688  -0.476  -1.203  0.00  0.00    -0.177 NA
BRANCH  31  33
ATOM     32  C   UNL     1      -0.019   1.526   0.010  0.00  0.00    +0.022 C 
ATOM     33  C   UNL     1       0.002  -0.004   0.002  0.00  0.00    +0.106 C 
ENDBRANCH  31  33
BRANCH  31  34
ATOM     34  C   UNL     1       2.148  -0.597  -1.216  0.00  0.00    +0.106 C 
ATOM     35  C   UNL     1       2.553  -1.951  -0.632  0.00  0.00    +0.022 C 
ENDBRANCH  31  34
ENDBRANCH  28  31
ENDBRANCH   1  28
TORSDOF 8
