REMARK  Name = ZINC38981434
REMARK  10 active torsions:
REMARK  status: ('A' for Active; 'I' for Inactive)
REMARK    1  A    between atoms: C_1  and  C_2
REMARK    2  A    between atoms: C_2  and  C_3
REMARK    3  A    between atoms: C_2  and  O_4
REMARK    4  A    between atoms: O_4  and  C_5
REMARK    5  A    between atoms: C_9  and  C_11
REMARK    6  A    between atoms: N_17  and  N_18
REMARK    7  A    between atoms: C_19  and  C_20
REMARK    8  A    between atoms: C_22  and  O_28
REMARK    9  A    between atoms: C_23  and  O_27
REMARK   10  A    between atoms: O_28  and  C_29
REMARK                            x       y       z     vdW  Elec       q    Type
REMARK                         _______ _______ _______ _____ _____    ______ ____
ROOT
ATOM      1  C   UNL     1      -4.595  -4.276  -1.001  0.00  0.00    +0.264 C 
ATOM      2  N   UNL     1      -5.790  -3.422  -1.070  0.00  0.00    -0.189 NA
ATOM      3  N   UNL     1      -6.443  -3.756  -2.062  0.00  0.00    -0.219 N 
ATOM      4  C   UNL     1      -5.877  -4.774  -2.764  0.00  0.00    +0.174 C 
ATOM      5  S   UNL     1      -6.530  -5.467  -4.186  0.00  0.00    -0.015 S 
ATOM      6  N   UNL     1      -4.721  -5.162  -2.172  0.00  0.00    -0.172 N 
ATOM      7  H   UNL     1      -7.278  -3.333  -2.317  0.00  0.00    +0.176 HD
ENDROOT
BRANCH   1  12
ATOM      8  C   UNL     1      -2.165  -1.401  -0.660  0.00  0.00    +0.121 A 
ATOM      9  C   UNL     1      -1.041  -1.915  -1.290  0.00  0.00    +0.045 A 
ATOM     10  C   UNL     1      -1.072  -3.189  -1.823  0.00  0.00    +0.004 A 
ATOM     11  C   UNL     1      -2.222  -3.952  -1.728  0.00  0.00    +0.007 A 
ATOM     12  C   UNL     1      -3.343  -3.442  -1.101  0.00  0.00    +0.001 A 
ATOM     13  C   UNL     1      -3.316  -2.170  -0.562  0.00  0.00    +0.053 A 
BRANCH   8  14
ATOM     14  O   UNL     1      -2.138  -0.148  -0.134  0.00  0.00    -0.489 OA
BRANCH  14  16
ATOM     15  C   UNL     1      -2.885   1.379   1.583  0.00  0.00    +0.051 C 
ATOM     16  C   UNL     1      -3.285   0.270   0.608  0.00  0.00    +0.167 C 
ATOM     17  C   UNL     1      -4.352   0.796  -0.354  0.00  0.00    +0.051 C 
ENDBRANCH  14  16
ENDBRANCH   8  14
ENDBRANCH   1  12
BRANCH   6  18
ATOM     18  N   UNL     1      -3.844  -6.175  -2.580  0.00  0.00    -0.183 NA
ATOM     19  C   UNL     1      -4.038  -6.786  -3.710  0.00  0.00    +0.138 C 
BRANCH  19  20
ATOM     20  C   UNL     1      -3.209  -7.950  -4.069  0.00  0.00    -0.001 A 
ATOM     21  C   UNL     1      -3.412  -8.606  -5.287  0.00  0.00    +0.059 A 
ATOM     22  C   UNL     1      -2.631  -9.697  -5.620  0.00  0.00    +0.163 A 
ATOM     23  C   UNL     1      -1.645 -10.142  -4.743  0.00  0.00    +0.173 A 
ATOM     24  C   UNL     1      -1.443  -9.492  -3.533  0.00  0.00    +0.063 A 
ATOM     25  C   UNL     1      -2.214  -8.398  -3.197  0.00  0.00    +0.028 A 
ATOM     26 BR   UNL     1      -0.103 -10.103  -2.346  0.00  0.00    -0.046 Br
BRANCH  23  27
ATOM     27  O   UNL     1      -0.879 -11.216  -5.072  0.00  0.00    -0.503 OA
ATOM     28  H   UNL     1      -0.071 -10.990  -5.553  0.00  0.00    +0.292 HD
ENDBRANCH  23  27
BRANCH  22  29
ATOM     29  O   UNL     1      -2.826 -10.336  -6.804  0.00  0.00    -0.491 OA
ATOM     30  C   UNL     1      -3.855  -9.826  -7.655  0.00  0.00    +0.277 C 
ENDBRANCH  22  29
ENDBRANCH  19  20
ENDBRANCH   6  18
TORSDOF 7
