REMARK  Name = ZINC43553594
REMARK  9 active torsions:
REMARK  status: ('A' for Active; 'I' for Inactive)
REMARK    1  A    between atoms: C_1  and  C_2
REMARK    2  A    between atoms: C_8  and  C_10
REMARK    3  A    between atoms: C_10  and  C_11
REMARK    4  A    between atoms: N_18  and  C_19
REMARK    5  A    between atoms: C_23  and  C_33
REMARK    6  A    between atoms: C_26  and  O_32
REMARK    7  A    between atoms: C_28  and  C_29
REMARK    8  A    between atoms: C_28  and  C_30
REMARK    9  A    between atoms: C_30  and  O_31
REMARK                            x       y       z     vdW  Elec       q    Type
REMARK                         _______ _______ _______ _____ _____    ______ ____
ROOT
ATOM      1  C   UNL     1      -0.914  -4.793   3.925  0.00  0.00    +0.054 C 
ATOM      2  C   UNL     1      -1.998  -4.082   4.711  0.00  0.00    +0.058 A 
ATOM      3  C   UNL     1      -2.513  -4.699   5.802  0.00  0.00    +0.015 A 
ATOM      4  S   UNL     1      -3.712  -3.523   6.369  0.00  0.00    -0.057 S 
ATOM      5  C   UNL     1      -3.459  -2.357   5.178  0.00  0.00    +0.158 A 
ATOM      6  N   UNL     1      -2.512  -2.889   4.435  0.00  0.00    -0.229 NA
ATOM      7  N   UNL     1      -4.094  -1.135   5.019  0.00  0.00    -0.327 N 
ATOM      8  C   UNL     1      -5.134  -0.722   5.964  0.00  0.00    +0.127 C 
ATOM      9  C   UNL     1      -2.145  -6.024   6.362  0.00  0.00    +0.049 C 
ATOM     10  C   UNL     1      -1.069  -6.739   5.522  0.00  0.00    +0.011 C 
ATOM     11  C   UNL     1      -0.139  -5.729   4.859  0.00  0.00    -0.019 C 
ATOM     12  C   UNL     1       0.613  -4.957   5.936  0.00  0.00    +0.010 C 
ATOM     13  C   UNL     1       1.476  -5.928   6.743  0.00  0.00    +0.032 C 
ATOM     14  C   UNL     1       0.647  -7.024   7.387  0.00  0.00    +0.123 C 
ATOM     15  C   UNL     1      -0.342  -7.705   6.457  0.00  0.00    +0.021 C 
ATOM     16  C   UNL     1       0.349  -8.839   5.687  0.00  0.00    +0.016 C 
ATOM     17  C   UNL     1       0.883  -6.423   3.946  0.00  0.00    +0.012 C 
ATOM     18  H   UNL     1      -3.849  -0.554   4.282  0.00  0.00    +0.148 HD
ENDROOT
BRANCH  14  19
ATOM     19  O   UNL     1      -0.033  -6.505   8.536  0.00  0.00    -0.391 OA
ATOM     20  H   UNL     1       0.558  -6.158   9.219  0.00  0.00    +0.210 HD
ENDBRANCH  14  19
BRANCH   1  21
ATOM     21  C   UNL     1       0.026  -3.784   3.273  0.00  0.00    +0.106 C 
BRANCH  21  29
ATOM     22  C   UNL     1       1.061   2.037   1.144  0.00  0.00    +0.007 C 
ATOM     23  C   UNL     1       0.869   0.541   0.886  0.00  0.00    -0.011 C 
ATOM     24  C   UNL     1      -0.627   0.227   0.797  0.00  0.00    +0.022 C 
ATOM     25  C   UNL     1      -0.815  -1.264   0.504  0.00  0.00    +0.108 C 
ATOM     26  N   UNL     1      -0.094  -2.041   1.522  0.00  0.00    -0.301 N 
ATOM     27  C   UNL     1       1.328  -1.756   1.753  0.00  0.00    +0.108 C 
ATOM     28  C   UNL     1       1.492  -0.259   2.032  0.00  0.00    +0.022 C 
ATOM     29  C   UNL     1      -0.727  -2.996   2.232  0.00  0.00    +0.216 C 
ATOM     30  O   UNL     1      -1.902  -3.222   2.033  0.00  0.00    -0.276 OA
ENDBRANCH  21  29
ENDBRANCH   1  21
BRANCH  15  31
ATOM     31  C   UNL     1      -1.401  -8.406   7.348  0.00  0.00    +0.165 C 
BRANCH  31  32
ATOM     32  O   UNL     1      -0.749  -9.318   8.234  0.00  0.00    -0.394 OA
ATOM     33  H   UNL     1      -1.351  -9.793   8.823  0.00  0.00    +0.209 HD
ENDBRANCH  31  32
ENDBRANCH  15  31
TORSDOF 5
