REMARK  Name = ZINC12320290
REMARK  5 active torsions:
REMARK  status: ('A' for Active; 'I' for Inactive)
REMARK    1  A    between atoms: C_1  and  C_2
REMARK    2  A    between atoms: C_6  and  C_8
REMARK    3  A    between atoms: C_22  and  C_23
REMARK    4  A    between atoms: C_22  and  N_57
REMARK    5  A    between atoms: N_26  and  C_28
REMARK                            x       y       z     vdW  Elec       q    Type
REMARK                         _______ _______ _______ _____ _____    ______ ____
ROOT
ATOM      1  C   UNL     1       2.485   1.057  -0.015  0.00  0.00    +0.030 C 
ATOM      2  C   UNL     1       2.881   0.694   1.396  0.00  0.00    +0.012 A 
ATOM      3  C   UNL     1       4.139   0.843   1.870  0.00  0.00    -0.022 A 
ATOM      4  C   UNL     1       4.133   0.397   3.246  0.00  0.00    +0.003 A 
ATOM      5  C   UNL     1       5.128   0.322   4.225  0.00  0.00    +0.010 A 
ATOM      6  C   UNL     1       4.756  -0.166   5.453  0.00  0.00    +0.001 A 
ATOM      7  C   UNL     1       3.458  -0.569   5.722  0.00  0.00    +0.002 A 
ATOM      8  C   UNL     1       2.453  -0.505   4.773  0.00  0.00    +0.026 A 
ATOM      9  C   UNL     1       2.801  -0.013   3.517  0.00  0.00    +0.047 A 
ATOM     10  N   UNL     1       2.075   0.181   2.376  0.00  0.00    -0.359 N 
ATOM     11  H   UNL     1       1.131  -0.015   2.276  0.00  0.00    +0.166 HD
ATOM     12  C   UNL     1       5.280   1.382   1.045  0.00  0.00    +0.019 C 
ATOM     13  C   UNL     1       4.864   1.329  -0.431  0.00  0.00    -0.072 C 
ATOM     14  N   UNL     1       3.528   1.952  -0.570  0.00  0.00    +0.392 N 
ATOM     15  H   UNL     1       3.519   2.837  -0.049  0.00  0.00    -0.080 HD
ENDROOT
BRANCH   1  21
ATOM     16  C   UNL     1       0.077   5.302   0.027  0.00  0.00    +0.065 C 
ATOM     17  C   UNL     1       0.033   3.795   0.021  0.00  0.00    +0.038 A 
ATOM     18  C   UNL     1      -1.188   3.147   0.029  0.00  0.00    +0.023 A 
ATOM     19  C   UNL     1      -1.218   1.762   0.017  0.00  0.00    +0.003 A 
ATOM     20  C   UNL     1      -0.013   1.076   0.008  0.00  0.00    +0.022 A 
ATOM     21  C   UNL     1       1.169   1.792   0.001  0.00  0.00    +0.034 A 
ATOM     22  N   UNL     1       1.159   3.110   0.007  0.00  0.00    -0.258 NA
ENDBRANCH   1  21
BRANCH  14  23
ATOM     23  C   UNL     1       3.248   2.231  -1.994  0.00  0.00    -0.038 C 
BRANCH  23  24
ATOM     24  C   UNL     1       4.190   3.306  -2.471  0.00  0.00    -0.026 A 
ATOM     25  C   UNL     1       3.960   4.685  -2.417  0.00  0.00    +0.136 A 
ATOM     26  N   UNL     1       5.003   5.295  -2.919  0.00  0.00    -0.175 NA
ATOM     27  N   UNL     1       5.928   4.322  -3.319  0.00  0.00    -0.240 N 
ATOM     28  C   UNL     1       5.405   3.108  -3.033  0.00  0.00    +0.116 A 
BRANCH  27  29
ATOM     29  C   UNL     1       7.176   4.563  -3.911  0.00  0.00    +0.066 A 
ATOM     30  C   UNL     1       8.001   3.500  -4.254  0.00  0.00    +0.030 A 
ATOM     31  C   UNL     1       9.227   3.739  -4.842  0.00  0.00    +0.040 A 
ATOM     32  C   UNL     1       9.640   5.040  -5.080  0.00  0.00    +0.124 A 
ATOM     33  C   UNL     1       8.822   6.102  -4.733  0.00  0.00    +0.040 A 
ATOM     34  C   UNL     1       7.592   5.866  -4.150  0.00  0.00    +0.030 A 
ATOM     35  F   UNL     1      10.842   5.272  -5.650  0.00  0.00    -0.205 F 
ENDBRANCH  27  29
ENDBRANCH  23  24
ENDBRANCH  14  23
TORSDOF 4
