REMARK  Name = ZINC02454216
REMARK  8 active torsions:
REMARK  status: ('A' for Active; 'I' for Inactive)
REMARK    1  A    between atoms: C_1  and  C_2
REMARK    2  A    between atoms: C_6  and  O_29
REMARK    3  A    between atoms: C_7  and  C_28
REMARK    4  A    between atoms: C_12  and  C_13
REMARK    5  A    between atoms: C_13  and  C_14
REMARK    6  A    between atoms: C_19  and  O_27
REMARK    7  A    between atoms: O_29  and  C_30
REMARK    8  A    between atoms: C_30  and  C_31
REMARK                            x       y       z     vdW  Elec       q    Type
REMARK                         _______ _______ _______ _____ _____    ______ ____
ROOT
ATOM      1  C   UNL     1       0.695   3.623  -1.175  0.00  0.00    +0.045 C 
ATOM      2  C   UNL     1      -0.405   2.780  -1.766  0.00  0.00    -0.029 A 
ATOM      3  C   UNL     1      -1.141   3.224  -2.951  0.00  0.00    +0.021 A 
ATOM      4  C   UNL     1      -0.842   4.445  -3.568  0.00  0.00    +0.015 A 
ATOM      5  C   UNL     1      -1.543   4.836  -4.672  0.00  0.00    +0.047 A 
ATOM      6  C   UNL     1      -2.554   4.027  -5.189  0.00  0.00    +0.127 A 
ATOM      7  C   UNL     1      -2.862   2.817  -4.592  0.00  0.00    +0.034 A 
ATOM      8  C   UNL     1      -2.160   2.404  -3.469  0.00  0.00    +0.146 A 
ATOM      9  O   UNL     1      -2.444   1.227  -2.872  0.00  0.00    -0.422 OA
ATOM     10  C   UNL     1      -1.770   0.811  -1.788  0.00  0.00    +0.341 A 
ATOM     11  O   UNL     1      -2.058  -0.261  -1.285  0.00  0.00    -0.245 OA
ATOM     12  C   UNL     1      -0.742   1.585  -1.213  0.00  0.00    +0.049 A 
ATOM     13  C   UNL     1      -3.956   1.950  -5.160  0.00  0.00    +0.051 C 
ENDROOT
BRANCH  12  14
ATOM     14  C   UNL     1      -0.013   1.086   0.008  0.00  0.00    +0.138 C 
BRANCH  14  15
ATOM     15  C   UNL     1      -0.718   1.572   1.248  0.00  0.00    +0.220 C 
ATOM     16  O   UNL     1      -1.714   2.256   1.150  0.00  0.00    -0.275 OA
ATOM     17  N   UNL     1      -0.242   1.246   2.466  0.00  0.00    -0.301 N 
ATOM     18  C   UNL     1       0.961   0.413   2.602  0.00  0.00    +0.110 C 
ATOM     19  C   UNL     1       1.966   1.149   3.501  0.00  0.00    +0.054 C 
ATOM     20  C   UNL     1       1.293   1.497   4.831  0.00  0.00    +0.072 C 
ATOM     21  C   UNL     1       2.303   2.212   5.734  0.00  0.00    +0.035 C 
ATOM     22  C   UNL     1       2.794   3.483   5.039  0.00  0.00    +0.003 C 
ATOM     23  C   UNL     1       1.607   4.410   4.769  0.00  0.00    +0.001 C 
ATOM     24  C   UNL     1       0.592   3.696   3.875  0.00  0.00    +0.008 C 
ATOM     25  C   UNL     1       0.103   2.426   4.574  0.00  0.00    +0.038 C 
ATOM     26  C   UNL     1      -0.918   1.712   3.684  0.00  0.00    +0.114 C 
BRANCH  20  27
ATOM     27  O   UNL     1       0.839   0.304   5.472  0.00  0.00    -0.388 OA
ATOM     28  H   UNL     1       1.542  -0.331   5.665  0.00  0.00    +0.210 HD
ENDBRANCH  20  27
ENDBRANCH  14  15
ENDBRANCH  12  14
BRANCH   6  29
ATOM     29  O   UNL     1      -3.242   4.430  -6.288  0.00  0.00    -0.487 OA
BRANCH  29  30
ATOM     30  C   UNL     1      -2.876   5.689  -6.857  0.00  0.00    +0.267 C 
BRANCH  30  31
ATOM     31  C   UNL     1      -3.741   5.967  -8.060  0.00  0.00    +0.025 A 
ATOM     32  C   UNL     1      -4.705   5.054  -8.443  0.00  0.00    +0.012 A 
ATOM     33  C   UNL     1      -5.500   5.308  -9.545  0.00  0.00    +0.039 A 
ATOM     34  C   UNL     1      -5.330   6.477 -10.267  0.00  0.00    +0.126 A 
ATOM     35  C   UNL     1      -4.364   7.392  -9.884  0.00  0.00    +0.077 A 
ATOM     36  C   UNL     1      -3.573   7.139  -8.777  0.00  0.00    +0.132 A 
ATOM     37  F   UNL     1      -2.634   8.034  -8.399  0.00  0.00    -0.205 F 
ATOM     38  F   UNL     1      -6.106   6.725 -11.344  0.00  0.00    -0.205 F 
ENDBRANCH  30  31
ENDBRANCH  29  30
ENDBRANCH   6  29
TORSDOF 6
