REMARK  Name = ZINC03416946
REMARK  7 active torsions:
REMARK  status: ('A' for Active; 'I' for Inactive)
REMARK    1  A    between atoms: C_4  and  C_7
REMARK    2  A    between atoms: C_10  and  C_12
REMARK    3  A    between atoms: C_16  and  S_26
REMARK    4  A    between atoms: C_17  and  C_24
REMARK    5  A    between atoms: S_26  and  C_27
REMARK    6  A    between atoms: C_27  and  C_28
REMARK    7  A    between atoms: C_31  and  C_34
REMARK                            x       y       z     vdW  Elec       q    Type
REMARK                         _______ _______ _______ _____ _____    ______ ____
ROOT
ATOM      1  C   UNL     1      -3.029   7.780   0.372  0.00  0.00    +0.117 C 
ATOM      2  C   UNL     1      -2.497   8.829   1.329  0.00  0.00    +0.080 C 
ATOM      3  N   UNL     1      -1.366   9.515   0.919  0.00  0.00    -0.298 N 
ATOM      4  C   UNL     1      -1.263   9.838  -0.420  0.00  0.00    +0.081 C 
ATOM      5  C   UNL     1      -2.139   9.356  -1.336  0.00  0.00    +0.064 C 
ATOM      6  C   UNL     1      -3.293   8.464  -0.975  0.00  0.00    +0.023 C 
ATOM      7  C   UNL     1      -4.572   9.299  -0.872  0.00  0.00    +0.013 C 
ATOM      8  C   UNL     1      -5.744   8.390  -0.496  0.00  0.00    +0.001 C 
ATOM      9  C   UNL     1      -5.923   7.317  -1.573  0.00  0.00    +0.000 C 
ATOM     10  C   UNL     1      -4.644   6.484  -1.680  0.00  0.00    +0.001 C 
ATOM     11  C   UNL     1      -3.472   7.394  -2.055  0.00  0.00    +0.013 C 
ATOM     12  H   UNL     1      -2.777   9.725   3.125  0.00  0.00    +0.157 HD
ATOM     13  H   UNL     1      -0.671   9.760   1.549  0.00  0.00    +0.154 HD
ATOM     14  N   UNL     1      -3.121   9.024   2.469  0.00  0.00    -0.390 N 
ATOM     15  H   UNL     1      -3.955   8.471   2.698  0.00  0.00    +0.157 HD
ENDROOT
BRANCH   1  19
ATOM     16  C   UNL     1      -1.134   4.559   0.225  0.00  0.00    +0.078 A 
ATOM     17  C   UNL     1       0.046   5.071  -0.243  0.00  0.00    +0.075 A 
ATOM     18  S   UNL     1      -0.373   6.803  -0.371  0.00  0.00    -0.079 S 
ATOM     19  C   UNL     1      -2.010   6.684   0.196  0.00  0.00    +0.090 A 
ATOM     20  N   UNL     1      -2.135   5.401   0.433  0.00  0.00    -0.243 NA
BRANCH  16  24
ATOM     21  C   UNL     1      -1.569   0.402   1.004  0.00  0.00    +0.000 A 
ATOM     22  C   UNL     1      -2.660   1.244   1.125  0.00  0.00    +0.001 A 
ATOM     23  C   UNL     1      -2.523   2.595   0.878  0.00  0.00    +0.010 A 
ATOM     24  C   UNL     1      -1.286   3.109   0.496  0.00  0.00    +0.001 A 
ATOM     25  C   UNL     1      -0.191   2.256   0.370  0.00  0.00    +0.010 A 
ATOM     26  C   UNL     1      -0.338   0.907   0.624  0.00  0.00    +0.001 A 
ENDBRANCH  16  24
ENDBRANCH   1  19
BRANCH   5  27
ATOM     27  C   UNL     1      -1.955   9.712  -2.711  0.00  0.00    +0.098 C 
ATOM     28  N   UNL     1      -1.809   9.995  -3.801  0.00  0.00    -0.191 NA
ENDBRANCH   5  27
BRANCH   4  29
ATOM     29  S   UNL     1       0.037  10.902  -0.951  0.00  0.00    -0.104 S 
BRANCH  29  30
ATOM     30  C   UNL     1       0.853  11.216   0.634  0.00  0.00    +0.110 C 
BRANCH  30  31
ATOM     31  C   UNL     1       2.031  12.131   0.420  0.00  0.00    -0.037 A 
ATOM     32  C   UNL     1       3.279  11.596   0.153  0.00  0.00    +0.006 A 
ATOM     33  C   UNL     1       4.361  12.427  -0.049  0.00  0.00    +0.019 A 
ATOM     34  C   UNL     1       4.197  13.812   0.028  0.00  0.00    +0.052 A 
ATOM     35  C   UNL     1       2.936  14.345   0.303  0.00  0.00    +0.019 A 
ATOM     36  C   UNL     1       1.861  13.502   0.497  0.00  0.00    +0.006 A 
BRANCH  34  37
ATOM     37  C   UNL     1       5.316  14.681  -0.176  0.00  0.00    +0.099 C 
ATOM     38  N   UNL     1       6.205  15.371  -0.337  0.00  0.00    -0.191 NA
ENDBRANCH  34  37
ENDBRANCH  30  31
ENDBRANCH  29  30
ENDBRANCH   4  29
TORSDOF 7
