REMARK  Name = ZINC08451059
REMARK  7 active torsions:
REMARK  status: ('A' for Active; 'I' for Inactive)
REMARK    1  A    between atoms: C_1  and  C_2
REMARK    2  A    between atoms: C_2  and  C_3
REMARK    3  A    between atoms: C_11  and  N_32
REMARK    4  A    between atoms: C_12  and  C_16
REMARK    5  A    between atoms: N_18  and  C_19
REMARK    6  A    between atoms: C_19  and  C_21
REMARK    7  A    between atoms: C_19  and  C_22
REMARK                            x       y       z     vdW  Elec       q    Type
REMARK                         _______ _______ _______ _____ _____    ______ ____
ROOT
ATOM      1  C   UNL     1      -0.750   3.109   1.275  0.00  0.00    -0.007 C 
ATOM      2  C   UNL     1      -1.378   3.610   2.581  0.00  0.00    +0.010 C 
ATOM      3  C   UNL     1      -1.164   5.119   2.671  0.00  0.00    +0.056 C 
ATOM      4  C   UNL     1      -1.621   5.795   1.404  0.00  0.00    +0.046 A 
ATOM      5  C   UNL     1      -1.811   5.105   0.221  0.00  0.00    -0.025 A 
ATOM      6  C   UNL     1      -2.218   5.780  -0.915  0.00  0.00    +0.017 A 
ATOM      7  C   UNL     1      -2.441   7.175  -0.857  0.00  0.00    +0.029 A 
ATOM      8  C   UNL     1      -2.867   8.077  -1.916  0.00  0.00    +0.053 A 
ATOM      9  C   UNL     1      -3.020   9.412  -1.616  0.00  0.00    +0.097 A 
ATOM     10  S   UNL     1      -2.592   9.498   0.112  0.00  0.00    -0.062 S 
ATOM     11  C   UNL     1      -2.223   7.785   0.399  0.00  0.00    +0.111 A 
ATOM     12  N   UNL     1      -1.835   7.103   1.451  0.00  0.00    -0.244 NA
ATOM     13  C   UNL     1      -1.593   3.618   0.108  0.00  0.00    +0.040 C 
ENDROOT
BRANCH   9  14
ATOM     14  C   UNL     1      -3.421  10.466  -2.475  0.00  0.00    +0.253 C 
ATOM     15  O   UNL     1      -3.680  10.234  -3.643  0.00  0.00    -0.270 OA
ATOM     16  N   UNL     1      -3.515  11.723  -2.001  0.00  0.00    -0.308 N 
ATOM     17  H   UNL     1      -3.309  11.908  -1.071  0.00  0.00    +0.149 HD
BRANCH  16  18
ATOM     18  C   UNL     1      -3.929  12.812  -2.889  0.00  0.00    +0.076 C 
ATOM     19  C   UNL     1      -2.711  13.345  -3.645  0.00  0.00    +0.028 C 
BRANCH  18  20
ATOM     20  C   UNL     1      -4.549  13.939  -2.060  0.00  0.00    -0.010 C 
ATOM     21  C   UNL     1      -3.517  14.462  -1.059  0.00  0.00    +0.012 C 
ATOM     22  C   UNL     1      -4.136  15.589  -0.230  0.00  0.00    -0.010 C 
ATOM     23  C   UNL     1      -4.569  16.726  -1.158  0.00  0.00    +0.007 C 
ATOM     24  C   UNL     1      -5.601  16.203  -2.159  0.00  0.00    -0.010 C 
ATOM     25  C   UNL     1      -4.981  15.076  -2.988  0.00  0.00    +0.012 C 
ATOM     26  C   UNL     1      -6.819  15.670  -1.403  0.00  0.00    +0.007 C 
ATOM     27  C   UNL     1      -6.387  14.533  -0.475  0.00  0.00    -0.010 C 
ATOM     28  C   UNL     1      -5.355  15.056   0.526  0.00  0.00    +0.007 C 
ATOM     29  C   UNL     1      -5.768  13.406  -1.304  0.00  0.00    +0.012 C 
ENDBRANCH  18  20
ENDBRANCH  16  18
ENDBRANCH   9  14
BRANCH   8  30
ATOM     30  N   UNL     1      -3.113   7.603  -3.197  0.00  0.00    -0.356 N 
ATOM     31  H   UNL     1      -3.001   6.660  -3.396  0.00  0.00    +0.142 HD
ATOM     32  H   UNL     1      -3.396   8.215  -3.894  0.00  0.00    +0.142 HD
ENDBRANCH   8  30
BRANCH   1  34
ATOM     33  C   UNL     1      -0.013   1.086   0.008  0.00  0.00    +0.004 C 
ATOM     34  C   UNL     1      -0.729   1.579   1.267  0.00  0.00    +0.000 C 
ENDBRANCH   1  34
TORSDOF 5
