REMARK  Name = ZINC58173653
REMARK  12 active torsions:
REMARK  status: ('A' for Active; 'I' for Inactive)
REMARK    1  A    between atoms: C_1  and  C_2
REMARK    2  A    between atoms: C_5  and  O_29
REMARK    3  A    between atoms: C_6  and  N_8
REMARK    4  A    between atoms: C_9  and  C_11
REMARK    5  A    between atoms: C_11  and  N_12
REMARK    6  A    between atoms: N_15  and  C_16
REMARK    7  A    between atoms: C_16  and  C_17
REMARK    8  A    between atoms: C_22  and  C_23
REMARK    9  A    between atoms: C_23  and  S_24
REMARK   10  A    between atoms: S_24  and  N_27
REMARK   11  A    between atoms: N_27  and  C_28
REMARK   12  A    between atoms: O_29  and  C_30
REMARK                            x       y       z     vdW  Elec       q    Type
REMARK                         _______ _______ _______ _____ _____    ______ ____
ROOT
ATOM      1  N   UNL     1       0.369  -1.951   5.978  0.00  0.00    -0.291 N 
ATOM      2  C   UNL     1       0.491  -2.410   7.239  0.00  0.00    +0.300 C 
ATOM      3  O   UNL     1       0.527  -3.607   7.449  0.00  0.00    -0.253 OA
ATOM      4  N   UNL     1       0.574  -1.543   8.267  0.00  0.00    -0.295 N 
ATOM      5  H   UNL     1       0.340  -0.996   5.810  0.00  0.00    +0.151 HD
ATOM      6  H   UNL     1       0.546  -0.588   8.099  0.00  0.00    +0.151 HD
ENDROOT
BRANCH   1   7
ATOM      7  C   UNL     1       0.279  -2.894   4.860  0.00  0.00    +0.202 C 
BRANCH   7   9
ATOM      8  N   UNL     1       0.050  -2.795   2.399  0.00  0.00    -0.281 N 
ATOM      9  C   UNL     1       0.149  -2.130   3.568  0.00  0.00    +0.235 C 
ATOM     10  O   UNL     1       0.134  -0.917   3.579  0.00  0.00    -0.274 OA
ATOM     11  H   UNL     1      -0.018  -3.762   2.396  0.00  0.00    +0.155 HD
BRANCH   8  17
ATOM     12  C   UNL     1       1.263   1.227  -0.157  0.00  0.00    +0.044 C 
ATOM     13  C   UNL     1       0.627  -0.137  -0.079  0.00  0.00    -0.048 A 
ATOM     14  C   UNL     1       0.040  -0.689  -1.202  0.00  0.00    +0.007 A 
ATOM     15  C   UNL     1      -0.546  -1.940  -1.136  0.00  0.00    +0.048 A 
ATOM     16  C   UNL     1      -0.545  -2.643   0.058  0.00  0.00    +0.141 A 
ATOM     17  C   UNL     1       0.047  -2.088   1.189  0.00  0.00    +0.076 A 
ATOM     18  C   UNL     1       0.637  -0.835   1.114  0.00  0.00    +0.030 A 
BRANCH  16  19
ATOM     19  O   UNL     1      -1.121  -3.873   0.124  0.00  0.00    -0.493 OA
ATOM     20  C   UNL     1      -1.709  -4.380  -1.076  0.00  0.00    +0.277 C 
ENDBRANCH  16  19
ENDBRANCH   8  17
ENDBRANCH   7   9
ENDBRANCH   1   7
BRANCH   4  21
ATOM     21  C   UNL     1       0.708  -2.042   9.638  0.00  0.00    +0.141 C 
BRANCH  21  22
ATOM     22  C   UNL     1       0.780  -0.877  10.592  0.00  0.00    -0.026 A 
ATOM     23  C   UNL     1       2.004  -0.456  11.077  0.00  0.00    +0.005 A 
ATOM     24  C   UNL     1       2.070   0.612  11.951  0.00  0.00    +0.000 A 
ATOM     25  C   UNL     1       0.912   1.259  12.342  0.00  0.00    +0.000 A 
ATOM     26  C   UNL     1      -0.312   0.838  11.856  0.00  0.00    +0.005 A 
ATOM     27  C   UNL     1      -0.378  -0.228  10.978  0.00  0.00    -0.020 A 
BRANCH  27  28
ATOM     28  C   UNL     1      -1.711  -0.683  10.444  0.00  0.00    +0.220 C 
BRANCH  28  29
ATOM     29  S   UNL     1      -2.408  -1.939  11.552  0.00  0.00    +0.033 S 
ATOM     30  O   UNL     1      -1.628  -3.126  11.500  0.00  0.00    -0.158 OA
ATOM     31  O   UNL     1      -2.753  -1.354  12.800  0.00  0.00    -0.158 OA
BRANCH  29  32
ATOM     32  N   UNL     1      -3.857  -2.356  10.866  0.00  0.00    -0.197 NA
ATOM     33  C   UNL     1      -3.885  -3.016   9.559  0.00  0.00    +0.127 C 
ATOM     34  H   UNL     1      -4.687  -2.162  11.329  0.00  0.00    +0.147 HD
ENDBRANCH  29  32
ENDBRANCH  28  29
ENDBRANCH  27  28
ENDBRANCH  21  22
ENDBRANCH   4  21
TORSDOF 9
