REMARK  Name = ZINC64055485
REMARK  9 active torsions:
REMARK  status: ('A' for Active; 'I' for Inactive)
REMARK    1  A    between atoms: C_1  and  C_2
REMARK    2  A    between atoms: C_6  and  N_8
REMARK    3  A    between atoms: C_9  and  S_23
REMARK    4  A    between atoms: C_13  and  C_14
REMARK    5  A    between atoms: S_23  and  C_24
REMARK    6  A    between atoms: C_24  and  C_26
REMARK    7  A    between atoms: C_24  and  C_29
REMARK    8  A    between atoms: C_26  and  C_27
REMARK    9  A    between atoms: C_26  and  C_28
REMARK                            x       y       z     vdW  Elec       q    Type
REMARK                         _______ _______ _______ _____ _____    ______ ____
ROOT
ATOM      1  N   UNL     1       0.504  -2.191   2.844  0.00  0.00    -0.254 N 
ATOM      2  C   UNL     1       0.289  -3.474   3.533  0.00  0.00    +0.242 C 
ATOM      3  N   UNL     1       0.995  -3.320   4.816  0.00  0.00    -0.237 N 
ATOM      4  N   UNL     1       1.553  -2.036   4.811  0.00  0.00    -0.169 NA
ATOM      5  C   UNL     1       1.281  -1.404   3.700  0.00  0.00    +0.151 C 
ATOM      6  H   UNL     1       1.062  -3.979   5.524  0.00  0.00    +0.171 HD
ENDROOT
BRANCH   5   7
ATOM      7  C   UNL     1       1.711  -0.101   3.404  0.00  0.00    +0.022 C 
ATOM      8  C   UNL     1       2.569   0.696   4.162  0.00  0.00    +0.006 A 
ATOM      9  C   UNL     1       3.241   0.479   5.384  0.00  0.00    +0.010 A 
ATOM     10  C   UNL     1       4.032   1.454   5.900  0.00  0.00    +0.001 A 
ATOM     11  C   UNL     1       4.200   2.679   5.251  0.00  0.00    +0.002 A 
ATOM     12  C   UNL     1       3.584   2.956   4.075  0.00  0.00    +0.026 A 
ATOM     13  C   UNL     1       2.743   1.985   3.474  0.00  0.00    +0.043 A 
ATOM     14  N   UNL     1       2.045   2.009   2.355  0.00  0.00    -0.380 N 
ATOM     15  C   UNL     1       1.345   0.730   2.194  0.00  0.00    +0.152 C 
ATOM     16  H   UNL     1       2.003   2.753   1.735  0.00  0.00    +0.160 HD
ENDBRANCH   5   7
BRANCH   1  22
ATOM     17  C   UNL     1      -3.271  -1.601  -0.247  0.00  0.00    +0.044 C 
ATOM     18  C   UNL     1      -1.796  -1.536   0.054  0.00  0.00    -0.049 A 
ATOM     19  C   UNL     1      -0.909  -1.121  -0.923  0.00  0.00    +0.003 A 
ATOM     20  C   UNL     1       0.445  -1.060  -0.652  0.00  0.00    +0.002 A 
ATOM     21  C   UNL     1       0.917  -1.414   0.597  0.00  0.00    +0.023 A 
ATOM     22  C   UNL     1       0.030  -1.832   1.580  0.00  0.00    +0.038 A 
ATOM     23  C   UNL     1      -1.331  -1.887   1.306  0.00  0.00    +0.027 A 
ENDBRANCH   1  22
BRANCH   2  24
ATOM     24  S   UNL     1       1.001  -4.837   2.572  0.00  0.00    -0.105 S 
BRANCH  24  25
ATOM     25  C   UNL     1       2.792  -4.590   2.720  0.00  0.00    +0.138 C 
BRANCH  25  26
ATOM     26  C   UNL     1       3.199  -4.716   4.165  0.00  0.00    +0.234 C 
ATOM     27  O   UNL     1       2.362  -4.941   5.013  0.00  0.00    -0.274 OA
ATOM     28  N   UNL     1       4.493  -4.577   4.516  0.00  0.00    -0.239 N 
ATOM     29  C   UNL     1       4.856  -4.689   5.809  0.00  0.00    +0.303 C 
ATOM     30  O   UNL     1       4.018  -4.916   6.659  0.00  0.00    -0.253 OA
ATOM     31  N   UNL     1       6.151  -4.551   6.159  0.00  0.00    -0.313 N 
ATOM     32  H   UNL     1       5.162  -4.397   3.838  0.00  0.00    +0.159 HD
ATOM     33  H   UNL     1       6.820  -4.370   5.481  0.00  0.00    +0.146 HD
ATOM     34  H   UNL     1       6.412  -4.632   7.090  0.00  0.00    +0.146 HD
ENDBRANCH  25  26
BRANCH  25  35
ATOM     35  C   UNL     1       3.158  -3.196   2.206  0.00  0.00    +0.005 C 
ATOM     36  C   UNL     1       4.577  -2.843   2.658  0.00  0.00    +0.009 C 
ATOM     37  C   UNL     1       3.092  -3.182   0.678  0.00  0.00    +0.009 C 
ENDBRANCH  25  35
ENDBRANCH  24  25
ENDBRANCH   2  24
TORSDOF 6
