REMARK  Name = ZINC05042948
REMARK  10 active torsions:
REMARK  status: ('A' for Active; 'I' for Inactive)
REMARK    1  A    between atoms: C_1  and  C_2
REMARK    2  A    between atoms: C_2  and  C_3
REMARK    3  A    between atoms: C_2  and  C_4
REMARK    4  A    between atoms: C_6  and  C_23
REMARK    5  A    between atoms: C_9  and  C_15
REMARK    6  A    between atoms: N_13  and  O_14
REMARK    7  A    between atoms: C_18  and  O_21
REMARK    8  A    between atoms: O_21  and  C_22
REMARK    9  A    between atoms: C_26  and  O_29
REMARK   10  A    between atoms: O_29  and  C_30
REMARK                            x       y       z     vdW  Elec       q    Type
REMARK                         _______ _______ _______ _____ _____    ______ ____
ROOT
ATOM      1  C   UNL     1      -5.630   3.959   0.310  0.00  0.00    +0.029 C 
ATOM      2  C   UNL     1      -4.764   3.931  -0.955  0.00  0.00    -0.031 C 
ATOM      3  N   UNL     1      -3.503   3.237  -0.668  0.00  0.00    +0.389 N 
ATOM      4  C   UNL     1      -2.690   3.976   0.306  0.00  0.00    -0.034 C 
ATOM      5  C   UNL     1      -3.414   4.006   1.656  0.00  0.00    +0.043 C 
ATOM      6  C   UNL     1      -4.808   4.555   1.434  0.00  0.00    +0.058 C 
ATOM      7  N   UNL     1      -5.277   5.490   2.171  0.00  0.00    -0.096 NA
ATOM      8  H   UNL     1      -3.719   2.240  -0.255  0.00  0.00    -0.084 HD
ATOM      9  H   UNL     1      -2.923   3.131  -1.597  0.00  0.00    -0.084 HD
ENDROOT
BRANCH   4  10
ATOM     10  C   UNL     1      -1.355   3.294   0.467  0.00  0.00    -0.061 A 
ATOM     11  C   UNL     1      -1.285   1.913   0.494  0.00  0.00    +0.005 A 
ATOM     12  C   UNL     1      -0.064   1.286   0.647  0.00  0.00    +0.046 A 
ATOM     13  C   UNL     1       1.093   2.042   0.763  0.00  0.00    +0.120 A 
ATOM     14  C   UNL     1       1.021   3.427   0.730  0.00  0.00    +0.046 A 
ATOM     15  C   UNL     1      -0.203   4.050   0.582  0.00  0.00    +0.005 A 
BRANCH  13  16
ATOM     16  O   UNL     1       2.297   1.427   0.908  0.00  0.00    -0.495 OA
ATOM     17  C   UNL     1       3.446   2.268   1.022  0.00  0.00    +0.277 C 
ENDBRANCH  13  16
ENDBRANCH   4  10
BRANCH   2  18
ATOM     18  C   UNL     1      -4.472   5.343  -1.395  0.00  0.00    -0.061 A 
ATOM     19  C   UNL     1      -5.309   6.373  -1.009  0.00  0.00    +0.005 A 
ATOM     20  C   UNL     1      -5.040   7.669  -1.406  0.00  0.00    +0.046 A 
ATOM     21  C   UNL     1      -3.935   7.934  -2.203  0.00  0.00    +0.120 A 
ATOM     22  C   UNL     1      -3.100   6.897  -2.593  0.00  0.00    +0.046 A 
ATOM     23  C   UNL     1      -3.370   5.604  -2.189  0.00  0.00    +0.005 A 
BRANCH  21  24
ATOM     24  O   UNL     1      -3.671   9.207  -2.599  0.00  0.00    -0.495 OA
ATOM     25  C   UNL     1      -4.574  10.223  -2.159  0.00  0.00    +0.277 C 
ENDBRANCH  21  24
ENDBRANCH   2  18
BRANCH   1  27
ATOM     26  C   UNL     1      -6.915   2.569   1.940  0.00  0.00    +0.008 C 
ATOM     27  C   UNL     1      -6.052   2.535   0.677  0.00  0.00    -0.010 C 
ATOM     28  C   UNL     1      -6.856   1.928  -0.474  0.00  0.00    +0.008 C 
ENDBRANCH   1  27
BRANCH   7  29
ATOM     29  O   UNL     1      -4.488   6.030   3.215  0.00  0.00    -0.409 OA
ATOM     30  H   UNL     1      -4.890   6.834   3.849  0.00  0.00    +0.328 HD
ENDBRANCH   7  29
TORSDOF 6
