REMARK  Name = ZINC35789480
REMARK  5 active torsions:
REMARK  status: ('A' for Active; 'I' for Inactive)
REMARK    1  A    between atoms: C_1  and  C_2
REMARK    2  A    between atoms: C_6  and  C_10
REMARK    3  A    between atoms: C_11  and  C_13
REMARK    4  A    between atoms: C_16  and  C_19
REMARK    5  A    between atoms: N_20  and  O_21
REMARK                            x       y       z     vdW  Elec       q    Type
REMARK                         _______ _______ _______ _____ _____    ______ ____
ROOT
ATOM      1  C   UNL     1      -1.920  -4.283  -0.495  0.00  0.00    +0.037 A 
ATOM      2  C   UNL     1      -1.748  -4.858   0.766  0.00  0.00    +0.014 A 
ATOM      3  C   UNL     1      -1.609  -6.222   0.887  0.00  0.00    +0.012 A 
ATOM      4  C   UNL     1      -1.640  -7.031  -0.249  0.00  0.00    +0.018 A 
ATOM      5  C   UNL     1      -1.812  -6.457  -1.510  0.00  0.00    +0.012 A 
ATOM      6  C   UNL     1      -1.957  -5.093  -1.632  0.00  0.00    +0.014 A 
ENDROOT
BRANCH   1  15
ATOM      7  C   UNL     1       0.126   1.502  -0.619  0.00  0.00    +0.039 C 
ATOM      8  C   UNL     1       0.126  -0.028  -0.605  0.00  0.00    +0.133 C 
ATOM      9  C   UNL     1      -1.265  -0.537  -0.211  0.00  0.00    +0.139 C 
ATOM     10  N   UNL     1      -1.190  -1.995  -0.023  0.00  0.00    -0.290 N 
ATOM     11  C   UNL     1      -0.126  -2.526   0.844  0.00  0.00    +0.099 C 
ATOM     12  C   UNL     1       1.209  -1.921   0.398  0.00  0.00    +0.182 C 
ATOM     13  O   UNL     1       1.087  -0.497   0.344  0.00  0.00    -0.373 OA
ATOM     14  C   UNL     1      -0.407  -2.143   2.299  0.00  0.00    +0.030 C 
ATOM     15  C   UNL     1      -2.069  -2.818  -0.627  0.00  0.00    +0.247 C 
ATOM     16  O   UNL     1      -2.985  -2.357  -1.279  0.00  0.00    -0.270 OA
ENDBRANCH   1  15
BRANCH   4  17
ATOM     17  C   UNL     1      -1.490  -8.498  -0.118  0.00  0.00    +0.162 C 
ATOM     18  N   UNL     1      -1.330  -9.033   1.056  0.00  0.00    -0.072 NA
ATOM     19  N   UNL     1      -1.521  -9.301  -1.246  0.00  0.00    -0.340 N 
ATOM     20  H   UNL     1      -1.641  -8.902  -2.122  0.00  0.00    +0.144 HD
ATOM     21  H   UNL     1      -1.423 -10.262  -1.160  0.00  0.00    +0.144 HD
BRANCH  18  22
ATOM     22  O   UNL     1      -1.187 -10.436   1.182  0.00  0.00    -0.408 OA
ATOM     23  H   UNL     1      -1.073 -10.740   2.093  0.00  0.00    +0.328 HD
ENDBRANCH  18  22
ENDBRANCH   4  17
TORSDOF 3
