REMARK  Name = ZINC20858750
REMARK  7 active torsions:
REMARK  status: ('A' for Active; 'I' for Inactive)
REMARK    1  A    between atoms: C_1  and  C_2
REMARK    2  A    between atoms: C_2  and  C_3
REMARK    3  A    between atoms: C_9  and  C_13
REMARK    4  A    between atoms: C_13  and  O_14
REMARK    5  A    between atoms: O_14  and  C_15
REMARK    6  A    between atoms: C_18  and  C_21
REMARK    7  A    between atoms: C_33  and  C_37
REMARK                            x       y       z     vdW  Elec       q    Type
REMARK                         _______ _______ _______ _____ _____    ______ ____
ROOT
ATOM      1  C   UNL     1      -8.354  -4.559  -1.321  0.00  0.00    +0.121 A 
ATOM      2  C   UNL     1      -9.308  -4.670  -0.316  0.00  0.00    +0.046 A 
ATOM      3  C   UNL     1     -10.375  -5.528  -0.468  0.00  0.00    +0.015 A 
ATOM      4  C   UNL     1     -10.498  -6.287  -1.635  0.00  0.00    +0.018 A 
ATOM      5  C   UNL     1      -9.537  -6.172  -2.643  0.00  0.00    +0.015 A 
ATOM      6  C   UNL     1      -8.476  -5.308  -2.485  0.00  0.00    +0.046 A 
ENDROOT
BRANCH   4   7
ATOM      7  C   UNL     1     -11.639  -7.208  -1.802  0.00  0.00    +0.142 A 
ATOM      8  N   UNL     1     -11.745  -7.950  -2.946  0.00  0.00    -0.306 N 
ATOM      9  H   UNL     1     -11.069  -7.862  -3.635  0.00  0.00    +0.170 HD
ATOM     10  C   UNL     1     -12.772  -8.801  -3.133  0.00  0.00    +0.260 A 
ATOM     11  O   UNL     1     -12.853  -9.456  -4.157  0.00  0.00    -0.267 OA
ATOM     12  C   UNL     1     -13.767  -8.925  -2.109  0.00  0.00    +0.075 A 
ATOM     13  C   UNL     1     -14.954  -9.780  -2.099  0.00  0.00    -0.023 A 
ATOM     14  C   UNL     1     -15.745  -9.716  -1.007  0.00  0.00    -0.004 A 
ATOM     15  S   UNL     1     -14.966  -8.531   0.057  0.00  0.00    -0.073 S 
ATOM     16  C   UNL     1     -13.577  -8.124  -0.970  0.00  0.00    +0.116 A 
ATOM     17  N   UNL     1     -12.538  -7.309  -0.845  0.00  0.00    -0.222 NA
ATOM     18  C   UNL     1     -17.006 -10.485  -0.754  0.00  0.00    +0.046 C 
ATOM     19  C   UNL     1     -17.078 -11.641  -1.762  0.00  0.00    -0.009 C 
ATOM     20  C   UNL     1     -16.777 -11.093  -3.160  0.00  0.00    +0.008 C 
ATOM     21  C   UNL     1     -15.300 -10.708  -3.260  0.00  0.00    +0.037 C 
ATOM     22  C   UNL     1     -18.480 -12.254  -1.739  0.00  0.00    +0.008 C 
ENDBRANCH   4   7
BRANCH   1  23
ATOM     23  O   UNL     1      -7.304  -3.713  -1.167  0.00  0.00    -0.486 OA
BRANCH  23  24
ATOM     24  C   UNL     1      -7.241  -2.973   0.054  0.00  0.00    +0.284 C 
BRANCH  24  31
ATOM     25  C   UNL     1      -1.412  -0.526   0.013  0.00  0.00    +0.102 A 
ATOM     26  N   UNL     1      -2.527   0.139   0.022  0.00  0.00    -0.159 NA
ATOM     27  N   UNL     1      -3.761  -0.504   0.030  0.00  0.00    -0.171 N 
ATOM     28  C   UNL     1      -4.996   0.078   0.040  0.00  0.00    +0.275 A 
ATOM     29  O   UNL     1      -5.098   1.295   0.041  0.00  0.00    -0.266 OA
ATOM     30  C   UNL     1      -6.140  -0.720   0.047  0.00  0.00    +0.099 A 
ATOM     31  C   UNL     1      -6.017  -2.093   0.045  0.00  0.00    +0.087 A 
ATOM     32  N   UNL     1      -4.799  -2.628   0.036  0.00  0.00    -0.223 NA
ATOM     33  C   UNL     1      -3.730  -1.872   0.029  0.00  0.00    +0.199 A 
ATOM     34  S   UNL     1      -1.984  -2.217   0.009  0.00  0.00    -0.033 S 
BRANCH  25  36
ATOM     35  C   UNL     1      -0.019   1.526   0.010  0.00  0.00    +0.011 C 
ATOM     36  C   UNL     1       0.002  -0.004   0.002  0.00  0.00    +0.061 C 
ENDBRANCH  25  36
ENDBRANCH  24  31
ENDBRANCH  23  24
ENDBRANCH   1  23
TORSDOF 5
