REMARK  Name = ZINC37877947
REMARK  3 active torsions:
REMARK  status: ('A' for Active; 'I' for Inactive)
REMARK    1  A    between atoms: C_6  and  N_7
REMARK    2  A    between atoms: N_7  and  C_8
REMARK    3  A    between atoms: C_15  and  O_17
REMARK                            x       y       z     vdW  Elec       q    Type
REMARK                         _______ _______ _______ _____ _____    ______ ____
ROOT
ATOM      1  N   UNL     1      -1.200  -0.721   0.008  0.00  0.00    -0.338 N 
ATOM      2  H   UNL     1      -1.186  -1.690   0.003  0.00  0.00    +0.146 HD
ENDROOT
BRANCH   1   8
ATOM      3  C   UNL     1      -0.017   1.384   0.010  0.00  0.00    +0.027 A 
ATOM      4  C   UNL     1       1.170   2.092   0.002  0.00  0.00    +0.051 A 
ATOM      5  C   UNL     1       2.382   1.419  -0.013  0.00  0.00    +0.162 A 
ATOM      6  C   UNL     1       2.405   0.029  -0.018  0.00  0.00    +0.164 A 
ATOM      7  C   UNL     1       1.214  -0.681  -0.012  0.00  0.00    +0.072 A 
ATOM      8  C   UNL     1       0.002  -0.004   0.002  0.00  0.00    +0.031 A 
ATOM      9  O   UNL     1       3.585  -0.648  -0.025  0.00  0.00    -0.485 OA
ATOM     10  C   UNL     1       4.750   0.091  -0.407  0.00  0.00    +0.270 C 
ATOM     11  C   UNL     1       4.735   1.431   0.340  0.00  0.00    +0.270 C 
ATOM     12  O   UNL     1       3.542   2.134  -0.024  0.00  0.00    -0.485 OA
ENDBRANCH   1   8
BRANCH   1  13
ATOM     13  C   UNL     1      -2.479  -0.006   0.023  0.00  0.00    +0.099 C 
ATOM     14  C   UNL     1      -2.837   0.379  -1.387  0.00  0.00    +0.025 C 
ATOM     15  C   UNL     1      -3.556   1.743  -1.355  0.00  0.00    +0.002 C 
ATOM     16  C   UNL     1      -4.958   1.623  -0.982  0.00  0.00    +0.000 C 
ATOM     17  C   UNL     1      -5.141   1.045   0.436  0.00  0.00    +0.003 C 
ATOM     18  C   UNL     1      -4.983  -0.449   0.367  0.00  0.00    +0.033 C 
ATOM     19  C   UNL     1      -3.545  -0.906   0.676  0.00  0.00    +0.135 C 
BRANCH  19  20
ATOM     20  O   UNL     1      -3.373  -2.243   0.203  0.00  0.00    -0.390 OA
ATOM     21  H   UNL     1      -4.008  -2.874   0.568  0.00  0.00    +0.210 HD
ENDBRANCH  19  20
ENDBRANCH   1  13
TORSDOF 3
