REMARK  Name = ZINC02297705
REMARK  6 active torsions:
REMARK  status: ('A' for Active; 'I' for Inactive)
REMARK    1  A    between atoms: C_2  and  C_27
REMARK    2  A    between atoms: C_6  and  N_26
REMARK    3  A    between atoms: C_8  and  N_16
REMARK    4  A    between atoms: N_11  and  C_12
REMARK    5  A    between atoms: N_19  and  C_22
REMARK    6  A    between atoms: C_22  and  N_24
REMARK                            x       y       z     vdW  Elec       q    Type
REMARK                         _______ _______ _______ _____ _____    ______ ____
ROOT
ATOM      1  C   UNL     1       0.454   1.005   0.008  0.00  0.00    +0.105 A 
ATOM      2  C   UNL     1       0.668  -0.357  -0.042  0.00  0.00    +0.126 A 
ATOM      3  C   UNL     1       2.048  -0.858  -0.162  0.00  0.00    +0.205 A 
ATOM      4  O   UNL     1       2.287  -2.053  -0.208  0.00  0.00    -0.286 OA
ATOM      5  C   UNL     1       3.124   0.141  -0.221  0.00  0.00    +0.072 A 
ATOM      6  C   UNL     1       4.467  -0.248  -0.335  0.00  0.00    +0.075 A 
ATOM      7  C   UNL     1       5.456   0.719  -0.389  0.00  0.00    +0.168 A 
ATOM      8  C   UNL     1       5.117   2.069  -0.330  0.00  0.00    +0.105 A 
ATOM      9  C   UNL     1       3.789   2.461  -0.217  0.00  0.00    +0.171 A 
ATOM     10  C   UNL     1       2.783   1.505  -0.162  0.00  0.00    +0.092 A 
ATOM     11  N   UNL     1       1.460   1.887  -0.050  0.00  0.00    -0.340 N 
ATOM     12  F   UNL     1       3.476   3.774  -0.162  0.00  0.00    -0.201 F 
ATOM     13  F   UNL     1       6.752   0.354  -0.498  0.00  0.00    -0.201 F 
ENDROOT
BRANCH   8  14
ATOM     14  N   UNL     1       6.120   3.037  -0.384  0.00  0.00    -0.322 N 
ATOM     15  C   UNL     1       6.814   3.003  -1.679  0.00  0.00    +0.124 C 
ATOM     16  C   UNL     1       7.779   4.190  -1.768  0.00  0.00    +0.125 C 
ATOM     17  N   UNL     1       8.659   4.166  -0.590  0.00  0.00    -0.310 N 
ATOM     18  C   UNL     1       8.040   4.061   0.740  0.00  0.00    +0.125 C 
ATOM     19  C   UNL     1       7.064   2.879   0.730  0.00  0.00    +0.124 C 
BRANCH  17  20
ATOM     20  C   UNL     1       9.998   4.238  -0.725  0.00  0.00    +0.130 C 
ATOM     21  S   UNL     1      11.007   4.075   0.648  0.00  0.00    -0.019 S 
BRANCH  20  22
ATOM     22  N   UNL     1      10.543   4.438  -1.942  0.00  0.00    -0.340 N 
ATOM     23  H   UNL     1       9.971   4.606  -2.708  0.00  0.00    +0.144 HD
ATOM     24  H   UNL     1      11.506   4.415  -2.052  0.00  0.00    +0.144 HD
ENDBRANCH  20  22
ENDBRANCH  17  20
ENDBRANCH   8  14
BRANCH  11  25
ATOM     25  C   UNL     1       1.145   3.317   0.009  0.00  0.00    +0.088 C 
ATOM     26  C   UNL     1      -0.328   3.711   0.136  0.00  0.00    +0.027 C 
ATOM     27  C   UNL     1       0.411   3.928  -1.187  0.00  0.00    +0.027 C 
ENDBRANCH  11  25
BRANCH   6  28
ATOM     28  N   UNL     1       4.804  -1.599  -0.394  0.00  0.00    -0.355 N 
ATOM     29  H   UNL     1       4.155  -2.248  -0.707  0.00  0.00    +0.142 HD
ATOM     30  H   UNL     1       5.688  -1.891  -0.120  0.00  0.00    +0.142 HD
ENDBRANCH   6  28
BRANCH   2  31
ATOM     31  C   UNL     1      -0.463  -1.292   0.025  0.00  0.00    +0.392 C 
ATOM     32  O   UNL     1      -0.264  -2.491  -0.020  0.00  0.00    -0.240 OA
ATOM     33  O   UNL     1      -1.722  -0.822   0.135  0.00  0.00    -0.240 OA
ENDBRANCH   2  31
TORSDOF 6
