REMARK  Name = ZINC21230702
REMARK  11 active torsions:
REMARK  status: ('A' for Active; 'I' for Inactive)
REMARK    1  A    between atoms: C_1  and  C_2
REMARK    2  A    between atoms: C_2  and  O_3
REMARK    3  A    between atoms: O_3  and  C_4
REMARK    4  A    between atoms: C_7  and  C_10
REMARK    5  A    between atoms: C_15  and  C_25
REMARK    6  A    between atoms: C_27  and  O_35
REMARK    7  A    between atoms: C_28  and  O_33
REMARK    8  A    between atoms: C_29  and  O_31
REMARK    9  A    between atoms: O_31  and  C_32
REMARK   10  A    between atoms: O_33  and  C_34
REMARK   11  A    between atoms: O_35  and  C_36
REMARK                            x       y       z     vdW  Elec       q    Type
REMARK                         _______ _______ _______ _____ _____    ______ ____
ROOT
ATOM      1  C   UNL     1      -3.546   7.220   5.305  0.00  0.00    +0.032 C 
ATOM      2  C   UNL     1      -2.506   8.329   5.160  0.00  0.00    +0.059 C 
ATOM      3  C   UNL     1      -1.625   8.063   3.951  0.00  0.00    +0.017 C 
ATOM      4  C   UNL     1      -2.122   7.437   2.870  0.00  0.00    +0.036 C 
ATOM      5  C   UNL     1      -1.365   7.122   1.603  0.00  0.00    +0.136 C 
ATOM      6  N   UNL     1      -0.078   7.776   1.492  0.00  0.00    -0.331 N 
ATOM      7  C   UNL     1       0.956   7.479   2.379  0.00  0.00    +0.049 A 
ATOM      8  C   UNL     1       2.127   6.877   1.951  0.00  0.00    +0.025 A 
ATOM      9  C   UNL     1       3.106   6.558   2.877  0.00  0.00    +0.002 A 
ATOM     10  C   UNL     1       2.916   6.835   4.219  0.00  0.00    +0.002 A 
ATOM     11  C   UNL     1       1.754   7.453   4.647  0.00  0.00    +0.025 A 
ATOM     12  C   UNL     1       0.785   7.793   3.719  0.00  0.00    +0.052 A 
ATOM     13  N   UNL     1      -0.351   8.516   4.062  0.00  0.00    -0.316 N 
ATOM     14  C   UNL     1      -3.470   7.005   2.854  0.00  0.00    +0.163 C 
ATOM     15  O   UNL     1      -3.898   6.457   1.857  0.00  0.00    -0.292 OA
ATOM     16  C   UNL     1      -4.387   7.199   4.023  0.00  0.00    +0.088 C 
ATOM     17  H   UNL     1       0.095   8.519   0.699  0.00  0.00    +0.147 HD
ATOM     18  H   UNL     1      -0.159   9.528   4.449  0.00  0.00    +0.152 HD
ENDROOT
BRANCH   1  22
ATOM     19  C   UNL     1      -6.051   8.013   8.674  0.00  0.00    +0.121 A 
ATOM     20  C   UNL     1      -5.299   6.849   8.627  0.00  0.00    +0.046 A 
ATOM     21  C   UNL     1      -4.489   6.595   7.537  0.00  0.00    +0.007 A 
ATOM     22  C   UNL     1      -4.429   7.500   6.493  0.00  0.00    -0.043 A 
ATOM     23  C   UNL     1      -5.173   8.664   6.541  0.00  0.00    +0.007 A 
ATOM     24  C   UNL     1      -5.989   8.920   7.626  0.00  0.00    +0.046 A 
BRANCH  19  25
ATOM     25  O   UNL     1      -6.848   8.266   9.746  0.00  0.00    -0.492 OA
BRANCH  25  27
ATOM     26  C   UNL     1      -8.426   9.593  11.007  0.00  0.00    +0.048 C 
ATOM     27  C   UNL     1      -7.594   9.484   9.727  0.00  0.00    +0.225 C 
ENDBRANCH  25  27
ENDBRANCH  19  25
ENDBRANCH   1  22
BRANCH   5  28
ATOM     28  C   UNL     1      -1.151   5.632   1.532  0.00  0.00    -0.016 A 
ATOM     29  C   UNL     1      -1.720   4.902   0.506  0.00  0.00    +0.055 A 
ATOM     30  C   UNL     1      -1.525   3.531   0.437  0.00  0.00    +0.165 A 
ATOM     31  C   UNL     1      -0.756   2.891   1.402  0.00  0.00    +0.204 A 
ATOM     32  C   UNL     1      -0.190   3.628   2.436  0.00  0.00    +0.165 A 
ATOM     33  C   UNL     1      -0.385   5.000   2.494  0.00  0.00    +0.055 A 
BRANCH  32  34
ATOM     34  O   UNL     1       0.559   3.006   3.385  0.00  0.00    -0.491 OA
ATOM     35  C   UNL     1       1.018   3.806   4.477  0.00  0.00    +0.277 C 
ENDBRANCH  32  34
BRANCH  31  36
ATOM     36  O   UNL     1      -0.562   1.545   1.339  0.00  0.00    -0.488 OA
ATOM     37  C   UNL     1       0.572   1.087   0.600  0.00  0.00    +0.277 C 
ENDBRANCH  31  36
BRANCH  30  38
ATOM     38  O   UNL     1      -2.084   2.813  -0.573  0.00  0.00    -0.491 OA
ATOM     39  C   UNL     1      -2.862   3.537  -1.529  0.00  0.00    +0.277 C 
ENDBRANCH  30  38
ENDBRANCH   5  28
TORSDOF 7
