REMARK  Name = ZINC16509402
REMARK  10 active torsions:
REMARK  status: ('A' for Active; 'I' for Inactive)
REMARK    1  A    between atoms: C_4  and  C_7
REMARK    2  A    between atoms: C_7  and  C_8
REMARK    3  A    between atoms: N_13  and  C_14
REMARK    4  A    between atoms: N_13  and  C_31
REMARK    5  A    between atoms: C_14  and  C_15
REMARK    6  A    between atoms: C_15  and  C_16
REMARK    7  A    between atoms: N_18  and  C_19
REMARK    8  A    between atoms: C_24  and  C_25
REMARK    9  A    between atoms: C_24  and  N_70
REMARK   10  A    between atoms: C_31  and  C_32
REMARK                            x       y       z     vdW  Elec       q    Type
REMARK                         _______ _______ _______ _____ _____    ______ ____
ROOT
ATOM      1  C   UNL     1       3.740   6.265   0.969  0.00  0.00    +0.117 C 
ENDROOT
BRANCH   1   7
ATOM      2  C   UNL     1       2.572  10.236   3.228  0.00  0.00    +0.145 A 
ATOM      3  N   UNL     1       3.105   9.767   2.124  0.00  0.00    -0.208 NA
ATOM      4  C   UNL     1       3.208   8.453   1.977  0.00  0.00    +0.181 A 
ATOM      5  S   UNL     1       2.514   7.883   3.461  0.00  0.00    +0.049 S 
ATOM      6  N   UNL     1       2.156   9.407   4.154  0.00  0.00    -0.192 NA
ATOM      7  N   UNL     1       3.726   7.729   0.918  0.00  0.00    -0.301 N 
BRANCH   2   8
ATOM      8  C   UNL     1       2.438  11.724   3.429  0.00  0.00    +0.112 C 
BRANCH   8  12
ATOM      9  C   UNL     1      -1.330  13.035   1.902  0.00  0.00    +0.000 A 
ATOM     10  C   UNL     1      -1.221  12.632   3.220  0.00  0.00    +0.000 A 
ATOM     11  C   UNL     1      -0.001  12.208   3.714  0.00  0.00    +0.004 A 
ATOM     12  C   UNL     1       1.109  12.186   2.890  0.00  0.00    -0.040 A 
ATOM     13  C   UNL     1       1.000  12.594   1.574  0.00  0.00    +0.004 A 
ATOM     14  C   UNL     1      -0.220  13.013   1.078  0.00  0.00    +0.000 A 
ENDBRANCH   8  12
ENDBRANCH   2   8
BRANCH   7  15
ATOM     15  C   UNL     1       4.261   8.427  -0.254  0.00  0.00    +0.181 C 
BRANCH  15  16
ATOM     16  C   UNL     1       3.160   8.633  -1.262  0.00  0.00    +0.122 A 
ATOM     17  C   UNL     1       2.344   9.700  -1.328  0.00  0.00    +0.046 A 
ATOM     18  C   UNL     1       1.468   9.479  -2.416  0.00  0.00    +0.041 A 
ATOM     19  C   UNL     1       1.803   8.290  -2.950  0.00  0.00    +0.195 A 
ATOM     20  O   UNL     1       2.832   7.785  -2.251  0.00  0.00    -0.466 OA
ENDBRANCH  15  16
ENDBRANCH   7  15
ENDBRANCH   1   7
BRANCH   1  21
ATOM     21  C   UNL     1       2.441   5.722   0.371  0.00  0.00    +0.114 C 
BRANCH  21  22
ATOM     22  C   UNL     1       2.455   4.216   0.423  0.00  0.00    +0.215 C 
ATOM     23  O   UNL     1       3.410   3.634   0.892  0.00  0.00    -0.276 OA
ATOM     24  N   UNL     1       1.406   3.515  -0.051  0.00  0.00    -0.313 N 
ATOM     25  H   UNL     1       0.642   3.981  -0.426  0.00  0.00    +0.149 HD
BRANCH  24  26
ATOM     26  C   UNL     1       1.420   2.051  -0.001  0.00  0.00    +0.069 C 
ATOM     27  C   UNL     1      -0.019   1.526   0.010  0.00  0.00    +0.003 C 
ATOM     28  C   UNL     1       0.002  -0.004   0.002  0.00  0.00    -0.077 C 
ATOM     29  C   UNL     1       2.103  -0.026  -1.205  0.00  0.00    -0.077 C 
ATOM     30  C   UNL     1       2.145   1.503  -1.232  0.00  0.00    +0.003 C 
ATOM     31  N   UNL     1       0.693  -0.468  -1.220  0.00  0.00    +0.382 N 
ATOM     32  H   UNL     1       0.226  -0.063  -2.040  0.00  0.00    -0.081 HD
BRANCH  31  33
ATOM     33  C   UNL     1       0.626  -1.941  -1.309  0.00  0.00    -0.043 C 
BRANCH  33  34
ATOM     34  C   UNL     1       1.139  -2.369  -2.660  0.00  0.00    -0.064 A 
ATOM     35  C   UNL     1       0.268  -2.476  -3.728  0.00  0.00    +0.002 A 
ATOM     36  C   UNL     1       0.739  -2.864  -4.968  0.00  0.00    +0.000 A 
ATOM     37  C   UNL     1       2.079  -3.155  -5.138  0.00  0.00    +0.000 A 
ATOM     38  C   UNL     1       2.949  -3.055  -4.069  0.00  0.00    +0.000 A 
ATOM     39  C   UNL     1       2.479  -2.661  -2.830  0.00  0.00    +0.002 A 
ENDBRANCH  33  34
ENDBRANCH  31  33
ENDBRANCH  24  26
ENDBRANCH  21  22
ENDBRANCH   1  21
TORSDOF 10
