REMARK  Name = ZINC19793133
REMARK  11 active torsions:
REMARK  status: ('A' for Active; 'I' for Inactive)
REMARK    1  A    between atoms: C_1  and  C_2
REMARK    2  A    between atoms: C_5  and  C_35
REMARK    3  A    between atoms: C_6  and  O_8
REMARK    4  A    between atoms: O_8  and  C_9
REMARK    5  A    between atoms: C_15  and  O_34
REMARK    6  A    between atoms: C_16  and  C_24
REMARK    7  A    between atoms: C_19  and  C_20
REMARK    8  A    between atoms: C_24  and  N_25
REMARK    9  A    between atoms: N_25  and  C_26
REMARK   10  A    between atoms: N_25  and  C_27
REMARK   11  A    between atoms: C_27  and  C_28
REMARK                            x       y       z     vdW  Elec       q    Type
REMARK                         _______ _______ _______ _____ _____    ______ ____
ROOT
ATOM      1  C   UNL     1      -0.060  -1.914   3.417  0.00  0.00    +0.222 A 
ATOM      2  C   UNL     1       0.176  -2.569   4.659  0.00  0.00    +0.235 A 
ATOM      3  O   UNL     1       0.365  -3.772   4.717  0.00  0.00    -0.283 OA
ATOM      4  C   UNL     1       0.184  -1.732   5.871  0.00  0.00    +0.068 A 
ATOM      5  C   UNL     1       0.408  -2.282   7.134  0.00  0.00    +0.019 A 
ATOM      6  C   UNL     1       0.408  -1.474   8.235  0.00  0.00    +0.046 A 
ATOM      7  C   UNL     1       0.186  -0.104   8.104  0.00  0.00    +0.125 A 
ATOM      8  C   UNL     1      -0.037   0.457   6.858  0.00  0.00    +0.051 A 
ATOM      9  C   UNL     1      -0.040  -0.351   5.729  0.00  0.00    +0.147 A 
ATOM     10  O   UNL     1      -0.254   0.170   4.504  0.00  0.00    -0.447 OA
ATOM     11  C   UNL     1      -0.258  -0.581   3.395  0.00  0.00    +0.254 A 
ENDROOT
BRANCH  11  12
ATOM     12  C   UNL     1      -0.501   0.091   2.069  0.00  0.00    +0.454 C 
ATOM     13  F   UNL     1      -0.338  -0.840   1.037  0.00  0.00    -0.163 F 
ATOM     14  F   UNL     1      -1.803   0.601   2.035  0.00  0.00    -0.163 F 
ATOM     15  F   UNL     1       0.414   1.137   1.902  0.00  0.00    -0.163 F 
ENDBRANCH  11  12
BRANCH   7  16
ATOM     16  O   UNL     1       0.190   0.686   9.207  0.00  0.00    -0.506 OA
ATOM     17  H   UNL     1       1.059   1.046   9.431  0.00  0.00    +0.292 HD
ENDBRANCH   7  16
BRANCH   1  18
ATOM     18  O   UNL     1      -0.080  -2.629   2.259  0.00  0.00    -0.448 OA
BRANCH  18  24
ATOM     19  C   UNL     1      -4.261  -4.602   3.821  0.00  0.00    +0.044 C 
ATOM     20  C   UNL     1      -3.142  -4.511   2.816  0.00  0.00    -0.047 A 
ATOM     21  C   UNL     1      -3.142  -5.337   1.706  0.00  0.00    +0.004 A 
ATOM     22  C   UNL     1      -2.117  -5.256   0.782  0.00  0.00    +0.007 A 
ATOM     23  C   UNL     1      -1.090  -4.350   0.964  0.00  0.00    -0.008 A 
ATOM     24  C   UNL     1      -1.088  -3.520   2.077  0.00  0.00    +0.132 A 
ATOM     25  C   UNL     1      -2.121  -3.600   3.000  0.00  0.00    +0.050 A 
ATOM     26  C   UNL     1       0.027  -4.263  -0.043  0.00  0.00    +0.047 C 
ENDBRANCH  18  24
ENDBRANCH   1  18
BRANCH   8  27
ATOM     27  C   UNL     1      -0.276   1.939   6.728  0.00  0.00    +0.127 C 
BRANCH  27  28
ATOM     28  N   UNL     1       1.007   2.627   6.535  0.00  0.00    -0.297 NA
ATOM     29  C   UNL     1       1.614   2.257   5.249  0.00  0.00    +0.105 C 
BRANCH  28  30
ATOM     30  C   UNL     1       0.845   4.083   6.641  0.00  0.00    +0.119 C 
BRANCH  30  31
ATOM     31  C   UNL     1       2.202   4.738   6.684  0.00  0.00    -0.033 A 
ATOM     32  C   UNL     1       2.831   4.947   7.897  0.00  0.00    +0.005 A 
ATOM     33  C   UNL     1       4.075   5.547   7.936  0.00  0.00    +0.000 A 
ATOM     34  C   UNL     1       4.691   5.939   6.762  0.00  0.00    +0.000 A 
ATOM     35  C   UNL     1       4.063   5.729   5.548  0.00  0.00    +0.000 A 
ATOM     36  C   UNL     1       2.820   5.125   5.509  0.00  0.00    +0.005 A 
ENDBRANCH  30  31
ENDBRANCH  28  30
ENDBRANCH  27  28
ENDBRANCH   8  27
TORSDOF 8
