REMARK  Name = ZINC39325548
REMARK  12 active torsions:
REMARK  status: ('A' for Active; 'I' for Inactive)
REMARK    1  A    between atoms: C_1  and  C_2
REMARK    2  A    between atoms: C_2  and  C_3
REMARK    3  A    between atoms: C_10  and  C_15
REMARK    4  A    between atoms: C_15  and  N_16
REMARK    5  A    between atoms: N_16  and  C_17
REMARK    6  A    between atoms: N_16  and  S_24
REMARK    7  A    between atoms: C_17  and  C_18
REMARK    8  A    between atoms: S_24  and  C_27
REMARK    9  A    between atoms: C_30  and  C_33
REMARK   10  A    between atoms: C_33  and  O_35
REMARK   11  A    between atoms: O_35  and  C_36
REMARK   12  A    between atoms: C_36  and  C_37
REMARK                            x       y       z     vdW  Elec       q    Type
REMARK                         _______ _______ _______ _____ _____    ______ ____
ROOT
ATOM      1  N   UNL     1      -7.035  -3.774  -3.001  0.00  0.00    -0.171 NA
ENDROOT
BRANCH   1   2
ATOM      2  S   UNL     1      -7.628  -4.695  -1.759  0.00  0.00    +0.061 S 
ATOM      3  O   UNL     1      -8.669  -5.494  -2.306  0.00  0.00    -0.153 OA
ATOM      4  O   UNL     1      -6.504  -5.258  -1.098  0.00  0.00    -0.153 OA
BRANCH   2   5
ATOM      5  C   UNL     1      -8.388  -3.595  -0.611  0.00  0.00    +0.106 A 
ATOM      6  C   UNL     1      -7.684  -3.162   0.498  0.00  0.00    +0.029 A 
ATOM      7  C   UNL     1      -8.273  -2.301   1.400  0.00  0.00    +0.017 A 
ATOM      8  C   UNL     1      -9.583  -1.866   1.192  0.00  0.00    +0.059 A 
ATOM      9  C   UNL     1     -10.289  -2.307   0.071  0.00  0.00    +0.017 A 
ATOM     10  C   UNL     1      -9.685  -3.164  -0.827  0.00  0.00    +0.029 A 
BRANCH   8  11
ATOM     11  C   UNL     1     -10.220  -0.944   2.154  0.00  0.00    +0.339 C 
ATOM     12  O   UNL     1      -9.604  -0.562   3.129  0.00  0.00    -0.245 OA
BRANCH  11  13
ATOM     13  O   UNL     1     -11.485  -0.526   1.950  0.00  0.00    -0.461 OA
BRANCH  13  14
ATOM     14  C   UNL     1     -12.038   0.365   2.921  0.00  0.00    +0.229 C 
ATOM     15  C   UNL     1     -13.471   0.726   2.524  0.00  0.00    +0.048 C 
ENDBRANCH  13  14
ENDBRANCH  11  13
ENDBRANCH   8  11
ENDBRANCH   2   5
ENDBRANCH   1   2
BRANCH   1  16
ATOM     16  C   UNL     1      -5.628  -3.366  -3.002  0.00  0.00    +0.126 C 
BRANCH  16  24
ATOM     17  C   UNL     1      -1.598   0.482  -1.270  0.00  0.00    -0.047 A 
ATOM     18  C   UNL     1      -2.369   0.869  -0.174  0.00  0.00    +0.005 A 
ATOM     19  C   UNL     1      -3.674   0.517  -0.036  0.00  0.00    +0.024 A 
ATOM     20  C   UNL     1      -4.310  -0.269  -1.014  0.00  0.00    +0.040 A 
ATOM     21  N   UNL     1      -5.591  -0.607  -0.868  0.00  0.00    -0.284 N 
ATOM     22  C   UNL     1      -6.248  -1.343  -1.749  0.00  0.00    +0.225 C 
ATOM     23  O   UNL     1      -7.418  -1.621  -1.561  0.00  0.00    -0.275 OA
ATOM     24  C   UNL     1      -5.541  -1.838  -2.990  0.00  0.00    +0.114 C 
ATOM     25  C   UNL     1      -4.084  -1.455  -3.161  0.00  0.00    -0.003 C 
ATOM     26  C   UNL     1      -3.519  -0.692  -2.183  0.00  0.00    -0.007 A 
ATOM     27  C   UNL     1      -2.119  -0.274  -2.271  0.00  0.00    +0.013 A 
ATOM     28  H   UNL     1      -6.063  -0.300  -0.079  0.00  0.00    +0.155 HD
BRANCH  17  30
ATOM     29  C   UNL     1      -0.067   2.261  -2.071  0.00  0.00    +0.009 C 
ATOM     30  C   UNL     1      -0.156   0.915  -1.348  0.00  0.00    +0.032 C 
ENDBRANCH  17  30
ENDBRANCH  16  24
ENDBRANCH   1  16
BRANCH   1  31
ATOM     31  C   UNL     1      -7.917  -3.368  -4.098  0.00  0.00    +0.144 C 
BRANCH  31  32
ATOM     32  C   UNL     1      -7.785  -4.346  -5.237  0.00  0.00    -0.032 A 
ATOM     33  C   UNL     1      -6.837  -4.135  -6.221  0.00  0.00    +0.005 A 
ATOM     34  C   UNL     1      -6.716  -5.032  -7.267  0.00  0.00    +0.000 A 
ATOM     35  C   UNL     1      -7.541  -6.139  -7.327  0.00  0.00    +0.000 A 
ATOM     36  C   UNL     1      -8.488  -6.350  -6.342  0.00  0.00    +0.000 A 
ATOM     37  C   UNL     1      -8.607  -5.455  -5.295  0.00  0.00    +0.005 A 
ENDBRANCH  31  32
ENDBRANCH   1  31
TORSDOF 10
