REMARK  Name = ZINC16008907
REMARK  5 active torsions:
REMARK  status: ('A' for Active; 'I' for Inactive)
REMARK    1  A    between atoms: C_1  and  C_2
REMARK    2  A    between atoms: C_2  and  O_3
REMARK    3  A    between atoms: O_3  and  C_4
REMARK    4  A    between atoms: C_9  and  C_12
REMARK    5  A    between atoms: N_14  and  C_15
REMARK                            x       y       z     vdW  Elec       q    Type
REMARK                         _______ _______ _______ _____ _____    ______ ____
ROOT
ATOM      1  C   UNL     1      -1.186  -2.065  -0.100  0.00  0.00    +0.220 C 
ATOM      2  O   UNL     1      -0.129  -2.660  -0.113  0.00  0.00    -0.275 OA
ATOM      3  N   UNL     1      -1.202  -0.722   0.009  0.00  0.00    -0.284 N 
ATOM      4  H   UNL     1      -2.046  -0.251   0.085  0.00  0.00    +0.155 HD
ENDROOT
BRANCH   3   5
ATOM      5  C   UNL     1       0.003  -0.005   0.013  0.00  0.00    +0.051 A 
ATOM      6  C   UNL     1       1.133  -0.550   0.605  0.00  0.00    +0.073 A 
ATOM      7  C   UNL     1       2.324   0.159   0.609  0.00  0.00    +0.164 A 
ATOM      8  C   UNL     1       2.385   1.415   0.017  0.00  0.00    +0.163 A 
ATOM      9  C   UNL     1       1.253   1.958  -0.573  0.00  0.00    +0.066 A 
ATOM     10  C   UNL     1       0.065   1.251  -0.576  0.00  0.00    +0.043 A 
ATOM     11 BR   UNL     1      -1.473   1.992  -1.389  0.00  0.00    -0.048 Br
ATOM     12  O   UNL     1       3.548   2.125   0.007  0.00  0.00    -0.485 OA
ATOM     13  C   UNL     1       4.560   1.715   0.933  0.00  0.00    +0.270 C 
ATOM     14  C   UNL     1       4.689   0.188   0.857  0.00  0.00    +0.270 C 
ATOM     15  O   UNL     1       3.423  -0.388   1.198  0.00  0.00    -0.485 OA
ENDBRANCH   3   5
BRANCH   1  21
ATOM     16  C   UNL     1      -4.922  -5.691   1.441  0.00  0.00    +0.403 C 
ATOM     17  O   UNL     1      -4.684  -6.862   1.222  0.00  0.00    -0.226 OA
ATOM     18  N   UNL     1      -4.382  -4.735   0.660  0.00  0.00    -0.267 N 
ATOM     19  C   UNL     1      -3.502  -5.093  -0.461  0.00  0.00    +0.112 C 
ATOM     20  C   UNL     1      -2.184  -4.324  -0.318  0.00  0.00    +0.032 C 
ATOM     21  C   UNL     1      -2.482  -2.827  -0.206  0.00  0.00    +0.078 C 
ATOM     22  C   UNL     1      -3.330  -2.566   1.040  0.00  0.00    +0.032 C 
ATOM     23  C   UNL     1      -4.661  -3.315   0.913  0.00  0.00    +0.112 C 
BRANCH  16  24
ATOM     24  O   UNL     1      -5.727  -5.348   2.465  0.00  0.00    -0.451 OA
BRANCH  24  26
ATOM     25  C   UNL     1      -7.157  -5.851   4.371  0.00  0.00    +0.048 C 
ATOM     26  C   UNL     1      -6.274  -6.430   3.264  0.00  0.00    +0.230 C 
ENDBRANCH  24  26
ENDBRANCH  16  24
ENDBRANCH   1  21
TORSDOF 4
