REMARK  Name = ZINC54805484
REMARK  9 active torsions:
REMARK  status: ('A' for Active; 'I' for Inactive)
REMARK    1  A    between atoms: C_1  and  C_2
REMARK    2  A    between atoms: C_10  and  C_11
REMARK    3  A    between atoms: N_13  and  N_14
REMARK    4  A    between atoms: N_17  and  C_18
REMARK    5  A    between atoms: C_18  and  C_19
REMARK    6  A    between atoms: C_19  and  C_20
REMARK    7  A    between atoms: C_19  and  C_21
REMARK    8  A    between atoms: C_19  and  N_22
REMARK    9  A    between atoms: C_26  and  C_29
REMARK                            x       y       z     vdW  Elec       q    Type
REMARK                         _______ _______ _______ _____ _____    ______ ____
ROOT
ATOM      1  N   UNL     1       0.473  -0.957   4.582  0.00  0.00    -0.218 N 
ATOM      2  C   UNL     1       0.356  -1.806   5.622  0.00  0.00    +0.316 C 
ATOM      3  O   UNL     1       0.298  -1.374   6.756  0.00  0.00    -0.251 OA
ATOM      4  N   UNL     1       0.304  -3.135   5.404  0.00  0.00    -0.300 N 
ATOM      5  H   UNL     1       0.510  -0.001   4.738  0.00  0.00    +0.174 HD
ATOM      6  H   UNL     1       0.350  -3.481   4.498  0.00  0.00    +0.150 HD
ENDROOT
BRANCH   1   9
ATOM      7  C   UNL     1       0.656  -0.606   2.234  0.00  0.00    +0.296 C 
ATOM      8  O   UNL     1       0.703   0.593   2.431  0.00  0.00    -0.265 OA
ATOM      9  N   UNL     1       0.540  -1.456   3.274  0.00  0.00    -0.227 N 
ATOM     10  H   UNL     1       0.502  -2.412   3.117  0.00  0.00    +0.173 HD
BRANCH   7  20
ATOM     11  C   UNL     1       0.925   1.132  -0.331  0.00  0.00    +0.048 C 
ATOM     12  C   UNL     1       0.844  -0.371  -0.258  0.00  0.00    +0.008 A 
ATOM     13  C   UNL     1       0.881  -1.309  -1.380  0.00  0.00    +0.024 A 
ATOM     14  C   UNL     1       0.994  -1.166  -2.765  0.00  0.00    +0.012 A 
ATOM     15  C   UNL     1       0.998  -2.276  -3.562  0.00  0.00    +0.001 A 
ATOM     16  C   UNL     1       0.892  -3.543  -3.004  0.00  0.00    +0.004 A 
ATOM     17  C   UNL     1       0.780  -3.705  -1.640  0.00  0.00    +0.047 A 
ATOM     18  C   UNL     1       0.773  -2.590  -0.809  0.00  0.00    +0.136 A 
ATOM     19  O   UNL     1       0.680  -2.435   0.526  0.00  0.00    -0.450 OA
ATOM     20  C   UNL     1       0.726  -1.129   0.862  0.00  0.00    +0.195 A 
ENDBRANCH   7  20
ENDBRANCH   1   9
BRANCH   4  21
ATOM     21  C   UNL     1       0.178  -4.059   6.534  0.00  0.00    +0.093 C 
BRANCH  21  22
ATOM     22  C   UNL     1       0.011  -5.486   6.010  0.00  0.00    -0.055 C 
ATOM     23  C   UNL     1       1.288  -5.917   5.287  0.00  0.00    -0.008 C 
ATOM     24  C   UNL     1      -0.256  -6.432   7.183  0.00  0.00    -0.008 C 
BRANCH  22  25
ATOM     25  N   UNL     1      -1.121  -5.535   5.075  0.00  0.00    +0.384 N 
ATOM     26  C   UNL     1      -2.338  -5.080   5.758  0.00  0.00    -0.078 C 
ATOM     27  C   UNL     1      -3.504  -5.052   4.766  0.00  0.00    -0.018 C 
ATOM     28  C   UNL     1      -3.726  -6.461   4.208  0.00  0.00    -0.001 C 
ATOM     29  C   UNL     1      -2.428  -6.955   3.564  0.00  0.00    -0.031 C 
ATOM     30  C   UNL     1      -1.302  -6.912   4.600  0.00  0.00    -0.075 C 
ATOM     31  C   UNL     1      -2.616  -8.391   3.071  0.00  0.00    +0.005 C 
ATOM     32  H   UNL     1      -0.933  -4.931   4.289  0.00  0.00    -0.081 HD
ENDBRANCH  22  25
ENDBRANCH  21  22
ENDBRANCH   4  21
TORSDOF 5
