REMARK  Name = ZINC34830333
REMARK  12 active torsions:
REMARK  status: ('A' for Active; 'I' for Inactive)
REMARK    1  A    between atoms: C_1  and  C_2
REMARK    2  A    between atoms: C_2  and  C_3
REMARK    3  A    between atoms: C_3  and  C_4
REMARK    4  A    between atoms: C_4  and  C_5
REMARK    5  A    between atoms: C_5  and  C_7
REMARK    6  A    between atoms: C_5  and  C_9
REMARK    7  A    between atoms: C_7  and  C_8
REMARK    8  A    between atoms: C_17  and  C_19
REMARK    9  A    between atoms: C_19  and  C_21
REMARK   10  A    between atoms: C_19  and  N_22
REMARK   11  A    between atoms: C_30  and  C_32
REMARK   12  A    between atoms: C_37  and  C_38
REMARK                            x       y       z     vdW  Elec       q    Type
REMARK                         _______ _______ _______ _____ _____    ______ ____
ROOT
ATOM      1  C   UNL     1       4.088  -8.442   6.214  0.00  0.00    +0.018 C 
ATOM      2  C   UNL     1       4.973  -8.647   4.983  0.00  0.00    -0.004 C 
ENDROOT
BRANCH   1  11
ATOM      3  C   UNL     1       3.355  -2.942   3.569  0.00  0.00    +0.219 C 
ATOM      4  O   UNL     1       2.605  -3.104   2.630  0.00  0.00    -0.275 OA
ATOM      5  N   UNL     1       3.857  -4.008   4.223  0.00  0.00    -0.298 N 
ATOM      6  C   UNL     1       4.696  -3.827   5.416  0.00  0.00    +0.126 C 
ATOM      7  C   UNL     1       4.080  -4.623   6.574  0.00  0.00    +0.126 C 
ATOM      8  N   UNL     1       3.799  -5.988   6.107  0.00  0.00    -0.300 N 
ATOM      9  C   UNL     1       2.960  -6.169   4.913  0.00  0.00    +0.126 C 
ATOM     10  C   UNL     1       3.570  -5.373   3.760  0.00  0.00    +0.126 C 
ATOM     11  C   UNL     1       4.301  -7.054   6.761  0.00  0.00    +0.202 C 
ATOM     12  O   UNL     1       4.924  -6.896   7.789  0.00  0.00    -0.277 OA
BRANCH   3  13
ATOM     13  C   UNL     1       3.726  -1.547   4.005  0.00  0.00    +0.075 C 
BRANCH  13  14
ATOM     14  C   UNL     1       5.157  -1.238   3.562  0.00  0.00    +0.009 C 
ATOM     15  C   UNL     1       5.231  -1.246   2.034  0.00  0.00    +0.004 C 
ENDBRANCH  13  14
BRANCH  13  16
ATOM     16  C   UNL     1       2.766  -0.541   3.366  0.00  0.00    +0.013 C 
BRANCH  16  17
ATOM     17  C   UNL     1       3.120   0.871   3.837  0.00  0.00    +0.000 C 
BRANCH  17  19
ATOM     18  C   UNL     1       2.575   3.297   3.598  0.00  0.00    +0.004 C 
ATOM     19  C   UNL     1       2.221   1.885   3.127  0.00  0.00    -0.003 C 
ENDBRANCH  17  19
ENDBRANCH  16  17
ENDBRANCH  13  16
ENDBRANCH   3  13
ENDBRANCH   1  11
BRANCH   1  20
ATOM     20  N   UNL     1       4.440  -9.432   7.240  0.00  0.00    +0.395 N 
ATOM     21  C   UNL     1       5.818  -9.193   7.689  0.00  0.00    -0.071 C 
ATOM     22  C   UNL     1       6.295 -10.409   8.503  0.00  0.00    +0.024 C 
ATOM     23  C   UNL     1       5.216 -10.748   9.479  0.00  0.00    -0.010 A 
ATOM     24  C   UNL     1       3.935 -10.282   9.464  0.00  0.00    -0.047 A 
ATOM     25  C   UNL     1       3.098 -10.731  10.482  0.00  0.00    +0.010 A 
ATOM     26  C   UNL     1       3.569 -11.589  11.417  0.00  0.00    +0.045 A 
ATOM     27  S   UNL     1       5.264 -11.811  10.893  0.00  0.00    -0.101 S 
ATOM     28  C   UNL     1       3.499  -9.322   8.361  0.00  0.00    -0.005 C 
ATOM     29  H   UNL     1       4.377 -10.358   6.844  0.00  0.00    -0.079 HD
BRANCH  28  30
ATOM     30  C   UNL     1       2.113  -9.683   7.895  0.00  0.00    -0.054 A 
ATOM     31  C   UNL     1       1.945 -10.579   6.855  0.00  0.00    +0.002 A 
ATOM     32  C   UNL     1       0.673 -10.911   6.427  0.00  0.00    +0.000 A 
ATOM     33  C   UNL     1      -0.431 -10.348   7.039  0.00  0.00    +0.000 A 
ATOM     34  C   UNL     1      -0.263  -9.454   8.080  0.00  0.00    +0.003 A 
ATOM     35  C   UNL     1       1.009  -9.125   8.511  0.00  0.00    -0.049 A 
ATOM     36  C   UNL     1       1.191  -8.154   9.649  0.00  0.00    +0.044 C 
ENDBRANCH  28  30
ENDBRANCH   1  20
TORSDOF 8
