REMARK  Name = ZINC20181086
REMARK  9 active torsions:
REMARK  status: ('A' for Active; 'I' for Inactive)
REMARK    1  A    between atoms: C_1  and  N_2
REMARK    2  A    between atoms: N_2  and  C_3
REMARK    3  A    between atoms: N_2  and  C_28
REMARK    4  A    between atoms: C_3  and  C_4
REMARK    5  A    between atoms: C_4  and  N_5
REMARK    6  A    between atoms: C_6  and  C_8
REMARK    7  A    between atoms: C_8  and  N_9
REMARK    8  A    between atoms: C_18  and  C_19
REMARK    9  A    between atoms: C_28  and  C_29
REMARK                            x       y       z     vdW  Elec       q    Type
REMARK                         _______ _______ _______ _____ _____    ______ ____
ROOT
ATOM      1  N   UNL     1       3.534   1.510   0.290  0.00  0.00    -0.257 N 
ATOM      2  C   UNL     1       3.960   2.734   0.787  0.00  0.00    +0.051 A 
ATOM      3  C   UNL     1       5.276   3.129   0.546  0.00  0.00    +0.024 A 
ATOM      4  C   UNL     1       5.741   4.339   1.016  0.00  0.00    +0.002 A 
ATOM      5  C   UNL     1       4.909   5.180   1.734  0.00  0.00    +0.001 A 
ATOM      6  C   UNL     1       3.602   4.805   1.983  0.00  0.00    +0.017 A 
ATOM      7  C   UNL     1       3.130   3.589   1.514  0.00  0.00    +0.034 A 
ATOM      8  S   UNL     1       1.460   3.108   1.837  0.00  0.00    -0.082 S 
ATOM      9  C   UNL     1       1.146   2.005   0.484  0.00  0.00    +0.076 C 
ATOM     10  C   UNL     1      -0.053   1.965  -0.145  0.00  0.00    +0.028 C 
ATOM     11  C   UNL     1       2.270   1.130   0.082  0.00  0.00    +0.258 C 
ATOM     12  O   UNL     1       2.041   0.056  -0.442  0.00  0.00    -0.269 OA
ENDROOT
BRANCH  10  13
ATOM     13  C   UNL     1      -0.213   1.176  -1.375  0.00  0.00    -0.022 A 
ATOM     14  C   UNL     1      -1.423   0.525  -1.641  0.00  0.00    +0.008 A 
ATOM     15  C   UNL     1      -1.565  -0.214  -2.797  0.00  0.00    +0.002 A 
ATOM     16  C   UNL     1      -0.515  -0.313  -3.693  0.00  0.00    +0.020 A 
ATOM     17  C   UNL     1       0.686   0.329  -3.438  0.00  0.00    +0.042 A 
ATOM     18  C   UNL     1       0.842   1.076  -2.288  0.00  0.00    +0.028 A 
ATOM     19 CL   UNL     1       1.995   0.198  -4.570  0.00  0.00    -0.084 Cl
ENDBRANCH  10  13
BRANCH   1  20
ATOM     20  C   UNL     1       4.576   0.535  -0.040  0.00  0.00    +0.209 C 
BRANCH  20  22
ATOM     21  N   UNL     1       5.911  -0.113  -2.019  0.00  0.00    -0.316 N 
ATOM     22  C   UNL     1       4.963   0.685  -1.489  0.00  0.00    +0.231 C 
ATOM     23  O   UNL     1       4.421   1.523  -2.178  0.00  0.00    -0.274 OA
ATOM     24  H   UNL     1       6.402  -0.874  -1.395  0.00  0.00    +0.149 HD
BRANCH  21  25
ATOM     25  C   UNL     1       6.286   0.033  -3.428  0.00  0.00    +0.086 C 
BRANCH  25  26
ATOM     26  C   UNL     1       7.375  -0.986  -3.773  0.00  0.00    -0.060 C 
BRANCH  26  28
ATOM     27  C   UNL     1       6.637  -1.207  -6.068  0.00  0.00    -0.096 C 
ATOM     28  N   UNL     1       7.752  -0.840  -5.185  0.00  0.00    +0.382 N 
ATOM     29  H   UNL     1       7.990   0.220  -5.364  0.00  0.00    -0.082 HD
BRANCH  28  30
ATOM     30  C   UNL     1       8.951  -1.630  -5.495  0.00  0.00    -0.043 C 
BRANCH  30  31
ATOM     31  C   UNL     1       9.450  -1.269  -6.870  0.00  0.00    -0.064 A 
ATOM     32  C   UNL     1       8.995  -1.965  -7.975  0.00  0.00    +0.002 A 
ATOM     33  C   UNL     1       9.448  -1.631  -9.237  0.00  0.00    +0.000 A 
ATOM     34  C   UNL     1      10.364  -0.607  -9.394  0.00  0.00    +0.000 A 
ATOM     35  C   UNL     1      10.823   0.085  -8.289  0.00  0.00    +0.000 A 
ATOM     36  C   UNL     1      10.366  -0.246  -7.027  0.00  0.00    +0.002 A 
ENDBRANCH  30  31
ENDBRANCH  28  30
ENDBRANCH  26  28
ENDBRANCH  25  26
ENDBRANCH  21  25
ENDBRANCH  20  22
ENDBRANCH   1  20
TORSDOF 8
