REMARK  Name = ZINC02543348
REMARK  8 active torsions:
REMARK  status: ('A' for Active; 'I' for Inactive)
REMARK    1  A    between atoms: C_1  and  C_2
REMARK    2  A    between atoms: C_5  and  N_8
REMARK    3  A    between atoms: C_9  and  C_11
REMARK    4  A    between atoms: N_13  and  N_14
REMARK    5  A    between atoms: C_15  and  C_16
REMARK    6  A    between atoms: C_25  and  O_26
REMARK    7  A    between atoms: O_26  and  C_27
REMARK    8  A    between atoms: C_27  and  C_29
REMARK                            x       y       z     vdW  Elec       q    Type
REMARK                         _______ _______ _______ _____ _____    ______ ____
ROOT
ATOM      1  C   UNL     1       0.698   5.230   0.211  0.00  0.00    +0.045 A 
ATOM      2  C   UNL     1       0.896   3.784   0.118  0.00  0.00    -0.006 A 
ATOM      3  C   UNL     1      -0.162   2.888   0.314  0.00  0.00    +0.009 A 
ATOM      4  C   UNL     1       0.063   1.547   0.212  0.00  0.00    +0.001 A 
ATOM      5  C   UNL     1       1.335   1.055  -0.071  0.00  0.00    +0.001 A 
ATOM      6  C   UNL     1       2.386   1.899  -0.266  0.00  0.00    +0.008 A 
ATOM      7  C   UNL     1       2.189   3.288  -0.176  0.00  0.00    -0.017 A 
ATOM      8  C   UNL     1       3.250   4.189  -0.371  0.00  0.00    +0.012 A 
ATOM      9  C   UNL     1       3.049   5.531  -0.281  0.00  0.00    +0.047 A 
ATOM     10  C   UNL     1       1.794   6.068   0.005  0.00  0.00    +0.141 A 
ENDROOT
BRANCH   1  12
ATOM     11  N   UNL     1      -0.767   7.069   0.694  0.00  0.00    -0.187 NA
ATOM     12  C   UNL     1      -0.627   5.788   0.514  0.00  0.00    +0.142 C 
BRANCH  11  15
ATOM     13  C   UNL     1      -2.182   8.922   1.174  0.00  0.00    +0.318 C 
ATOM     14  O   UNL     1      -1.244   9.671   0.989  0.00  0.00    -0.263 OA
ATOM     15  N   UNL     1      -2.005   7.588   1.093  0.00  0.00    -0.199 N 
ATOM     16  H   UNL     1      -2.735   6.988   1.312  0.00  0.00    +0.178 HD
BRANCH  13  18
ATOM     17  N   UNL     1      -3.705  10.811   1.571  0.00  0.00    -0.278 N 
ATOM     18  C   UNL     1      -3.529   9.477   1.490  0.00  0.00    +0.305 C 
ATOM     19  O   UNL     1      -4.466   8.729   1.676  0.00  0.00    -0.265 OA
ATOM     20  H   UNL     1      -2.976  11.411   1.350  0.00  0.00    +0.155 HD
BRANCH  17  25
ATOM     21  C   UNL     1      -8.713  12.915   3.203  0.00  0.00    +0.044 C 
ATOM     22  C   UNL     1      -7.382  12.356   2.769  0.00  0.00    -0.050 A 
ATOM     23  C   UNL     1      -6.923  11.169   3.312  0.00  0.00    +0.005 A 
ATOM     24  C   UNL     1      -5.704  10.655   2.917  0.00  0.00    +0.023 A 
ATOM     25  C   UNL     1      -4.939  11.329   1.973  0.00  0.00    +0.034 A 
ATOM     26  C   UNL     1      -5.402  12.524   1.434  0.00  0.00    +0.023 A 
ATOM     27  C   UNL     1      -6.624  13.030   1.830  0.00  0.00    +0.005 A 
ENDBRANCH  17  25
ENDBRANCH  13  18
ENDBRANCH  11  15
ENDBRANCH   1  12
BRANCH  10  28
ATOM     28  O   UNL     1       1.639   7.414   0.085  0.00  0.00    -0.422 OA
BRANCH  28  29
ATOM     29  C   UNL     1       1.797   7.977   1.300  0.00  0.00    +0.344 C 
ATOM     30  O   UNL     1       1.963   7.275   2.277  0.00  0.00    -0.245 OA
BRANCH  29  31
ATOM     31  C   UNL     1       1.767   9.446   1.442  0.00  0.00    +0.059 A 
ATOM     32  C   UNL     1       1.576  10.255   0.319  0.00  0.00    +0.016 A 
ATOM     33  C   UNL     1       1.544  11.627   0.459  0.00  0.00    +0.021 A 
ATOM     34  C   UNL     1       1.712  12.202   1.708  0.00  0.00    +0.041 A 
ATOM     35  C   UNL     1       1.908  11.405   2.824  0.00  0.00    +0.021 A 
ATOM     36  C   UNL     1       1.936  10.033   2.698  0.00  0.00    +0.016 A 
ATOM     37 CL   UNL     1       1.678  13.930   1.875  0.00  0.00    -0.084 Cl
ENDBRANCH  29  31
ENDBRANCH  28  29
ENDBRANCH  10  28
TORSDOF 7
