REMARK  Name = ZINC25387886
REMARK  6 active torsions:
REMARK  status: ('A' for Active; 'I' for Inactive)
REMARK    1  A    between atoms: C_4  and  C_7
REMARK    2  A    between atoms: C_17  and  C_19
REMARK    3  A    between atoms: C_25  and  C_27
REMARK    4  A    between atoms: C_27  and  O_28
REMARK    5  A    between atoms: O_28  and  N_29
REMARK    6  A    between atoms: C_30  and  C_32
REMARK                            x       y       z     vdW  Elec       q    Type
REMARK                         _______ _______ _______ _____ _____    ______ ____
ROOT
ATOM      1  C   UNL     1      -6.247  -3.017  -0.015  0.00  0.00    +0.013 C 
ATOM      2  C   UNL     1      -6.960  -1.907   0.260  0.00  0.00    -0.024 C 
ATOM      3  C   UNL     1      -8.398  -2.033   0.665  0.00  0.00    +0.037 C 
ATOM      4  C   UNL     1      -9.038  -0.729   1.098  0.00  0.00    +0.005 C 
ATOM      5  C   UNL     1      -8.499   0.488   0.348  0.00  0.00    +0.012 C 
ATOM      6  C   UNL     1      -7.012   0.632   0.677  0.00  0.00    +0.066 C 
ATOM      7  C   UNL     1      -6.342  -0.636   0.162  0.00  0.00    +0.068 C 
ATOM      8  N   UNL     1      -5.245  -0.308  -0.431  0.00  0.00    -0.181 NA
ATOM      9  N   UNL     1      -5.066   1.076  -0.546  0.00  0.00    -0.183 N 
ATOM     10  C   UNL     1      -6.344   1.726  -0.174  0.00  0.00    +0.140 C 
ATOM     11  C   UNL     1      -3.937   1.703  -0.930  0.00  0.00    +0.263 C 
ATOM     12  O   UNL     1      -3.908   2.914  -0.996  0.00  0.00    -0.271 OA
ENDROOT
BRANCH   1  16
ATOM     13  C   UNL     1      -8.171  -6.795  -0.152  0.00  0.00    +0.000 A 
ATOM     14  C   UNL     1      -8.768  -5.697  -0.744  0.00  0.00    +0.001 A 
ATOM     15  C   UNL     1      -8.149  -4.465  -0.704  0.00  0.00    +0.008 A 
ATOM     16  C   UNL     1      -6.914  -4.328  -0.062  0.00  0.00    -0.025 A 
ATOM     17  C   UNL     1      -6.314  -5.444   0.529  0.00  0.00    +0.008 A 
ATOM     18  C   UNL     1      -6.949  -6.668   0.485  0.00  0.00    +0.001 A 
ENDBRANCH   1  16
BRANCH  10  19
ATOM     19  C   UNL     1      -7.167   2.037  -1.398  0.00  0.00    -0.024 A 
ATOM     20  C   UNL     1      -7.197   1.147  -2.455  0.00  0.00    +0.005 A 
ATOM     21  C   UNL     1      -7.956   1.431  -3.576  0.00  0.00    +0.000 A 
ATOM     22  C   UNL     1      -8.677   2.608  -3.642  0.00  0.00    +0.000 A 
ATOM     23  C   UNL     1      -8.643   3.500  -2.587  0.00  0.00    +0.000 A 
ATOM     24  C   UNL     1      -7.888   3.215  -1.465  0.00  0.00    +0.005 A 
ENDBRANCH  10  19
BRANCH  11  25
ATOM     25  C   UNL     1      -2.710   0.900  -1.279  0.00  0.00    +0.287 C 
BRANCH  25  26
ATOM     26  O   UNL     1      -1.652   1.784  -1.653  0.00  0.00    -0.270 OA
BRANCH  26  27
ATOM     27  N   UNL     1      -0.448   1.127  -2.001  0.00  0.00    -0.190 N 
ATOM     28  C   UNL     1       0.628   1.846  -2.379  0.00  0.00    +0.267 C 
ATOM     29  O   UNL     1       0.565   3.059  -2.416  0.00  0.00    -0.268 OA
ATOM     30  H   UNL     1      -0.390   0.029  -1.963  0.00  0.00    +0.183 HD
BRANCH  28  31
ATOM     31  C   UNL     1       1.884   1.159  -2.748  0.00  0.00    +0.039 A 
ATOM     32  C   UNL     1       1.961  -0.234  -2.701  0.00  0.00    +0.013 A 
ATOM     33  C   UNL     1       3.134  -0.869  -3.053  0.00  0.00    +0.001 A 
ATOM     34  C   UNL     1       4.236  -0.128  -3.440  0.00  0.00    +0.000 A 
ATOM     35  C   UNL     1       4.168   1.253  -3.483  0.00  0.00    +0.001 A 
ATOM     36  C   UNL     1       2.999   1.901  -3.140  0.00  0.00    +0.013 A 
ENDBRANCH  28  31
ENDBRANCH  26  27
ENDBRANCH  25  26
ENDBRANCH  11  25
TORSDOF 6
