REMARK  Name = ZINC11936561
REMARK  6 active torsions:
REMARK  status: ('A' for Active; 'I' for Inactive)
REMARK    1  A    between atoms: C_10  and  C_11
REMARK    2  A    between atoms: C_11  and  N_57
REMARK    3  A    between atoms: C_17  and  C_19
REMARK    4  A    between atoms: C_19  and  C_20
REMARK    5  A    between atoms: N_22  and  C_23
REMARK    6  A    between atoms: C_23  and  C_24
REMARK                            x       y       z     vdW  Elec       q    Type
REMARK                         _______ _______ _______ _____ _____    ______ ____
ROOT
ATOM      1  C   UNL     1      -2.382  -7.846  -2.694  0.00  0.00    -0.058 C 
ATOM      2  C   UNL     1      -2.054  -8.171  -4.152  0.00  0.00    +0.085 C 
ATOM      3  N   UNL     1      -2.583  -7.130  -5.029  0.00  0.00    -0.318 N 
ATOM      4  C   UNL     1      -2.930  -5.916  -4.588  0.00  0.00    +0.200 C 
ATOM      5  O   UNL     1      -3.333  -5.101  -5.390  0.00  0.00    -0.278 OA
ATOM      6  C   UNL     1      -2.842  -5.521  -3.142  0.00  0.00    +0.028 C 
ATOM      7  H   UNL     1      -2.688  -7.328  -5.973  0.00  0.00    +0.149 HD
ATOM      8  N   UNL     1      -1.953  -6.458  -2.429  0.00  0.00    +0.391 N 
ATOM      9  H   UNL     1      -0.992  -6.332  -2.767  0.00  0.00    -0.080 HD
ENDROOT
BRANCH   8  10
ATOM     10  C   UNL     1      -1.990  -6.184  -0.974  0.00  0.00    -0.041 C 
BRANCH  10  20
ATOM     11  C   UNL     1       2.996  -6.965  -0.123  0.00  0.00    +0.001 A 
ATOM     12  C   UNL     1       2.257  -5.993  -0.794  0.00  0.00    +0.001 A 
ATOM     13  C   UNL     1       0.898  -6.059  -0.848  0.00  0.00    +0.009 A 
ATOM     14  C   UNL     1       0.228  -7.123  -0.221  0.00  0.00    -0.017 A 
ATOM     15  C   UNL     1       0.981  -8.112   0.461  0.00  0.00    -0.018 A 
ATOM     16  C   UNL     1       2.382  -8.010   0.496  0.00  0.00    +0.008 A 
ATOM     17  C   UNL     1       0.311  -9.176   1.089  0.00  0.00    +0.008 A 
ATOM     18  C   UNL     1      -1.048  -9.242   1.035  0.00  0.00    +0.001 A 
ATOM     19  C   UNL     1      -1.787  -8.266   0.371  0.00  0.00    +0.002 A 
ATOM     20  C   UNL     1      -1.173  -7.225  -0.255  0.00  0.00    -0.056 A 
ENDBRANCH  10  20
ENDBRANCH   8  10
BRANCH   6  21
ATOM     21  C   UNL     1      -2.264  -4.108  -3.035  0.00  0.00    +0.089 C 
BRANCH  21  22
ATOM     22  C   UNL     1      -0.876  -4.088  -3.623  0.00  0.00    +0.212 C 
ATOM     23  O   UNL     1      -0.357  -5.121  -3.989  0.00  0.00    -0.276 OA
ATOM     24  N   UNL     1      -0.212  -2.921  -3.743  0.00  0.00    -0.310 N 
ATOM     25  H   UNL     1      -0.627  -2.095  -3.450  0.00  0.00    +0.149 HD
BRANCH  24  26
ATOM     26  C   UNL     1       1.137  -2.901  -4.314  0.00  0.00    +0.159 C 
BRANCH  26  27
ATOM     27  C   UNL     1       1.652  -1.486  -4.336  0.00  0.00    +0.060 A 
ATOM     28  C   UNL     1       2.429  -0.901  -3.398  0.00  0.00    +0.136 A 
ATOM     29  N   UNL     1       2.680   0.355  -3.775  0.00  0.00    -0.236 NA
ATOM     30  C   UNL     1       2.075   0.592  -4.930  0.00  0.00    +0.138 A 
ATOM     31  N   UNL     1       1.422  -0.552  -5.309  0.00  0.00    -0.302 N 
ATOM     32  C   UNL     1       0.714  -0.589  -6.476  0.00  0.00    +0.093 A 
ATOM     33  C   UNL     1       0.645   0.497  -7.273  0.00  0.00    +0.018 A 
ATOM     34  C   UNL     1       1.303   1.685  -6.911  0.00  0.00    +0.005 A 
ATOM     35  C   UNL     1       2.012   1.736  -5.752  0.00  0.00    +0.047 A 
ENDBRANCH  26  27
ENDBRANCH  24  26
ENDBRANCH  21  22
ENDBRANCH   6  21
TORSDOF 6
