REMARK  Name = ZINC59310219
REMARK  5 active torsions:
REMARK  status: ('A' for Active; 'I' for Inactive)
REMARK    1  A    between atoms: C_4  and  N_7
REMARK    2  A    between atoms: N_16  and  C_17
REMARK    3  A    between atoms: C_17  and  C_19
REMARK    4  A    between atoms: C_19  and  C_20
REMARK    5  A    between atoms: C_20  and  N_21
REMARK                            x       y       z     vdW  Elec       q    Type
REMARK                         _______ _______ _______ _____ _____    ______ ____
ROOT
ATOM      1  N   UNL     1       3.624  -0.653  -0.039  0.00  0.00    -0.280 N 
ATOM      2  C   UNL     1       3.792  -2.031   0.065  0.00  0.00    +0.073 A 
ATOM      3  C   UNL     1       2.901  -3.088   0.180  0.00  0.00    +0.028 A 
ATOM      4  C   UNL     1       3.375  -4.381   0.267  0.00  0.00    +0.002 A 
ATOM      5  C   UNL     1       4.737  -4.629   0.241  0.00  0.00    +0.002 A 
ATOM      6  C   UNL     1       5.633  -3.585   0.128  0.00  0.00    +0.028 A 
ATOM      7  C   UNL     1       5.166  -2.280   0.039  0.00  0.00    +0.066 A 
ATOM      8  N   UNL     1       5.805  -1.050  -0.080  0.00  0.00    -0.326 N 
ATOM      9  C   UNL     1       4.855  -0.079  -0.131  0.00  0.00    +0.206 A 
ATOM     10  N   UNL     1       5.091   1.224  -0.249  0.00  0.00    -0.146 NA
ATOM     11  H   UNL     1       6.764  -0.910  -0.123  0.00  0.00    +0.169 HD
ENDROOT
BRANCH   1  15
ATOM     12  C   UNL     1      -0.021   1.366  -0.079  0.00  0.00    +0.000 A 
ATOM     13  C   UNL     1       0.875   1.540  -1.117  0.00  0.00    +0.002 A 
ATOM     14  C   UNL     1       2.084   0.872  -1.107  0.00  0.00    +0.026 A 
ATOM     15  C   UNL     1       2.399   0.026  -0.052  0.00  0.00    +0.050 A 
ATOM     16  C   UNL     1       1.497  -0.146   0.990  0.00  0.00    +0.026 A 
ATOM     17  C   UNL     1       0.290   0.524   0.973  0.00  0.00    +0.002 A 
ENDBRANCH   1  15
BRANCH  10  18
ATOM     18  C   UNL     1       6.332   1.660  -0.447  0.00  0.00    +0.241 C 
ATOM     19  O   UNL     1       7.235   0.865  -0.622  0.00  0.00    -0.274 OA
BRANCH  18  20
ATOM     20  C   UNL     1       6.619   3.139  -0.455  0.00  0.00    +0.121 C 
BRANCH  20  21
ATOM     21  C   UNL     1       8.112   3.368  -0.701  0.00  0.00    +0.153 C 
BRANCH  21  22
ATOM     22  N   UNL     1       8.391   4.806  -0.708  0.00  0.00    -0.263 N 
ATOM     23  C   UNL     1       8.723   5.421   0.473  0.00  0.00    +0.071 A 
ATOM     24  C   UNL     1       8.801   4.719   1.672  0.00  0.00    +0.028 A 
ATOM     25  C   UNL     1       9.139   5.384   2.829  0.00  0.00    +0.002 A 
ATOM     26  C   UNL     1       9.402   6.748   2.816  0.00  0.00    +0.001 A 
ATOM     27  C   UNL     1       9.331   7.459   1.650  0.00  0.00    +0.014 A 
ATOM     28  C   UNL     1       8.991   6.805   0.468  0.00  0.00    +0.048 A 
ATOM     29  C   UNL     1       8.896   7.507  -0.823  0.00  0.00    +0.208 A 
ATOM     30  O   UNL     1       9.113   8.704  -0.920  0.00  0.00    -0.286 OA
ATOM     31  C   UNL     1       8.540   6.718  -1.951  0.00  0.00    +0.184 A 
ATOM     32  N   UNL     1       8.321   5.444  -1.818  0.00  0.00    -0.175 NA
ENDBRANCH  21  22
ENDBRANCH  20  21
ENDBRANCH  18  20
ENDBRANCH  10  18
TORSDOF 5
