REMARK  Name = ZINC40362240
REMARK  13 active torsions:
REMARK  status: ('A' for Active; 'I' for Inactive)
REMARK    1  A    between atoms: C_1  and  C_2
REMARK    2  A    between atoms: C_2  and  C_3
REMARK    3  A    between atoms: C_2  and  C_4
REMARK    4  A    between atoms: C_2  and  C_5
REMARK    5  A    between atoms: C_5  and  C_6
REMARK    6  A    between atoms: C_6  and  C_7
REMARK    7  A    between atoms: C_6  and  C_8
REMARK    8  A    between atoms: C_6  and  N_9
REMARK    9  A    between atoms: N_9  and  C_10
REMARK   10  A    between atoms: C_11  and  C_19
REMARK   11  A    between atoms: C_24  and  O_25
REMARK   12  A    between atoms: O_25  and  S_26
REMARK   13  A    between atoms: S_26  and  C_29
REMARK                            x       y       z     vdW  Elec       q    Type
REMARK                         _______ _______ _______ _____ _____    ______ ____
ROOT
ATOM      1  C   UNL     1       4.550   0.498  -3.304  0.00  0.00    +0.129 A 
ATOM      2  C   UNL     1       5.312   0.337  -4.442  0.00  0.00    +0.090 A 
ATOM      3  N   UNL     1       6.579   0.678  -4.146  0.00  0.00    -0.338 N 
ATOM      4  C   UNL     1       6.647   1.046  -2.877  0.00  0.00    +0.117 A 
ATOM      5  N   UNL     1       5.391   0.949  -2.325  0.00  0.00    -0.289 N 
ATOM      6  C   UNL     1       5.184   1.279  -1.012  0.00  0.00    +0.094 A 
ATOM      7  C   UNL     1       6.205   1.707  -0.243  0.00  0.00    +0.018 A 
ATOM      8  C   UNL     1       7.500   1.820  -0.780  0.00  0.00    +0.005 A 
ATOM      9  C   UNL     1       7.724   1.488  -2.079  0.00  0.00    +0.045 A 
ATOM     10  H   UNL     1       7.326   0.658  -4.765  0.00  0.00    +0.167 HD
ENDROOT
BRANCH   2  11
ATOM     11  C   UNL     1       4.822  -0.131  -5.759  0.00  0.00    +0.046 A 
ATOM     12  C   UNL     1       5.267  -1.344  -6.282  0.00  0.00    +0.014 A 
ATOM     13  C   UNL     1       4.807  -1.775  -7.510  0.00  0.00    +0.001 A 
ATOM     14  C   UNL     1       3.905  -1.007  -8.224  0.00  0.00    +0.004 A 
ATOM     15  C   UNL     1       3.456   0.197  -7.715  0.00  0.00    +0.049 A 
ATOM     16  C   UNL     1       3.905   0.640  -6.482  0.00  0.00    +0.166 A 
BRANCH  16  17
ATOM     17  O   UNL     1       3.459   1.821  -5.978  0.00  0.00    -0.342 OA
BRANCH  17  18
ATOM     18  S   UNL     1       4.307   3.021  -6.374  0.00  0.00    +0.152 S 
ATOM     19  O   UNL     1       3.836   4.121  -5.607  0.00  0.00    -0.131 OA
ATOM     20  O   UNL     1       5.661   2.592  -6.339  0.00  0.00    -0.131 OA
BRANCH  18  21
ATOM     21  C   UNL     1       3.938   3.387  -8.057  0.00  0.00    +0.136 A 
ATOM     22  C   UNL     1       4.744   2.923  -9.051  0.00  0.00    +0.031 A 
ATOM     23  C   UNL     1       4.468   3.202 -10.388  0.00  0.00    +0.003 A 
ATOM     24  C   UNL     1       3.385   3.946 -10.740  0.00  0.00    +0.008 A 
ATOM     25  C   UNL     1       2.529   4.443  -9.742  0.00  0.00    -0.016 A 
ATOM     26  C   UNL     1       2.806   4.154  -8.382  0.00  0.00    +0.010 A 
ATOM     27  C   UNL     1       1.947   4.646  -7.384  0.00  0.00    +0.010 A 
ATOM     28  C   UNL     1       0.860   5.385  -7.736  0.00  0.00    +0.001 A 
ATOM     29  C   UNL     1       0.584   5.664  -9.074  0.00  0.00    +0.001 A 
ATOM     30  C   UNL     1       1.401   5.216 -10.066  0.00  0.00    +0.008 A 
ENDBRANCH  18  21
ENDBRANCH  17  18
ENDBRANCH  16  17
ENDBRANCH   2  11
BRANCH   1  31
ATOM     31  N   UNL     1       3.181   0.253  -3.178  0.00  0.00    -0.323 N 
ATOM     32  H   UNL     1       2.673  -0.064  -3.941  0.00  0.00    +0.148 HD
BRANCH  31  33
ATOM     33  C   UNL     1       2.512   0.475  -1.893  0.00  0.00    +0.028 C 
ATOM     34  C   UNL     1       2.680   1.938  -1.478  0.00  0.00    +0.031 C 
ATOM     35  C   UNL     1       3.136  -0.431  -0.831  0.00  0.00    +0.031 C 
BRANCH  33  36
ATOM     36  C   UNL     1       1.023   0.151  -2.031  0.00  0.00    +0.031 C 
BRANCH  36  38
ATOM     37  C   UNL     1       0.771  -0.386  -4.458  0.00  0.00    +0.010 C 
ATOM     38  C   UNL     1       0.512   0.666  -3.378  0.00  0.00    -0.036 C 
ATOM     39  C   UNL     1       1.242   1.960  -3.740  0.00  0.00    +0.010 C 
ATOM     40  C   UNL     1      -0.991   0.938  -3.282  0.00  0.00    +0.010 C 
ENDBRANCH  36  38
ENDBRANCH  33  36
ENDBRANCH  31  33
ENDBRANCH   1  31
TORSDOF 8
