REMARK  Name = ZINC64979725
REMARK  9 active torsions:
REMARK  status: ('A' for Active; 'I' for Inactive)
REMARK    1  A    between atoms: C_1  and  C_2
REMARK    2  A    between atoms: C_2  and  N_3
REMARK    3  A    between atoms: C_7  and  N_19
REMARK    4  A    between atoms: C_20  and  C_22
REMARK    5  A    between atoms: C_22  and  C_24
REMARK    6  A    between atoms: C_22  and  N_27
REMARK    7  A    between atoms: C_24  and  C_25
REMARK    8  A    between atoms: C_24  and  C_26
REMARK    9  A    between atoms: C_28  and  C_30
REMARK                            x       y       z     vdW  Elec       q    Type
REMARK                         _______ _______ _______ _____ _____    ______ ____
ROOT
ATOM      1  N   UNL     1       0.477   1.305  -2.022  0.00  0.00    -0.267 N 
ATOM      2  C   UNL     1      -0.419   0.841  -2.978  0.00  0.00    +0.050 A 
ATOM      3  C   UNL     1      -1.531   0.118  -2.551  0.00  0.00    +0.026 A 
ATOM      4  C   UNL     1      -2.449  -0.361  -3.464  0.00  0.00    +0.025 A 
ATOM      5  C   UNL     1      -2.272  -0.126  -4.821  0.00  0.00    +0.035 A 
ATOM      6  C   UNL     1      -1.167   0.593  -5.255  0.00  0.00    +0.040 A 
ATOM      7  C   UNL     1      -0.244   1.073  -4.337  0.00  0.00    +0.036 A 
ATOM      8  S   UNL     1       1.154   1.979  -4.913  0.00  0.00    -0.087 S 
ATOM      9  C   UNL     1       2.526   1.014  -4.372  0.00  0.00    +0.025 A 
ATOM     10  C   UNL     1       3.422   0.503  -5.302  0.00  0.00    +0.016 A 
ATOM     11  C   UNL     1       4.499  -0.251  -4.883  0.00  0.00    +0.001 A 
ATOM     12  C   UNL     1       4.690  -0.501  -3.533  0.00  0.00    +0.001 A 
ATOM     13  C   UNL     1       3.810  -0.002  -2.599  0.00  0.00    +0.014 A 
ATOM     14  C   UNL     1       2.709   0.764  -3.006  0.00  0.00    +0.051 A 
ATOM     15  C   UNL     1       1.783   1.282  -2.002  0.00  0.00    +0.252 C 
ATOM     16  O   UNL     1       2.300   1.753  -1.007  0.00  0.00    -0.270 OA
ENDROOT
BRANCH   5  17
ATOM     17  N   UNL     1      -3.204  -0.612  -5.747  0.00  0.00    -0.284 N 
ATOM     18  C   UNL     1      -3.818  -1.792  -5.529  0.00  0.00    +0.238 C 
ATOM     19  O   UNL     1      -3.626  -2.393  -4.493  0.00  0.00    -0.273 OA
ATOM     20  H   UNL     1      -3.407  -0.099  -6.545  0.00  0.00    +0.155 HD
BRANCH  18  21
ATOM     21  C   UNL     1      -4.744  -2.363  -6.572  0.00  0.00    +0.162 C 
BRANCH  21  22
ATOM     22  N   UNL     1      -5.803  -3.133  -5.915  0.00  0.00    -0.297 N 
ATOM     23  C   UNL     1      -6.989  -3.310  -6.532  0.00  0.00    +0.280 C 
ATOM     24  O   UNL     1      -7.178  -2.831  -7.634  0.00  0.00    -0.267 OA
ATOM     25  H   UNL     1      -5.652  -3.515  -5.036  0.00  0.00    +0.150 HD
BRANCH  23  26
ATOM     26  C   UNL     1      -8.049  -4.080  -5.874  0.00  0.00    +0.189 A 
ATOM     27  C   UNL     1      -9.288  -4.339  -6.386  0.00  0.00    +0.054 A 
ATOM     28  C   UNL     1      -9.970  -5.104  -5.427  0.00  0.00    +0.042 A 
ATOM     29  C   UNL     1      -9.128  -5.276  -4.384  0.00  0.00    +0.196 A 
ATOM     30  O   UNL     1      -7.970  -4.662  -4.660  0.00  0.00    -0.458 OA
ENDBRANCH  23  26
ENDBRANCH  21  22
BRANCH  21  31
ATOM     31  C   UNL     1      -3.953  -3.280  -7.508  0.00  0.00    +0.012 C 
ATOM     32  C   UNL     1      -4.860  -3.748  -8.648  0.00  0.00    +0.009 C 
ATOM     33  C   UNL     1      -2.761  -2.513  -8.085  0.00  0.00    +0.009 C 
ENDBRANCH  21  31
ENDBRANCH  18  21
ENDBRANCH   5  17
BRANCH   1  35
ATOM     34  C   UNL     1      -0.328   3.423  -1.102  0.00  0.00    +0.025 C 
ATOM     35  C   UNL     1      -0.144   1.925  -0.849  0.00  0.00    +0.110 C 
ENDBRANCH   1  35
TORSDOF 6
