REMARK  Name = ZINC39530628
REMARK  10 active torsions:
REMARK  status: ('A' for Active; 'I' for Inactive)
REMARK    1  A    between atoms: C_1  and  C_2
REMARK    2  A    between atoms: C_2  and  C_3
REMARK    3  A    between atoms: C_2  and  S_4
REMARK    4  A    between atoms: S_4  and  C_7
REMARK    5  A    between atoms: C_10  and  N_23
REMARK    6  A    between atoms: C_11  and  S_13
REMARK    7  A    between atoms: S_13  and  O_16
REMARK    8  A    between atoms: O_16  and  C_17
REMARK    9  A    between atoms: C_27  and  C_30
REMARK   10  A    between atoms: C_35  and  O_36
REMARK                            x       y       z     vdW  Elec       q    Type
REMARK                         _______ _______ _______ _____ _____    ______ ____
ROOT
ATOM      1  C   UNL     1      -1.896  -2.635   0.113  0.00  0.00    +0.090 A 
ATOM      2  C   UNL     1      -1.117  -3.284  -0.827  0.00  0.00    +0.029 A 
ATOM      3  C   UNL     1      -0.585  -4.527  -0.546  0.00  0.00    +0.027 A 
ATOM      4  C   UNL     1      -0.833  -5.125   0.683  0.00  0.00    +0.058 A 
ATOM      5  C   UNL     1      -1.615  -4.470   1.625  0.00  0.00    +0.151 A 
ATOM      6  C   UNL     1      -2.140  -3.225   1.339  0.00  0.00    +0.059 A 
ENDROOT
BRANCH   4   7
ATOM      7  N   UNL     1      -0.296  -6.382   0.971  0.00  0.00    -0.331 N 
ATOM      8  C   UNL     1      -1.136  -7.590   0.930  0.00  0.00    +0.086 C 
ATOM      9  C   UNL     1      -0.934  -8.365   2.236  0.00  0.00    -0.063 C 
ATOM     10  N   UNL     1       0.497  -8.628   2.432  0.00  0.00    +0.386 N 
ATOM     11  C   UNL     1       1.218  -7.362   2.610  0.00  0.00    -0.020 C 
ATOM     12  C   UNL     1       1.125  -6.537   1.317  0.00  0.00    +0.094 C 
ATOM     13  H   UNL     1       0.623  -9.203   3.252  0.00  0.00    -0.085 HD
ATOM     14  H   UNL     1       0.863  -9.112   1.626  0.00  0.00    -0.085 HD
BRANCH  11  15
ATOM     15  C   UNL     1       2.666  -7.647   2.919  0.00  0.00    -0.018 A 
ATOM     16  C   UNL     1       3.241  -8.831   2.502  0.00  0.00    +0.005 A 
ATOM     17  C   UNL     1       4.569  -9.094   2.785  0.00  0.00    +0.000 A 
ATOM     18  C   UNL     1       5.324  -8.171   3.487  0.00  0.00    +0.004 A 
ATOM     19  C   UNL     1       4.753  -6.986   3.906  0.00  0.00    +0.045 A 
ATOM     20  C   UNL     1       3.422  -6.718   3.618  0.00  0.00    +0.118 A 
BRANCH  20  21
ATOM     21  O   UNL     1       2.860  -5.549   4.024  0.00  0.00    -0.507 OA
ATOM     22  H   UNL     1       2.459  -5.590   4.904  0.00  0.00    +0.292 HD
ENDBRANCH  20  21
ENDBRANCH  11  15
ENDBRANCH   4   7
BRANCH   1  23
ATOM     23  S   UNL     1      -2.573  -1.049  -0.250  0.00  0.00    -0.001 S 
ATOM     24  O   UNL     1      -3.731  -0.953   0.568  0.00  0.00    -0.169 OA
ATOM     25  O   UNL     1      -2.682  -1.017  -1.666  0.00  0.00    -0.169 OA
BRANCH  23  27
ATOM     26  C   UNL     1      -1.851   1.558   0.154  0.00  0.00    +0.032 C 
ATOM     27  C   UNL     1      -1.315   0.134   0.307  0.00  0.00    +0.130 C 
ATOM     28  C   UNL     1      -0.982  -0.131   1.777  0.00  0.00    +0.032 C 
ENDBRANCH  23  27
ENDBRANCH   1  23
BRANCH   5  29
ATOM     29  S   UNL     1      -1.934  -5.224   3.186  0.00  0.00    +0.153 S 
ATOM     30  O   UNL     1      -0.679  -5.666   3.687  0.00  0.00    -0.131 OA
ATOM     31  O   UNL     1      -2.769  -4.329   3.906  0.00  0.00    -0.131 OA
BRANCH  29  32
ATOM     32  O   UNL     1      -2.760  -6.474   2.921  0.00  0.00    -0.342 OA
BRANCH  32  33
ATOM     33  C   UNL     1      -4.069  -6.225   2.652  0.00  0.00    +0.157 A 
ATOM     34  C   UNL     1      -4.991  -6.160   3.686  0.00  0.00    +0.048 A 
ATOM     35  C   UNL     1      -6.321  -5.906   3.410  0.00  0.00    +0.004 A 
ATOM     36  C   UNL     1      -6.733  -5.716   2.104  0.00  0.00    +0.000 A 
ATOM     37  C   UNL     1      -5.816  -5.781   1.071  0.00  0.00    +0.004 A 
ATOM     38  C   UNL     1      -4.484  -6.029   1.343  0.00  0.00    +0.048 A 
ENDBRANCH  32  33
ENDBRANCH  29  32
ENDBRANCH   5  29
TORSDOF 8
