REMARK  Name = ZINC39685138
REMARK  9 active torsions:
REMARK  status: ('A' for Active; 'I' for Inactive)
REMARK    1  A    between atoms: C_1  and  C_2
REMARK    2  A    between atoms: C_2  and  C_3
REMARK    3  A    between atoms: C_3  and  C_5
REMARK    4  A    between atoms: C_3  and  C_11
REMARK    5  A    between atoms: C_15  and  C_24
REMARK    6  A    between atoms: N_26  and  C_27
REMARK    7  A    between atoms: C_27  and  C_28
REMARK    8  A    between atoms: C_28  and  O_29
REMARK    9  A    between atoms: O_29  and  C_30
REMARK                            x       y       z     vdW  Elec       q    Type
REMARK                         _______ _______ _______ _____ _____    ______ ____
ROOT
ATOM      1  C   UNL     1       1.925  -0.001  -1.266  0.00  0.00    +0.223 C 
ATOM      2  O   UNL     1       2.809  -0.797  -1.501  0.00  0.00    -0.275 OA
ATOM      3  N   UNL     1       2.219   1.306  -1.114  0.00  0.00    -0.300 N 
ATOM      4  C   UNL     1       1.276   2.431  -0.913  0.00  0.00    +0.121 C 
ATOM      5  C   UNL     1       1.972   3.344   0.121  0.00  0.00    +0.100 C 
ATOM      6  C   UNL     1       3.469   3.020  -0.014  0.00  0.00    -0.004 C 
ATOM      7  C   UNL     1       3.558   1.942  -1.103  0.00  0.00    +0.115 C 
ATOM      8  C   UNL     1       4.013   2.477   1.304  0.00  0.00    -0.010 C 
ATOM      9  C   UNL     1       5.515   2.216   1.161  0.00  0.00    -0.082 C 
ATOM     10  N   UNL     1       6.199   3.464   0.804  0.00  0.00    +0.379 N 
ATOM     11  C   UNL     1       5.736   3.931  -0.508  0.00  0.00    -0.082 C 
ATOM     12  C   UNL     1       4.243   4.265  -0.436  0.00  0.00    -0.010 C 
ATOM     13  H   UNL     1       5.998   4.167   1.500  0.00  0.00    -0.086 HD
ATOM     14  H   UNL     1       7.194   3.304   0.771  0.00  0.00    -0.086 HD
ENDROOT
BRANCH   5  15
ATOM     15  C   UNL     1       1.715   4.794  -0.201  0.00  0.00    +0.218 C 
ATOM     16  O   UNL     1       1.507   5.132  -1.347  0.00  0.00    -0.275 OA
ATOM     17  N   UNL     1       1.717   5.714   0.783  0.00  0.00    -0.312 N 
ATOM     18  H   UNL     1       1.883   5.443   1.700  0.00  0.00    +0.149 HD
BRANCH  17  19
ATOM     19  C   UNL     1       1.467   7.123   0.470  0.00  0.00    +0.145 C 
BRANCH  19  20
ATOM     20  C   UNL     1       1.525   7.950   1.756  0.00  0.00    +0.248 C 
BRANCH  20  21
ATOM     21  O   UNL     1       2.850   7.910   2.289  0.00  0.00    -0.488 OA
BRANCH  21  22
ATOM     22  C   UNL     1       3.073   8.599   3.439  0.00  0.00    +0.156 A 
ATOM     23  C   UNL     1       2.038   9.294   4.045  0.00  0.00    +0.048 A 
ATOM     24  C   UNL     1       2.267   9.993   5.215  0.00  0.00    +0.004 A 
ATOM     25  C   UNL     1       3.528  10.002   5.781  0.00  0.00    +0.003 A 
ATOM     26  C   UNL     1       4.564   9.312   5.180  0.00  0.00    +0.042 A 
ATOM     27  C   UNL     1       4.338   8.604   4.013  0.00  0.00    +0.165 A 
ATOM     28  F   UNL     1       5.349   7.923   3.429  0.00  0.00    -0.202 F 
ENDBRANCH  21  22
ENDBRANCH  20  21
ENDBRANCH  19  20
ENDBRANCH  17  19
ENDBRANCH   5  15
BRANCH   1  29
ATOM     29  C   UNL     1       0.499  -0.472  -1.144  0.00  0.00    +0.105 C 
BRANCH  29  30
ATOM     30  C   UNL     1      -0.140  -0.495  -2.509  0.00  0.00    -0.036 A 
ATOM     31  C   UNL     1       0.387  -1.295  -3.506  0.00  0.00    +0.004 A 
ATOM     32  C   UNL     1      -0.199  -1.317  -4.757  0.00  0.00    +0.000 A 
ATOM     33  C   UNL     1      -1.313  -0.539  -5.012  0.00  0.00    +0.000 A 
ATOM     34  C   UNL     1      -1.841   0.260  -4.015  0.00  0.00    +0.000 A 
ATOM     35  C   UNL     1      -1.257   0.279  -2.762  0.00  0.00    +0.004 A 
ENDBRANCH  29  30
BRANCH  29  37
ATOM     36  C   UNL     1       0.995  -1.831   0.892  0.00  0.00    +0.005 C 
ATOM     37  C   UNL     1       0.476  -1.880  -0.546  0.00  0.00    +0.014 C 
ENDBRANCH  29  37
ENDBRANCH   1  29
TORSDOF 8
