REMARK  Name = ZINC08763672
REMARK  5 active torsions:
REMARK  status: ('A' for Active; 'I' for Inactive)
REMARK    1  A    between atoms: C_5  and  C_7
REMARK    2  A    between atoms: C_9  and  C_21
REMARK    3  A    between atoms: C_11  and  C_16
REMARK    4  A    between atoms: C_11  and  O_20
REMARK    5  A    between atoms: C_21  and  C_23
REMARK                            x       y       z     vdW  Elec       q    Type
REMARK                         _______ _______ _______ _____ _____    ______ ____
ROOT
ATOM      1  C   UNL     1      -2.029  -3.130   0.593  0.00  0.00    +0.119 C 
ATOM      2  C   UNL     1      -0.824  -2.394  -0.003  0.00  0.00    +0.144 C 
ATOM      3  C   UNL     1      -0.625  -2.872  -1.446  0.00  0.00    +0.241 C 
ATOM      4  N   UNL     1      -1.867  -2.672  -2.193  0.00  0.00    -0.291 N 
ATOM      5  C   UNL     1      -3.062  -2.708  -1.584  0.00  0.00    +0.133 C 
ATOM      6  S   UNL     1      -4.473  -2.481  -2.527  0.00  0.00    -0.019 S 
ATOM      7  N   UNL     1      -3.195  -2.916  -0.266  0.00  0.00    -0.319 N 
ATOM      8  H   UNL     1      -1.826  -2.510  -3.149  0.00  0.00    +0.151 HD
ATOM      9  H   UNL     1      -4.082  -2.924   0.127  0.00  0.00    +0.148 HD
ENDROOT
BRANCH   1  14
ATOM     10  C   UNL     1      -1.857  -6.803  -0.265  0.00  0.00    +0.000 A 
ATOM     11  C   UNL     1      -1.176  -7.310   0.826  0.00  0.00    +0.001 A 
ATOM     12  C   UNL     1      -0.771  -6.465   1.842  0.00  0.00    +0.020 A 
ATOM     13  C   UNL     1      -1.042  -5.111   1.765  0.00  0.00    +0.046 A 
ATOM     14  C   UNL     1      -1.728  -4.604   0.675  0.00  0.00    -0.008 A 
ATOM     15  C   UNL     1      -2.132  -5.450  -0.341  0.00  0.00    +0.007 A 
ATOM     16 CL   UNL     1      -0.527  -4.048   3.037  0.00  0.00    -0.083 Cl
ENDBRANCH   1  14
BRANCH   3  17
ATOM     17  C   UNL     1       0.502  -2.069  -2.099  0.00  0.00    +0.436 C 
ATOM     18  F   UNL     1       1.686  -2.257  -1.379  0.00  0.00    -0.166 F 
ATOM     19  F   UNL     1       0.682  -2.506  -3.416  0.00  0.00    -0.166 F 
ATOM     20  F   UNL     1       0.167  -0.711  -2.101  0.00  0.00    -0.166 F 
ENDBRANCH   3  17
BRANCH   3  21
ATOM     21  O   UNL     1      -0.285  -4.260  -1.446  0.00  0.00    -0.364 OA
ATOM     22  H   UNL     1      -0.145  -4.630  -2.329  0.00  0.00    +0.212 HD
ENDBRANCH   3  21
BRANCH   2  23
ATOM     23  C   UNL     1      -1.082  -0.909   0.007  0.00  0.00    +0.179 C 
ATOM     24  O   UNL     1      -2.222  -0.491   0.020  0.00  0.00    -0.291 OA
BRANCH  23  25
ATOM     25  C   UNL     1       0.002  -0.004   0.002  0.00  0.00    +0.055 A 
ATOM     26  C   UNL     1      -0.017   1.387   0.010  0.00  0.00    +0.019 A 
ATOM     27  C   UNL     1       1.195   2.026   0.002  0.00  0.00    +0.008 A 
ATOM     28  C   UNL     1       2.337   1.286  -0.013  0.00  0.00    +0.046 A 
ATOM     29  S   UNL     1       1.753  -0.346  -0.017  0.00  0.00    -0.094 S 
ENDBRANCH  23  25
ENDBRANCH   2  23
TORSDOF 5
