REMARK  Name = ZINC63225189
REMARK  5 active torsions:
REMARK  status: ('A' for Active; 'I' for Inactive)
REMARK    1  A    between atoms: C_6  and  C_10
REMARK    2  A    between atoms: C_10  and  S_11
REMARK    3  A    between atoms: S_11  and  C_12
REMARK    4  A    between atoms: C_16  and  C_20
REMARK    5  A    between atoms: N_18  and  N_19
REMARK                            x       y       z     vdW  Elec       q    Type
REMARK                         _______ _______ _______ _____ _____    ______ ____
ROOT
ATOM      1  C   UNL     1       3.546  -2.895  -4.159  0.00  0.00    +0.214 C 
ATOM      2  N   UNL     1       5.024  -2.959  -4.098  0.00  0.00    -0.228 NA
ATOM      3  N   UNL     1       5.309  -4.231  -3.417  0.00  0.00    -0.232 NA
ATOM      4  C   UNL     1       4.266  -5.142  -3.955  0.00  0.00    +0.186 C 
ATOM      5  N   UNL     1       3.060  -4.287  -4.069  0.00  0.00    -0.195 NA
ATOM      6  H   UNL     1       5.424  -2.947  -5.025  0.00  0.00    +0.143 HD
ATOM      7  H   UNL     1       6.234  -4.564  -3.646  0.00  0.00    +0.143 HD
ENDROOT
BRANCH   4   8
ATOM      8  C   UNL     1       4.019  -6.283  -3.001  0.00  0.00    -0.013 A 
ATOM      9  C   UNL     1       2.762  -6.853  -2.917  0.00  0.00    +0.006 A 
ATOM     10  C   UNL     1       2.536  -7.900  -2.043  0.00  0.00    +0.001 A 
ATOM     11  C   UNL     1       3.565  -8.376  -1.252  0.00  0.00    +0.015 A 
ATOM     12  C   UNL     1       4.822  -7.806  -1.337  0.00  0.00    +0.018 A 
ATOM     13  C   UNL     1       5.050  -6.762  -2.216  0.00  0.00    +0.021 A 
ATOM     14 BR   UNL     1       6.231  -8.456  -0.256  0.00  0.00    -0.050 Br
ENDBRANCH   4   8
BRANCH   5  15
ATOM     15  N   UNL     1       2.277  -4.643  -5.242  0.00  0.00    -0.264 NA
ATOM     16  H   UNL     1       1.475  -4.038  -5.338  0.00  0.00    +0.137 HD
ATOM     17  H   UNL     1       2.846  -4.625  -6.075  0.00  0.00    +0.137 HD
ENDBRANCH   5  15
BRANCH   1  18
ATOM     18  S   UNL     1       2.908  -1.923  -2.766  0.00  0.00    -0.120 S 
BRANCH  18  19
ATOM     19  C   UNL     1       3.542  -2.787  -1.302  0.00  0.00    +0.118 C 
BRANCH  19  25
ATOM     20  C   UNL     1      -0.016   1.344   0.009  0.00  0.00    +0.002 A 
ATOM     21  C   UNL     1       1.158   2.118   0.002  0.00  0.00    +0.002 A 
ATOM     22  C   UNL     1       2.389   1.570  -0.013  0.00  0.00    +0.027 A 
ATOM     23  C   UNL     1       2.533   0.108  -0.022  0.00  0.00    +0.060 A 
ATOM     24  N   UNL     1       3.569  -0.680  -0.036  0.00  0.00    -0.363 N 
ATOM     25  C   UNL     1       3.071  -2.062  -0.039  0.00  0.00    +0.184 C 
ATOM     26  N   UNL     1       1.606  -1.974  -0.024  0.00  0.00    -0.363 N 
ATOM     27  C   UNL     1       1.290  -0.712  -0.014  0.00  0.00    +0.060 A 
ATOM     28  C   UNL     1       0.002  -0.004   0.002  0.00  0.00    +0.027 A 
ATOM     29  H   UNL     1       4.499  -0.405  -0.045  0.00  0.00    +0.162 HD
ATOM     30  H   UNL     1       0.987  -2.721  -0.022  0.00  0.00    +0.162 HD
ENDBRANCH  19  25
ENDBRANCH  18  19
ENDBRANCH   1  18
TORSDOF 5
