REMARK  Name = ZINC46843018
REMARK  9 active torsions:
REMARK  status: ('A' for Active; 'I' for Inactive)
REMARK    1  A    between atoms: C_1  and  C_2
REMARK    2  A    between atoms: C_5  and  N_8
REMARK    3  A    between atoms: N_8  and  S_9
REMARK    4  A    between atoms: S_9  and  C_12
REMARK    5  A    between atoms: C_15  and  C_18
REMARK    6  A    between atoms: N_20  and  C_21
REMARK    7  A    between atoms: C_21  and  C_22
REMARK    8  A    between atoms: C_30  and  C_37
REMARK    9  A    between atoms: C_33  and  C_36
REMARK                            x       y       z     vdW  Elec       q    Type
REMARK                         _______ _______ _______ _____ _____    ______ ____
ROOT
ATOM      1  C   UNL     1      -1.041  -3.684   6.570  0.00  0.00    +0.244 C 
ATOM      2  O   UNL     1      -0.752  -2.636   7.115  0.00  0.00    -0.270 OA
ATOM      3  N   UNL     1      -1.860  -4.559   7.186  0.00  0.00    -0.307 N 
ATOM      4  H   UNL     1      -2.091  -5.395   6.751  0.00  0.00    +0.149 HD
ENDROOT
BRANCH   1   8
ATOM      5  C   UNL     1       0.529  -4.585   2.728  0.00  0.00    +0.109 A 
ATOM      6  C   UNL     1       0.860  -3.391   3.345  0.00  0.00    +0.029 A 
ATOM      7  C   UNL     1       0.353  -3.092   4.593  0.00  0.00    +0.015 A 
ATOM      8  C   UNL     1      -0.495  -3.997   5.233  0.00  0.00    +0.037 A 
ATOM      9  C   UNL     1      -0.825  -5.199   4.605  0.00  0.00    +0.015 A 
ATOM     10  C   UNL     1      -0.316  -5.483   3.354  0.00  0.00    +0.029 A 
BRANCH   5  11
ATOM     11  S   UNL     1       1.181  -4.958   1.134  0.00  0.00    +0.072 S 
ATOM     12  O   UNL     1       1.041  -6.361   0.957  0.00  0.00    -0.150 OA
ATOM     13  O   UNL     1       2.437  -4.301   1.044  0.00  0.00    -0.150 OA
BRANCH  11  14
ATOM     14  N   UNL     1       0.189  -4.240   0.019  0.00  0.00    -0.216 N 
ATOM     15  H   UNL     1       0.542  -3.560  -0.577  0.00  0.00    +0.174 HD
BRANCH  14  20
ATOM     16  C   UNL     1      -5.266  -5.751  -0.318  0.00  0.00    +0.044 C 
ATOM     17  C   UNL     1      -3.816  -5.350  -0.228  0.00  0.00    -0.050 A 
ATOM     18  C   UNL     1      -3.470  -4.011  -0.228  0.00  0.00    +0.005 A 
ATOM     19  C   UNL     1      -2.143  -3.639  -0.146  0.00  0.00    +0.025 A 
ATOM     20  C   UNL     1      -1.154  -4.612  -0.064  0.00  0.00    +0.048 A 
ATOM     21  C   UNL     1      -1.506  -5.956  -0.064  0.00  0.00    +0.025 A 
ATOM     22  C   UNL     1      -2.835  -6.321  -0.141  0.00  0.00    +0.005 A 
ENDBRANCH  14  20
ENDBRANCH  11  14
ENDBRANCH   5  11
ENDBRANCH   1   8
BRANCH   3  23
ATOM     23  C   UNL     1      -2.401  -4.249   8.511  0.00  0.00    +0.141 C 
BRANCH  23  24
ATOM     24  C   UNL     1      -3.281  -5.382   8.973  0.00  0.00    -0.014 A 
ATOM     25  C   UNL     1      -4.637  -5.385   8.672  0.00  0.00    +0.010 A 
ATOM     26  C   UNL     1      -5.409  -6.444   9.115  0.00  0.00    +0.042 A 
ATOM     27  C   UNL     1      -4.804  -7.465   9.842  0.00  0.00    +0.099 A 
ATOM     28  N   UNL     1      -3.507  -7.425  10.108  0.00  0.00    -0.349 N 
ATOM     29  C   UNL     1      -2.746  -6.431   9.694  0.00  0.00    +0.089 A 
ATOM     30  N   UNL     1      -5.568  -8.535  10.293  0.00  0.00    -0.312 N 
ATOM     31  C   UNL     1      -7.029  -8.546  10.126  0.00  0.00    +0.137 C 
ATOM     32  C   UNL     1      -7.669  -8.872  11.480  0.00  0.00    +0.133 C 
ATOM     33  O   UNL     1      -7.081 -10.065  12.004  0.00  0.00    -0.371 OA
ATOM     34  C   UNL     1      -5.679  -9.960  12.267  0.00  0.00    +0.133 C 
ATOM     35  C   UNL     1      -4.938  -9.693  10.947  0.00  0.00    +0.137 C 
ATOM     36  C   UNL     1      -5.175 -11.268  12.880  0.00  0.00    +0.039 C 
ATOM     37  C   UNL     1      -9.174  -9.080  11.299  0.00  0.00    +0.039 C 
ATOM     38  H   UNL     1      -3.107  -8.148  10.617  0.00  0.00    +0.167 HD
ENDBRANCH  23  24
ENDBRANCH   3  23
TORSDOF 6
