REMARK  Name = ZINC12657575
REMARK  7 active torsions:
REMARK  status: ('A' for Active; 'I' for Inactive)
REMARK    1  A    between atoms: C_1  and  C_2
REMARK    2  A    between atoms: C_19  and  C_21
REMARK    3  A    between atoms: C_21  and  N_78
REMARK    4  A    between atoms: C_24  and  C_27
REMARK    5  A    between atoms: C_27  and  C_28
REMARK    6  A    between atoms: C_27  and  C_34
REMARK    7  A    between atoms: C_27  and  O_40
REMARK                            x       y       z     vdW  Elec       q    Type
REMARK                         _______ _______ _______ _____ _____    ______ ____
ROOT
ATOM      1  C   UNL     1      -5.397   6.089  -5.763  0.00  0.00    -0.078 C 
ATOM      2  C   UNL     1      -6.680   6.876  -6.042  0.00  0.00    -0.012 C 
ATOM      3  C   UNL     1      -7.762   5.916  -6.545  0.00  0.00    +0.026 C 
ATOM      4  C   UNL     1      -7.254   5.200  -7.799  0.00  0.00    -0.012 C 
ATOM      5  C   UNL     1      -5.955   4.462  -7.469  0.00  0.00    -0.078 C 
ATOM      6  N   UNL     1      -4.948   5.444  -7.014  0.00  0.00    +0.380 N 
ATOM      7  H   UNL     1      -4.834   6.164  -7.738  0.00  0.00    -0.082 HD
ENDROOT
BRANCH   6   8
ATOM      8  C   UNL     1      -3.650   4.772  -6.798  0.00  0.00    -0.064 C 
BRANCH   8  24
ATOM      9  C   UNL     1       0.753   7.947  -8.094  0.00  0.00    +0.012 C 
ATOM     10  C   UNL     1      -0.201   8.084  -9.282  0.00  0.00    -0.022 C 
ATOM     11  C   UNL     1       0.465   8.877 -10.405  0.00  0.00    +0.007 C 
ATOM     12  C   UNL     1       0.915  10.245  -9.877  0.00  0.00    +0.005 C 
ATOM     13  C   UNL     1      -0.311  11.050  -9.435  0.00  0.00    +0.030 C 
ATOM     14  C   UNL     1      -1.108  10.225  -8.448  0.00  0.00    -0.073 C 
ATOM     15  C   UNL     1      -1.467  10.720  -7.290  0.00  0.00    +0.008 C 
ATOM     16  C   UNL     1      -1.478   8.812  -8.837  0.00  0.00    +0.021 C 
ATOM     17  C   UNL     1      -2.052   8.070  -7.634  0.00  0.00    +0.016 C 
ATOM     18  C   UNL     1      -2.457   6.647  -8.023  0.00  0.00    +0.042 C 
ATOM     19  C   UNL     1      -1.287   5.902  -8.694  0.00  0.00    +0.181 C 
ATOM     20  C   UNL     1      -0.603   6.697  -9.781  0.00  0.00    +0.052 C 
ATOM     21  O   UNL     1      -0.407   5.576  -7.581  0.00  0.00    -0.461 OA
ATOM     22  C   UNL     1      -1.193   5.189  -6.552  0.00  0.00    +0.309 C 
ATOM     23  O   UNL     1      -0.863   4.444  -5.660  0.00  0.00    -0.251 OA
ATOM     24  C   UNL     1      -2.557   5.838  -6.695  0.00  0.00    +0.088 C 
ENDBRANCH   8  24
ENDBRANCH   6   8
BRANCH   3  25
ATOM     25  C   UNL     1      -9.028   6.705  -6.884  0.00  0.00    +0.119 C 
BRANCH  25  26
ATOM     26  C   UNL     1     -10.085   5.762  -7.399  0.00  0.00    -0.011 A 
ATOM     27  C   UNL     1     -10.378   4.605  -6.702  0.00  0.00    +0.007 A 
ATOM     28  C   UNL     1     -11.351   3.743  -7.173  0.00  0.00    +0.000 A 
ATOM     29  C   UNL     1     -12.022   4.033  -8.346  0.00  0.00    +0.000 A 
ATOM     30  C   UNL     1     -11.725   5.187  -9.046  0.00  0.00    +0.000 A 
ATOM     31  C   UNL     1     -10.756   6.052  -8.573  0.00  0.00    +0.007 A 
ENDBRANCH  25  26
BRANCH  25  32
ATOM     32  C   UNL     1      -9.534   7.398  -5.645  0.00  0.00    -0.011 A 
ATOM     33  C   UNL     1      -9.754   6.673  -4.489  0.00  0.00    +0.007 A 
ATOM     34  C   UNL     1     -10.214   7.309  -3.351  0.00  0.00    +0.000 A 
ATOM     35  C   UNL     1     -10.465   8.669  -3.373  0.00  0.00    +0.000 A 
ATOM     36  C   UNL     1     -10.250   9.393  -4.530  0.00  0.00    +0.000 A 
ATOM     37  C   UNL     1      -9.785   8.757  -5.667  0.00  0.00    +0.007 A 
ENDBRANCH  25  32
BRANCH  25  38
ATOM     38  O   UNL     1      -8.728   7.679  -7.885  0.00  0.00    -0.379 OA
ATOM     39  H   UNL     1      -8.055   8.320  -7.621  0.00  0.00    +0.211 HD
ENDBRANCH  25  38
ENDBRANCH   3  25
TORSDOF 6
