REMARK  Name = ZINC10109295
REMARK  9 active torsions:
REMARK  status: ('A' for Active; 'I' for Inactive)
REMARK    1  A    between atoms: C_1  and  N_59
REMARK    2  A    between atoms: C_2  and  C_3
REMARK    3  A    between atoms: C_2  and  N_59
REMARK    4  A    between atoms: N_5  and  C_6
REMARK    5  A    between atoms: C_13  and  N_14
REMARK    6  A    between atoms: C_13  and  N_59
REMARK    7  A    between atoms: C_17  and  C_21
REMARK    8  A    between atoms: C_17  and  C_28
REMARK    9  A    between atoms: C_21  and  C_22
REMARK                            x       y       z     vdW  Elec       q    Type
REMARK                         _______ _______ _______ _____ _____    ______ ____
ROOT
ATOM      1  N   UNL     1       4.208  -2.414   1.427  0.00  0.00    -0.241 N 
ATOM      2  C   UNL     1       4.139  -1.065   1.373  0.00  0.00    +0.250 C 
ATOM      3  O   UNL     1       4.383  -0.281   2.264  0.00  0.00    -0.272 OA
ATOM      4  C   UNL     1       3.693  -0.739  -0.038  0.00  0.00    +0.142 C 
ATOM      5  N   UNL     1       3.551  -2.059  -0.675  0.00  0.00    -0.281 N 
ATOM      6  C   UNL     1       3.873  -2.973   0.259  0.00  0.00    +0.308 C 
ATOM      7  O   UNL     1       3.861  -4.173   0.062  0.00  0.00    -0.252 OA
ATOM      8  H   UNL     1       3.278  -2.236  -1.589  0.00  0.00    +0.152 HD
ENDROOT
BRANCH   4   9
ATOM      9  C   UNL     1       2.372  -0.013  -0.021  0.00  0.00    -0.015 A 
ATOM     10  C   UNL     1       1.190  -0.730  -0.015  0.00  0.00    +0.006 A 
ATOM     11  C   UNL     1      -0.022  -0.065  -0.000  0.00  0.00    +0.000 A 
ATOM     12  C   UNL     1      -0.052   1.317   0.010  0.00  0.00    +0.000 A 
ATOM     13  C   UNL     1       1.130   2.034   0.004  0.00  0.00    +0.000 A 
ATOM     14  C   UNL     1       2.342   1.369  -0.012  0.00  0.00    +0.006 A 
ENDBRANCH   4   9
BRANCH   1  15
ATOM     15  C   UNL     1       4.601  -3.170   2.619  0.00  0.00    +0.043 C 
BRANCH  15  17
ATOM     16  C   UNL     1       6.430  -4.495   1.744  0.00  0.00    -0.093 C 
ATOM     17  N   UNL     1       6.069  -3.346   2.602  0.00  0.00    +0.394 N 
ATOM     18  H   UNL     1       6.503  -2.497   2.222  0.00  0.00    -0.079 HD
BRANCH  17  19
ATOM     19  C   UNL     1       6.566  -3.567   3.976  0.00  0.00    +0.021 C 
BRANCH  19  20
ATOM     20  C   UNL     1       8.073  -3.523   3.961  0.00  0.00    +0.201 C 
ATOM     21  O   UNL     1       8.663  -3.345   2.916  0.00  0.00    -0.278 OA
ATOM     22  N   UNL     1       8.764  -3.680   5.107  0.00  0.00    -0.286 N 
ATOM     23  H   UNL     1       8.292  -3.742   5.953  0.00  0.00    +0.155 HD
BRANCH  22  24
ATOM     24  C   UNL     1      10.161  -3.756   5.077  0.00  0.00    +0.052 A 
ATOM     25  C   UNL     1      10.811  -4.180   3.926  0.00  0.00    +0.025 A 
ATOM     26  C   UNL     1      12.190  -4.253   3.900  0.00  0.00    +0.002 A 
ATOM     27  C   UNL     1      12.924  -3.904   5.019  0.00  0.00    +0.002 A 
ATOM     28  C   UNL     1      12.281  -3.481   6.167  0.00  0.00    +0.022 A 
ATOM     29  C   UNL     1      10.901  -3.400   6.198  0.00  0.00    +0.062 A 
ATOM     30 CL   UNL     1      10.094  -2.862   7.638  0.00  0.00    -0.082 Cl
ENDBRANCH  22  24
ENDBRANCH  19  20
ENDBRANCH  17  19
ENDBRANCH  15  17
ENDBRANCH   1  15
BRANCH   4  31
ATOM     31  C   UNL     1       4.754   0.095  -0.759  0.00  0.00    +0.075 C 
BRANCH  31  32
ATOM     32  C   UNL     1       6.028  -0.701  -0.870  0.00  0.00    -0.045 A 
ATOM     33  C   UNL     1       6.982  -0.620   0.127  0.00  0.00    +0.004 A 
ATOM     34  C   UNL     1       8.150  -1.354   0.028  0.00  0.00    +0.000 A 
ATOM     35  C   UNL     1       8.367  -2.161  -1.073  0.00  0.00    +0.000 A 
ATOM     36  C   UNL     1       7.415  -2.238  -2.073  0.00  0.00    +0.000 A 
ATOM     37  C   UNL     1       6.246  -1.507  -1.971  0.00  0.00    +0.004 A 
ENDBRANCH  31  32
ENDBRANCH   4  31
TORSDOF 8
