REMARK  Name = ZINC33879203
REMARK  10 active torsions:
REMARK  status: ('A' for Active; 'I' for Inactive)
REMARK    1  A    between atoms: C_1  and  C_2
REMARK    2  A    between atoms: C_6  and  C_8
REMARK    3  A    between atoms: C_8  and  N_9
REMARK    4  A    between atoms: N_9  and  C_10
REMARK    5  A    between atoms: N_9  and  C_35
REMARK    6  A    between atoms: C_10  and  C_11
REMARK    7  A    between atoms: C_14  and  C_16
REMARK    8  A    between atoms: C_21  and  N_24
REMARK    9  A    between atoms: C_35  and  C_36
REMARK   10  A    between atoms: C_35  and  C_37
REMARK                            x       y       z     vdW  Elec       q    Type
REMARK                         _______ _______ _______ _____ _____    ______ ____
ROOT
ATOM      1  C   UNL     1       2.059  -2.527   4.834  0.00  0.00    +0.090 A 
ATOM      2  C   UNL     1       2.578  -1.366   5.289  0.00  0.00    +0.043 A 
ATOM      3  C   UNL     1       3.806  -1.672   5.895  0.00  0.00    +0.055 A 
ATOM      4  C   UNL     1       3.976  -3.022   5.778  0.00  0.00    +0.190 A 
ATOM      5  O   UNL     1       2.902  -3.523   5.135  0.00  0.00    -0.457 OA
ENDROOT
BRANCH   4   6
ATOM      6  C   UNL     1       5.124  -3.792   6.269  0.00  0.00    +0.282 C 
ATOM      7  O   UNL     1       5.979  -3.247   6.942  0.00  0.00    -0.267 OA
ATOM      8  N   UNL     1       5.231  -5.103   5.975  0.00  0.00    -0.295 N 
ATOM      9  C   UNL     1       6.301  -5.917   6.567  0.00  0.00    +0.110 C 
ATOM     10  C   UNL     1       5.674  -7.140   7.244  0.00  0.00    +0.044 C 
ATOM     11  C   UNL     1       4.802  -7.886   6.232  0.00  0.00    +0.095 C 
ATOM     12  C   UNL     1       3.675  -6.969   5.751  0.00  0.00    +0.044 C 
ATOM     13  C   UNL     1       4.277  -5.746   5.062  0.00  0.00    +0.110 C 
BRANCH  11  14
ATOM     14  N   UNL     1       4.226  -9.075   6.867  0.00  0.00    -0.289 N 
ATOM     15  C   UNL     1       4.423 -10.392   6.461  0.00  0.00    +0.070 A 
ATOM     16  C   UNL     1       5.149 -10.972   5.432  0.00  0.00    +0.028 A 
ATOM     17  C   UNL     1       5.151 -12.345   5.280  0.00  0.00    +0.002 A 
ATOM     18  C   UNL     1       4.429 -13.144   6.150  0.00  0.00    +0.002 A 
ATOM     19  C   UNL     1       3.702 -12.576   7.178  0.00  0.00    +0.028 A 
ATOM     20  C   UNL     1       3.696 -11.198   7.339  0.00  0.00    +0.067 A 
ATOM     21  N   UNL     1       3.079 -10.346   8.251  0.00  0.00    -0.306 N 
ATOM     22  H   UNL     1       2.506 -10.618   8.984  0.00  0.00    +0.170 HD
ATOM     23  C   UNL     1       3.421  -9.079   7.946  0.00  0.00    +0.328 A 
ATOM     24  O   UNL     1       3.055  -8.090   8.552  0.00  0.00    -0.247 OA
ENDBRANCH  11  14
ENDBRANCH   4   6
BRANCH   1  25
ATOM     25  C   UNL     1       0.745  -2.678   4.112  0.00  0.00    -0.002 C 
BRANCH  25  26
ATOM     26  N   UNL     1       0.922  -2.337   2.694  0.00  0.00    +0.389 N 
ATOM     27  H   UNL     1       1.477  -1.497   2.617  0.00  0.00    -0.080 HD
BRANCH  26  28
ATOM     28  C   UNL     1       1.606  -3.440   2.007  0.00  0.00    -0.074 C 
ATOM     29  C   UNL     1       3.051  -3.533   2.503  0.00  0.00    -0.013 C 
ATOM     30  C   UNL     1       0.880  -4.754   2.304  0.00  0.00    -0.013 C 
ENDBRANCH  26  28
BRANCH  26  31
ATOM     31  C   UNL     1      -0.391  -2.114   2.076  0.00  0.00    -0.042 C 
BRANCH  31  37
ATOM     32  C   UNL     1       0.286   1.671  -1.128  0.00  0.00    +0.044 C 
ATOM     33  C   UNL     1       0.119   0.196  -0.867  0.00  0.00    -0.050 A 
ATOM     34  C   UNL     1       0.137  -0.699  -1.920  0.00  0.00    +0.003 A 
ATOM     35  C   UNL     1      -0.016  -2.052  -1.681  0.00  0.00    +0.000 A 
ATOM     36  C   UNL     1      -0.187  -2.510  -0.387  0.00  0.00    +0.002 A 
ATOM     37  C   UNL     1      -0.204  -1.615   0.666  0.00  0.00    -0.064 A 
ATOM     38  C   UNL     1      -0.046  -0.262   0.426  0.00  0.00    +0.005 A 
ENDBRANCH  31  37
ENDBRANCH  26  31
ENDBRANCH  25  26
ENDBRANCH   1  25
TORSDOF 7
