REMARK  Name = ZINC33268846
REMARK  10 active torsions:
REMARK  status: ('A' for Active; 'I' for Inactive)
REMARK    1  A    between atoms: C_1  and  C_2
REMARK    2  A    between atoms: C_2  and  O_3
REMARK    3  A    between atoms: O_3  and  C_4
REMARK    4  A    between atoms: C_7  and  C_10
REMARK    5  A    between atoms: C_10  and  N_11
REMARK    6  A    between atoms: N_11  and  C_12
REMARK    7  A    between atoms: N_11  and  C_19
REMARK    8  A    between atoms: C_12  and  C_13
REMARK    9  A    between atoms: C_19  and  C_20
REMARK   10  A    between atoms: C_25  and  C_30
REMARK                            x       y       z     vdW  Elec       q    Type
REMARK                         _______ _______ _______ _____ _____    ______ ____
ROOT
ATOM      1  C   UNL     1      -1.628  -6.939   1.457  0.00  0.00    +0.138 C 
ENDROOT
BRANCH   1   2
ATOM      2  C   UNL     1      -1.773  -8.133   2.364  0.00  0.00    +0.037 A 
ATOM      3  C   UNL     1      -2.939  -8.869   2.374  0.00  0.00    +0.093 A 
ATOM      4  C   UNL     1      -3.054  -9.972   3.221  0.00  0.00    +0.259 A 
ATOM      5  O   UNL     1      -4.084 -10.628   3.234  0.00  0.00    -0.267 OA
ATOM      6  N   UNL     1      -2.013 -10.318   4.036  0.00  0.00    -0.256 N 
ATOM      7  C   UNL     1      -1.976 -11.375   4.922  0.00  0.00    +0.066 A 
ATOM      8  C   UNL     1      -0.879 -11.604   5.670  0.00  0.00    +0.075 A 
ATOM      9  S   UNL     1       0.205 -10.287   5.142  0.00  0.00    -0.059 S 
ATOM     10  C   UNL     1      -0.893  -9.533   3.963  0.00  0.00    +0.159 A 
ATOM     11  N   UNL     1      -0.777  -8.500   3.166  0.00  0.00    -0.337 N 
ATOM     12  H   UNL     1       0.049  -7.990   3.163  0.00  0.00    +0.168 HD
BRANCH   7  13
ATOM     13  C   UNL     1      -3.151 -12.264   5.053  0.00  0.00    -0.000 A 
ATOM     14  C   UNL     1      -3.618 -12.975   3.946  0.00  0.00    +0.013 A 
ATOM     15  C   UNL     1      -4.714 -13.803   4.073  0.00  0.00    +0.039 A 
ATOM     16  C   UNL     1      -5.352 -13.929   5.296  0.00  0.00    +0.123 A 
ATOM     17  C   UNL     1      -4.893 -13.225   6.398  0.00  0.00    +0.039 A 
ATOM     18  C   UNL     1      -3.794 -12.399   6.284  0.00  0.00    +0.013 A 
ATOM     19  F   UNL     1      -6.426 -14.740   5.415  0.00  0.00    -0.205 F 
ENDBRANCH   7  13
ENDBRANCH   1   2
BRANCH   1  20
ATOM     20  N   UNL     1      -1.144  -5.790   2.235  0.00  0.00    -0.288 NA
BRANCH  20  21
ATOM     21  C   UNL     1      -0.587  -4.755   1.353  0.00  0.00    +0.120 C 
BRANCH  21  25
ATOM     22  C   UNL     1       1.407  -1.800   3.709  0.00  0.00    +0.121 A 
ATOM     23  C   UNL     1       2.106  -2.903   3.242  0.00  0.00    +0.046 A 
ATOM     24  C   UNL     1       1.459  -3.857   2.481  0.00  0.00    +0.008 A 
ATOM     25  C   UNL     1       0.117  -3.713   2.184  0.00  0.00    -0.033 A 
ATOM     26  C   UNL     1      -0.582  -2.614   2.648  0.00  0.00    +0.008 A 
ATOM     27  C   UNL     1       0.059  -1.660   3.415  0.00  0.00    +0.046 A 
BRANCH  22  28
ATOM     28  O   UNL     1       2.041  -0.860   4.458  0.00  0.00    -0.492 OA
BRANCH  28  30
ATOM     29  C   UNL     1       3.967   0.084   5.573  0.00  0.00    +0.048 C 
ATOM     30  C   UNL     1       3.430  -1.069   4.722  0.00  0.00    +0.225 C 
ENDBRANCH  28  30
ENDBRANCH  22  28
ENDBRANCH  21  25
ENDBRANCH  20  21
BRANCH  20  31
ATOM     31  C   UNL     1      -2.211  -5.240   3.082  0.00  0.00    +0.120 C 
BRANCH  31  32
ATOM     32  C   UNL     1      -2.318  -6.054   4.346  0.00  0.00    -0.033 A 
ATOM     33  C   UNL     1      -3.284  -7.036   4.457  0.00  0.00    +0.005 A 
ATOM     34  C   UNL     1      -3.382  -7.782   5.616  0.00  0.00    +0.000 A 
ATOM     35  C   UNL     1      -2.513  -7.546   6.665  0.00  0.00    +0.000 A 
ATOM     36  C   UNL     1      -1.546  -6.565   6.554  0.00  0.00    +0.000 A 
ATOM     37  C   UNL     1      -1.445  -5.822   5.393  0.00  0.00    +0.005 A 
ENDBRANCH  31  32
ENDBRANCH  20  31
ENDBRANCH   1  20
TORSDOF 9
