REMARK  Name = ZINC09705679
REMARK  7 active torsions:
REMARK  status: ('A' for Active; 'I' for Inactive)
REMARK    1  A    between atoms: C_7  and  N_20
REMARK    2  A    between atoms: C_8  and  C_10
REMARK    3  A    between atoms: N_12  and  C_13
REMARK    4  A    between atoms: C_21  and  C_23
REMARK    5  A    between atoms: N_25  and  C_26
REMARK    6  A    between atoms: C_26  and  C_27
REMARK    7  A    between atoms: C_27  and  C_28
REMARK                            x       y       z     vdW  Elec       q    Type
REMARK                         _______ _______ _______ _____ _____    ______ ____
ROOT
ATOM      1  C   UNL     1      -2.239  -2.573   0.671  0.00  0.00    +0.001 A 
ATOM      2  C   UNL     1      -3.596  -2.807   0.498  0.00  0.00    +0.004 A 
ATOM      3  C   UNL     1      -4.443  -1.788   0.118  0.00  0.00    +0.047 A 
ATOM      4  C   UNL     1      -3.937  -0.510  -0.094  0.00  0.00    +0.138 A 
ATOM      5  C   UNL     1      -2.561  -0.282   0.077  0.00  0.00    +0.042 A 
ATOM      6  C   UNL     1      -1.720  -1.325   0.467  0.00  0.00    +0.013 A 
ATOM      7  C   UNL     1      -2.353   1.142  -0.213  0.00  0.00    +0.093 A 
ATOM      8  C   UNL     1      -3.586   1.642  -0.535  0.00  0.00    +0.212 A 
ATOM      9  O   UNL     1      -4.506   0.655  -0.461  0.00  0.00    -0.448 OA
ENDROOT
BRANCH   8  10
ATOM     10  C   UNL     1      -3.864   3.029  -0.905  0.00  0.00    +0.285 C 
ATOM     11  O   UNL     1      -2.948   3.820  -1.033  0.00  0.00    -0.266 OA
ATOM     12  N   UNL     1      -5.135   3.431  -1.103  0.00  0.00    -0.279 N 
ATOM     13  H   UNL     1      -5.859   2.787  -1.068  0.00  0.00    +0.155 HD
BRANCH  12  14
ATOM     14  C   UNL     1      -5.410   4.778  -1.359  0.00  0.00    +0.036 A 
ATOM     15  C   UNL     1      -6.523   5.130  -2.111  0.00  0.00    +0.023 A 
ATOM     16  C   UNL     1      -6.793   6.461  -2.363  0.00  0.00    +0.005 A 
ATOM     17  C   UNL     1      -5.957   7.444  -1.866  0.00  0.00    +0.038 A 
ATOM     18  C   UNL     1      -4.846   7.098  -1.116  0.00  0.00    +0.125 A 
ATOM     19  C   UNL     1      -4.574   5.766  -0.857  0.00  0.00    +0.061 A 
ATOM     20  F   UNL     1      -4.031   8.060  -0.631  0.00  0.00    -0.205 F 
ENDBRANCH  12  14
ENDBRANCH   8  10
BRANCH   7  21
ATOM     21  N   UNL     1      -1.153   1.838  -0.174  0.00  0.00    -0.274 N 
ATOM     22  C   UNL     1      -0.009   1.228  -0.541  0.00  0.00    +0.303 C 
ATOM     23  O   UNL     1      -0.011   0.045  -0.809  0.00  0.00    -0.265 OA
ATOM     24  H   UNL     1      -1.138   2.763   0.118  0.00  0.00    +0.155 HD
BRANCH  22  25
ATOM     25  C   UNL     1       1.261   2.010  -0.624  0.00  0.00    +0.299 C 
ATOM     26  O   UNL     1       1.263   3.194  -0.355  0.00  0.00    -0.265 OA
ATOM     27  N   UNL     1       2.404   1.402  -0.997  0.00  0.00    -0.307 N 
ATOM     28  H   UNL     1       2.403   0.456  -1.211  0.00  0.00    +0.149 HD
BRANCH  27  29
ATOM     29  C   UNL     1       3.650   2.169  -1.078  0.00  0.00    +0.109 C 
BRANCH  29  30
ATOM     30  C   UNL     1       4.788   1.248  -1.521  0.00  0.00    +0.049 C 
BRANCH  30  31
ATOM     31  C   UNL     1       6.069   2.037  -1.604  0.00  0.00    -0.072 C 
ATOM     32  C   UNL     1       6.857   2.026  -0.577  0.00  0.00    -0.028 C 
ATOM     33  C   UNL     1       8.159   2.769  -0.508  0.00  0.00    +0.027 C 
ATOM     34  C   UNL     1       8.614   3.167  -1.914  0.00  0.00    +0.004 C 
ATOM     35  C   UNL     1       7.437   3.840  -2.632  0.00  0.00    +0.005 C 
ATOM     36  C   UNL     1       6.355   2.783  -2.875  0.00  0.00    +0.030 C 
ENDBRANCH  30  31
ENDBRANCH  29  30
ENDBRANCH  27  29
ENDBRANCH  22  25
ENDBRANCH   7  21
TORSDOF 7
