REMARK  Name = ZINC32733667
REMARK  13 active torsions:
REMARK  status: ('A' for Active; 'I' for Inactive)
REMARK    1  A    between atoms: C_1  and  C_2
REMARK    2  A    between atoms: C_2  and  C_3
REMARK    3  A    between atoms: C_6  and  C_9
REMARK    4  A    between atoms: C_9  and  C_11
REMARK    5  A    between atoms: C_9  and  N_30
REMARK    6  A    between atoms: C_11  and  N_12
REMARK    7  A    between atoms: C_13  and  C_15
REMARK    8  A    between atoms: C_16  and  C_29
REMARK    9  A    between atoms: N_18  and  C_21
REMARK   10  A    between atoms: C_21  and  C_22
REMARK   11  A    between atoms: C_25  and  C_28
REMARK   12  A    between atoms: N_30  and  C_31
REMARK   13  A    between atoms: N_30  and  C_32
REMARK                            x       y       z     vdW  Elec       q    Type
REMARK                         _______ _______ _______ _____ _____    ______ ____
ROOT
ATOM      1  N   UNL     1      -0.356   1.581   1.131  0.00  0.00    -0.312 N 
ATOM      2  C   UNL     1       0.447   1.579   2.213  0.00  0.00    +0.249 C 
ATOM      3  O   UNL     1       1.637   1.361   2.087  0.00  0.00    -0.270 OA
ATOM      4  H   UNL     1      -1.433   1.778   1.245  0.00  0.00    +0.149 HD
ENDROOT
BRANCH   2   5
ATOM      5  C   UNL     1      -0.117   1.839   3.549  0.00  0.00    +0.096 A 
ATOM      6  C   UNL     1      -0.249   3.101   4.173  0.00  0.00    +0.074 A 
ATOM      7  N   UNL     1      -0.790   2.918   5.345  0.00  0.00    -0.174 NA
ATOM      8  N   UNL     1      -1.028   1.551   5.527  0.00  0.00    -0.248 N 
ATOM      9  C   UNL     1      -0.621   0.897   4.426  0.00  0.00    +0.140 A 
ATOM     10 CL   UNL     1      -0.707  -0.816   4.157  0.00  0.00    -0.062 Cl
ATOM     11  C   UNL     1       0.165   4.426   3.586  0.00  0.00    +0.068 C 
BRANCH   8  12
ATOM     12  C   UNL     1      -1.626   0.937   6.715  0.00  0.00    +0.180 C 
BRANCH  12  13
ATOM     13  C   UNL     1      -3.123   0.875   6.550  0.00  0.00    -0.026 A 
ATOM     14  C   UNL     1      -3.910   1.925   6.986  0.00  0.00    +0.006 A 
ATOM     15  C   UNL     1      -5.283   1.869   6.830  0.00  0.00    +0.004 A 
ATOM     16  C   UNL     1      -5.868   0.762   6.246  0.00  0.00    -0.050 A 
ATOM     17  C   UNL     1      -5.081  -0.289   5.814  0.00  0.00    +0.004 A 
ATOM     18  C   UNL     1      -3.708  -0.233   5.966  0.00  0.00    +0.006 A 
ATOM     19  C   UNL     1      -7.365   0.701   6.079  0.00  0.00    +0.044 C 
ENDBRANCH  12  13
ENDBRANCH   8  12
ENDBRANCH   2   5
BRANCH   1  20
ATOM     20  C   UNL     1       0.204   1.321  -0.197  0.00  0.00    +0.094 C 
BRANCH  20  21
ATOM     21  C   UNL     1      -0.888   1.498  -1.255  0.00  0.00    -0.021 C 
BRANCH  21  25
ATOM     22  C   UNL     1       0.688   0.530  -5.105  0.00  0.00    -0.048 A 
ATOM     23  C   UNL     1      -0.278  -0.275  -4.531  0.00  0.00    +0.004 A 
ATOM     24  C   UNL     1      -0.788   0.038  -3.285  0.00  0.00    +0.002 A 
ATOM     25  C   UNL     1      -0.332   1.156  -2.613  0.00  0.00    -0.059 A 
ATOM     26  C   UNL     1       0.630   1.964  -3.189  0.00  0.00    +0.002 A 
ATOM     27  C   UNL     1       1.144   1.648  -4.433  0.00  0.00    +0.004 A 
BRANCH  22  29
ATOM     28  C   UNL     1       0.400   0.868  -7.545  0.00  0.00    +0.009 C 
ATOM     29  C   UNL     1       1.243   0.189  -6.464  0.00  0.00    +0.032 C 
ENDBRANCH  22  29
ENDBRANCH  21  25
BRANCH  21  30
ATOM     30  N   UNL     1      -1.351   2.892  -1.252  0.00  0.00    +0.382 N 
ATOM     31  C   UNL     1      -0.277   3.803  -0.836  0.00  0.00    -0.096 C 
ATOM     32  C   UNL     1      -1.884   3.272  -2.567  0.00  0.00    -0.096 C 
ATOM     33  H   UNL     1      -2.168   2.975  -0.519  0.00  0.00    -0.082 HD
ENDBRANCH  21  30
ENDBRANCH  20  21
ENDBRANCH   1  20
TORSDOF 8
