REMARK  Name = ZINC23452056
REMARK  9 active torsions:
REMARK  status: ('A' for Active; 'I' for Inactive)
REMARK    1  A    between atoms: C_1  and  C_2
REMARK    2  A    between atoms: C_6  and  C_8
REMARK    3  A    between atoms: C_8  and  O_9
REMARK    4  A    between atoms: O_9  and  C_10
REMARK    5  A    between atoms: C_10  and  C_12
REMARK    6  A    between atoms: C_10  and  C_30
REMARK    7  A    between atoms: C_12  and  N_13
REMARK    8  A    between atoms: N_16  and  S_19
REMARK    9  A    between atoms: S_19  and  C_22
REMARK                            x       y       z     vdW  Elec       q    Type
REMARK                         _______ _______ _______ _____ _____    ______ ____
ROOT
ATOM      1  C   UNL     1       0.593   7.680  -2.712  0.00  0.00    -0.042 C 
ENDROOT
BRANCH   1   2
ATOM      2  N   UNL     1       1.985   7.211  -2.688  0.00  0.00    +0.383 N 
ATOM      3  C   UNL     1       2.749   7.881  -1.628  0.00  0.00    -0.061 C 
ATOM      4  C   UNL     1       4.136   7.239  -1.518  0.00  0.00    +0.091 C 
ATOM      5  N   UNL     1       4.766   7.258  -2.846  0.00  0.00    -0.180 NA
ATOM      6  C   UNL     1       4.004   6.727  -3.986  0.00  0.00    +0.091 C 
ATOM      7  C   UNL     1       2.623   7.390  -3.999  0.00  0.00    -0.061 C 
ATOM      8  H   UNL     1       1.976   6.134  -2.465  0.00  0.00    -0.082 HD
BRANCH   5   9
ATOM      9  S   UNL     1       6.294   7.862  -3.053  0.00  0.00    +0.066 S 
ATOM     10  O   UNL     1       6.944   7.762  -1.793  0.00  0.00    -0.153 OA
ATOM     11  O   UNL     1       6.815   7.258  -4.229  0.00  0.00    -0.153 OA
BRANCH   9  12
ATOM     12  C   UNL     1       6.132   9.582  -3.400  0.00  0.00    +0.175 A 
ATOM     13  C   UNL     1       6.011  10.016  -4.709  0.00  0.00    +0.152 A 
ATOM     14  C   UNL     1       5.879  11.368  -4.980  0.00  0.00    +0.040 A 
ATOM     15  C   UNL     1       5.878  12.284  -3.945  0.00  0.00    +0.006 A 
ATOM     16  C   UNL     1       6.003  11.852  -2.639  0.00  0.00    +0.040 A 
ATOM     17  C   UNL     1       6.130  10.501  -2.364  0.00  0.00    +0.152 A 
ATOM     18  F   UNL     1       6.254  10.079  -1.087  0.00  0.00    -0.203 F 
ATOM     19  F   UNL     1       6.018   9.121  -5.721  0.00  0.00    -0.203 F 
ENDBRANCH   9  12
ENDBRANCH   5   9
ENDBRANCH   1   2
BRANCH   1  20
ATOM     20  C   UNL     1      -0.110   7.255  -1.421  0.00  0.00    +0.132 C 
BRANCH  20  21
ATOM     21  C   UNL     1      -1.538   7.736  -1.445  0.00  0.00    -0.021 A 
ATOM     22  C   UNL     1      -2.511   6.982  -2.074  0.00  0.00    +0.007 A 
ATOM     23  C   UNL     1      -3.822   7.421  -2.091  0.00  0.00    +0.020 A 
ATOM     24  C   UNL     1      -4.158   8.620  -1.488  0.00  0.00    +0.041 A 
ATOM     25  C   UNL     1      -3.183   9.377  -0.864  0.00  0.00    +0.020 A 
ATOM     26  C   UNL     1      -1.873   8.934  -0.843  0.00  0.00    +0.007 A 
ATOM     27 CL   UNL     1      -5.803   9.174  -1.515  0.00  0.00    -0.084 Cl
ENDBRANCH  20  21
BRANCH  20  28
ATOM     28  O   UNL     1      -0.090   5.830  -1.315  0.00  0.00    -0.369 OA
BRANCH  28  29
ATOM     29  C   UNL     1      -0.070   5.347   0.030  0.00  0.00    +0.195 C 
BRANCH  29  35
ATOM     30  C   UNL     1      -2.514   0.980   0.019  0.00  0.00    +0.044 C 
ATOM     31  C   UNL     1      -1.219   1.751   0.017  0.00  0.00    -0.050 A 
ATOM     32  C   UNL     1      -0.013   1.076   0.008  0.00  0.00    +0.003 A 
ATOM     33  C   UNL     1       1.175   1.783   0.000  0.00  0.00    +0.001 A 
ATOM     34  C   UNL     1       1.156   3.166   0.008  0.00  0.00    +0.006 A 
ATOM     35  C   UNL     1      -0.050   3.840   0.022  0.00  0.00    -0.022 A 
ATOM     36  C   UNL     1      -1.238   3.133   0.030  0.00  0.00    +0.009 A 
ENDBRANCH  29  35
ENDBRANCH  28  29
ENDBRANCH  20  28
ENDBRANCH   1  20
TORSDOF 8
