REMARK  Name = ZINC16601838
REMARK  14 active torsions:
REMARK  status: ('A' for Active; 'I' for Inactive)
REMARK    1  A    between atoms: C_1  and  C_2
REMARK    2  A    between atoms: C_2  and  N_64
REMARK    3  A    between atoms: C_3  and  C_4
REMARK    4  A    between atoms: C_3  and  N_64
REMARK    5  A    between atoms: C_5  and  C_6
REMARK    6  A    between atoms: C_5  and  N_64
REMARK    7  A    between atoms: C_6  and  C_7
REMARK    8  A    between atoms: C_7  and  C_8
REMARK    9  A    between atoms: C_8  and  C_10
REMARK   10  A    between atoms: C_8  and  N_11
REMARK   11  A    between atoms: C_12  and  C_14
REMARK   12  A    between atoms: C_16  and  C_28
REMARK   13  A    between atoms: N_18  and  C_19
REMARK   14  A    between atoms: C_22  and  N_25
REMARK                            x       y       z     vdW  Elec       q    Type
REMARK                         _______ _______ _______ _____ _____    ______ ____
ROOT
ATOM      1  C   UNL     1      -1.908   5.245  -1.205  0.00  0.00    +0.130 A 
ATOM      2  C   UNL     1      -0.876   6.027  -0.722  0.00  0.00    +0.063 A 
ATOM      3  C   UNL     1      -1.171   7.335  -1.148  0.00  0.00    +0.094 A 
ATOM      4  N   UNL     1      -2.302   7.290  -1.820  0.00  0.00    -0.166 NA
ATOM      5  N   UNL     1      -2.755   6.089  -1.871  0.00  0.00    -0.227 N 
ENDROOT
BRANCH   3   6
ATOM      6  C   UNL     1      -0.357   8.548  -0.883  0.00  0.00    +0.002 A 
ATOM      7  C   UNL     1       0.823   8.450  -0.148  0.00  0.00    +0.013 A 
ATOM      8  C   UNL     1       1.579   9.579   0.093  0.00  0.00    +0.039 A 
ATOM      9  C   UNL     1       1.161  10.810  -0.386  0.00  0.00    +0.123 A 
ATOM     10  C   UNL     1      -0.015  10.912  -1.113  0.00  0.00    +0.039 A 
ATOM     11  C   UNL     1      -0.774   9.788  -1.363  0.00  0.00    +0.013 A 
ATOM     12  F   UNL     1       1.900  11.914  -0.143  0.00  0.00    -0.205 F 
ENDBRANCH   3   6
BRANCH   5  13
ATOM     13  C   UNL     1      -3.938   5.702  -2.511  0.00  0.00    +0.066 A 
ATOM     14  C   UNL     1      -3.953   4.576  -3.323  0.00  0.00    +0.030 A 
ATOM     15  C   UNL     1      -5.123   4.194  -3.950  0.00  0.00    +0.035 A 
ATOM     16  C   UNL     1      -6.277   4.937  -3.777  0.00  0.00    +0.126 A 
ATOM     17  C   UNL     1      -6.264   6.062  -2.972  0.00  0.00    +0.035 A 
ATOM     18  C   UNL     1      -5.098   6.446  -2.339  0.00  0.00    +0.030 A 
BRANCH  16  19
ATOM     19  N   UNL     1      -7.527   4.528  -4.454  0.00  0.00    +0.056 N 
ATOM     20  O   UNL     1      -8.544   5.181  -4.303  0.00  0.00    -0.126 OA
ATOM     21  O   UNL     1      -7.540   3.537  -5.163  0.00  0.00    -0.126 OA
ENDBRANCH  16  19
ENDBRANCH   5  13
BRANCH   1  23
ATOM     22  N   UNL     1      -1.091   3.072  -0.447  0.00  0.00    -0.308 N 
ATOM     23  C   UNL     1      -2.068   3.792  -1.032  0.00  0.00    +0.263 C 
ATOM     24  O   UNL     1      -3.082   3.242  -1.417  0.00  0.00    -0.269 OA
ATOM     25  H   UNL     1      -0.253   3.497  -0.204  0.00  0.00    +0.149 HD
BRANCH  22  26
ATOM     26  C   UNL     1      -1.293   1.646  -0.178  0.00  0.00    +0.070 C 
ATOM     27  C   UNL     1      -0.870   0.831  -1.401  0.00  0.00    +0.028 C 
BRANCH  26  28
ATOM     28  C   UNL     1      -0.449   1.230   1.029  0.00  0.00    +0.020 C 
BRANCH  28  29
ATOM     29  C   UNL     1      -0.975   1.929   2.284  0.00  0.00    -0.017 C 
BRANCH  29  30
ATOM     30  C   UNL     1      -0.060   1.607   3.468  0.00  0.00    -0.079 C 
BRANCH  30  31
ATOM     31  N   UNL     1      -0.634   2.212   4.688  0.00  0.00    +0.379 N 
ATOM     32  H   UNL     1      -0.981   3.152   4.463  0.00  0.00    -0.082 HD
BRANCH  31  34
ATOM     33  C   UNL     1      -2.474   2.148   6.299  0.00  0.00    -0.017 C 
ATOM     34  C   UNL     1      -1.761   1.389   5.178  0.00  0.00    -0.082 C 
ENDBRANCH  31  34
BRANCH  31  35
ATOM     35  C   UNL     1       0.404   2.321   5.734  0.00  0.00    -0.082 C 
ATOM     36  C   UNL     1       1.302   3.517   5.411  0.00  0.00    -0.017 C 
ENDBRANCH  31  35
ENDBRANCH  30  31
ENDBRANCH  29  30
ENDBRANCH  28  29
ENDBRANCH  26  28
ENDBRANCH  22  26
ENDBRANCH   1  23
TORSDOF 11
