REMARK  Name = ZINC58967553
REMARK  8 active torsions:
REMARK  status: ('A' for Active; 'I' for Inactive)
REMARK    1  A    between atoms: C_12  and  S_19
REMARK    2  A    between atoms: C_14  and  C_15
REMARK    3  A    between atoms: S_19  and  C_20
REMARK    4  A    between atoms: C_20  and  C_21
REMARK    5  A    between atoms: C_21  and  C_22
REMARK    6  A    between atoms: C_22  and  C_23
REMARK    7  A    between atoms: N_25  and  C_26
REMARK    8  A    between atoms: C_27  and  C_34
REMARK                            x       y       z     vdW  Elec       q    Type
REMARK                         _______ _______ _______ _____ _____    ______ ____
ROOT
ATOM      1  C   UNL     1      -0.013   1.386  -0.020  0.00  0.00    +0.000 A 
ATOM      2  C   UNL     1       1.172   2.100  -0.020  0.00  0.00    +0.001 A 
ATOM      3  C   UNL     1       2.381   1.433  -0.040  0.00  0.00    +0.010 A 
ATOM      4  C   UNL     1       2.402   0.043  -0.064  0.00  0.00    +0.004 A 
ATOM      5  C   UNL     1       1.206  -0.675  -0.038  0.00  0.00    -0.038 A 
ATOM      6  C   UNL     1       0.004   0.003  -0.028  0.00  0.00    +0.004 A 
ATOM      7  C   UNL     1       1.228  -2.179   0.011  0.00  0.00    +0.040 C 
ATOM      8  C   UNL     1       2.385  -2.733  -0.815  0.00  0.00    +0.044 C 
ATOM      9  C   UNL     1       3.674  -2.053  -0.448  0.00  0.00    +0.009 A 
ATOM     10  C   UNL     1       3.681  -0.702  -0.098  0.00  0.00    +0.079 A 
ATOM     11  N   UNL     1       4.833  -0.113   0.200  0.00  0.00    -0.222 NA
ATOM     12  C   UNL     1       5.962  -0.808   0.178  0.00  0.00    +0.189 A 
ATOM     13  N   UNL     1       5.983  -2.096  -0.136  0.00  0.00    -0.218 NA
ATOM     14  C   UNL     1       4.871  -2.742  -0.451  0.00  0.00    +0.152 A 
ENDROOT
BRANCH  14  15
ATOM     15  C   UNL     1       4.910  -4.206  -0.807  0.00  0.00    +0.435 C 
ATOM     16  F   UNL     1       4.311  -4.398  -2.057  0.00  0.00    -0.164 F 
ATOM     17  F   UNL     1       6.240  -4.638  -0.857  0.00  0.00    -0.164 F 
ATOM     18  F   UNL     1       4.217  -4.941   0.161  0.00  0.00    -0.164 F 
ENDBRANCH  14  15
BRANCH  12  19
ATOM     19  S   UNL     1       7.475   0.002   0.578  0.00  0.00    -0.086 S 
BRANCH  19  20
ATOM     20  C   UNL     1       8.726  -1.303   0.422  0.00  0.00    +0.078 C 
BRANCH  20  21
ATOM     21  C   UNL     1      10.106  -0.728   0.747  0.00  0.00    +0.020 C 
BRANCH  21  22
ATOM     22  C   UNL     1      11.161  -1.829   0.616  0.00  0.00    +0.097 C 
BRANCH  22  23
ATOM     23  C   UNL     1      12.520  -1.262   0.935  0.00  0.00    +0.218 C 
ATOM     24  O   UNL     1      12.634  -0.093   1.237  0.00  0.00    -0.275 OA
ATOM     25  N   UNL     1      13.609  -2.054   0.884  0.00  0.00    -0.279 N 
ATOM     26  H   UNL     1      13.518  -2.989   0.642  0.00  0.00    +0.155 HD
BRANCH  25  27
ATOM     27  C   UNL     1      14.861  -1.533   1.178  0.00  0.00    +0.090 A 
ATOM     28  C   UNL     1      16.078  -2.188   1.172  0.00  0.00    +0.084 A 
ATOM     29  C   UNL     1      17.262  -1.407   1.522  0.00  0.00    -0.018 A 
ATOM     30  C   UNL     1      17.003  -0.119   1.813  0.00  0.00    -0.004 A 
ATOM     31  S   UNL     1      15.247   0.040   1.615  0.00  0.00    -0.077 S 
ATOM     32  C   UNL     1      18.254   0.638   2.171  0.00  0.00    +0.043 C 
ATOM     33  C   UNL     1      19.297  -0.458   2.483  0.00  0.00    +0.010 C 
ATOM     34  C   UNL     1      18.765  -1.645   1.655  0.00  0.00    +0.037 C 
BRANCH  28  35
ATOM     35  C   UNL     1      16.174  -3.577   0.837  0.00  0.00    +0.102 C 
ATOM     36  N   UNL     1      16.250  -4.679   0.571  0.00  0.00    -0.191 NA
ENDBRANCH  28  35
ENDBRANCH  25  27
ENDBRANCH  22  23
ENDBRANCH  21  22
ENDBRANCH  20  21
ENDBRANCH  19  20
ENDBRANCH  12  19
TORSDOF 8
