REMARK  Name = ZINC12914541
REMARK  11 active torsions:
REMARK  status: ('A' for Active; 'I' for Inactive)
REMARK    1  A    between atoms: C_1  and  N_2
REMARK    2  A    between atoms: N_2  and  C_3
REMARK    3  A    between atoms: C_4  and  N_19
REMARK    4  A    between atoms: N_5  and  C_12
REMARK    5  A    between atoms: C_12  and  C_13
REMARK    6  A    between atoms: C_20  and  C_22
REMARK    7  A    between atoms: C_22  and  O_23
REMARK    8  A    between atoms: O_23  and  C_24
REMARK    9  A    between atoms: C_24  and  C_26
REMARK   10  A    between atoms: N_31  and  C_33
REMARK   11  A    between atoms: C_33  and  C_34
REMARK                            x       y       z     vdW  Elec       q    Type
REMARK                         _______ _______ _______ _____ _____    ______ ____
ROOT
ATOM      1  C   UNL     1      -0.018   1.509   0.155  0.00  0.00    +0.138 C 
ATOM      2  N   UNL     1      -0.037   0.053  -0.012  0.00  0.00    -0.265 N 
ATOM      3  C   UNL     1      -0.207  -0.483  -1.238  0.00  0.00    +0.257 C 
ATOM      4  O   UNL     1      -0.322  -1.685  -1.364  0.00  0.00    -0.272 OA
ENDROOT
BRANCH   2   5
ATOM      5  C   UNL     1       0.122  -0.787   1.110  0.00  0.00    +0.139 A 
ATOM      6  C   UNL     1      -0.833  -0.817   2.106  0.00  0.00    +0.128 A 
ATOM      7  N   UNL     1      -0.650  -1.647   3.188  0.00  0.00    -0.276 N 
ATOM      8  C   UNL     1       0.448  -2.420   3.274  0.00  0.00    +0.331 A 
ATOM      9  O   UNL     1       0.591  -3.146   4.239  0.00  0.00    -0.246 OA
ATOM     10  N   UNL     1       1.389  -2.404   2.314  0.00  0.00    -0.273 N 
ATOM     11  H   UNL     1       2.171  -2.971   2.400  0.00  0.00    +0.173 HD
ATOM     12  C   UNL     1       1.255  -1.614   1.231  0.00  0.00    +0.277 A 
ATOM     13  O   UNL     1       2.112  -1.611   0.363  0.00  0.00    -0.266 OA
BRANCH   6  14
ATOM     14  N   UNL     1      -1.954  -0.027   2.018  0.00  0.00    -0.343 N 
ATOM     15  H   UNL     1      -2.046   0.605   1.287  0.00  0.00    +0.144 HD
ATOM     16  H   UNL     1      -2.654  -0.101   2.686  0.00  0.00    +0.144 HD
ENDBRANCH   6  14
BRANCH   7  17
ATOM     17  C   UNL     1      -1.656  -1.689   4.252  0.00  0.00    +0.163 C 
BRANCH  17  18
ATOM     18  C   UNL     1      -2.682  -2.746   3.932  0.00  0.00    -0.028 A 
ATOM     19  C   UNL     1      -3.804  -2.420   3.194  0.00  0.00    +0.005 A 
ATOM     20  C   UNL     1      -4.744  -3.389   2.900  0.00  0.00    +0.000 A 
ATOM     21  C   UNL     1      -4.563  -4.685   3.345  0.00  0.00    +0.000 A 
ATOM     22  C   UNL     1      -3.440  -5.012   4.083  0.00  0.00    +0.000 A 
ATOM     23  C   UNL     1      -2.497  -4.043   4.372  0.00  0.00    +0.005 A 
ENDBRANCH  17  18
ENDBRANCH   7  17
ENDBRANCH   2   5
BRANCH   3  24
ATOM     24  C   UNL     1      -0.255   0.409  -2.451  0.00  0.00    +0.328 C 
BRANCH  24  25
ATOM     25  O   UNL     1      -0.442  -0.388  -3.622  0.00  0.00    -0.455 OA
BRANCH  25  26
ATOM     26  C   UNL     1      -0.506   0.259  -4.796  0.00  0.00    +0.313 C 
ATOM     27  O   UNL     1      -0.407   1.463  -4.829  0.00  0.00    -0.250 OA
BRANCH  26  28
ATOM     28  C   UNL     1      -0.702  -0.515  -6.074  0.00  0.00    +0.124 C 
ATOM     29  C   UNL     1       0.506  -1.440  -6.351  0.00  0.00    +0.112 C 
ATOM     30  C   UNL     1       0.676  -1.389  -7.853  0.00  0.00    +0.217 C 
ATOM     31  O   UNL     1       1.323  -2.180  -8.507  0.00  0.00    -0.276 OA
ATOM     32  N   UNL     1       0.005  -0.340  -8.359  0.00  0.00    -0.293 N 
ATOM     33  C   UNL     1      -0.668   0.423  -7.301  0.00  0.00    +0.123 C 
BRANCH  32  34
ATOM     34  C   UNL     1      -0.049  -0.002  -9.783  0.00  0.00    +0.182 C 
BRANCH  34  35
ATOM     35  C   UNL     1      -1.224  -0.697 -10.421  0.00  0.00    +0.122 A 
ATOM     36  C   UNL     1      -2.469  -0.198 -10.530  0.00  0.00    +0.046 A 
ATOM     37  C   UNL     1      -3.246  -1.177 -11.190  0.00  0.00    +0.041 A 
ATOM     38  C   UNL     1      -2.430  -2.216 -11.444  0.00  0.00    +0.195 A 
ATOM     39  O   UNL     1      -1.206  -1.917 -10.981  0.00  0.00    -0.466 OA
ENDBRANCH  34  35
ENDBRANCH  32  34
ENDBRANCH  26  28
ENDBRANCH  25  26
ENDBRANCH  24  25
ENDBRANCH   3  24
TORSDOF 10
