REMARK  Name = ZINC09686379
REMARK  7 active torsions:
REMARK  status: ('A' for Active; 'I' for Inactive)
REMARK    1  A    between atoms: C_3  and  C_6
REMARK    2  A    between atoms: C_6  and  C_7
REMARK    3  A    between atoms: C_7  and  N_67
REMARK    4  A    between atoms: C_10  and  C_13
REMARK    5  A    between atoms: C_13  and  N_14
REMARK    6  A    between atoms: C_15  and  C_17
REMARK    7  A    between atoms: C_26  and  C_29
REMARK                            x       y       z     vdW  Elec       q    Type
REMARK                         _______ _______ _______ _____ _____    ______ ____
ROOT
ATOM      1  N   UNL     1       6.424   6.503   1.726  0.00  0.00    -0.315 N 
ATOM      2  C   UNL     1       5.430   6.643   0.827  0.00  0.00    +0.216 C 
ATOM      3  O   UNL     1       5.574   7.379  -0.126  0.00  0.00    -0.276 OA
ATOM      4  H   UNL     1       6.309   5.915   2.489  0.00  0.00    +0.149 HD
ENDROOT
BRANCH   2   5
ATOM      5  C   UNL     1       4.139   5.886   1.007  0.00  0.00    +0.078 C 
ATOM      6  C   UNL     1       3.185   6.221  -0.142  0.00  0.00    +0.031 C 
ATOM      7  C   UNL     1       1.901   5.404   0.013  0.00  0.00    +0.107 C 
ATOM      8  N   UNL     1       2.226   3.972   0.002  0.00  0.00    -0.314 N 
ATOM      9  C   UNL     1       3.103   3.618   1.125  0.00  0.00    +0.107 C 
ATOM     10  C   UNL     1       4.423   4.382   1.003  0.00  0.00    +0.031 C 
ATOM     11  C   UNL     1       1.070   3.198   0.009  0.00  0.00    +0.144 A 
ATOM     12  C   UNL     1       1.162   1.804   0.001  0.00  0.00    +0.047 A 
ATOM     13  C   UNL     1      -0.013   1.076   0.008  0.00  0.00    +0.034 A 
ATOM     14  C   UNL     1      -1.223   1.782   0.017  0.00  0.00    +0.100 A 
ATOM     15  N   UNL     1      -1.212   3.110   0.030  0.00  0.00    -0.147 NA
ATOM     16  N   UNL     1      -0.119   3.782   0.024  0.00  0.00    -0.134 NA
BRANCH  14  17
ATOM     17  C   UNL     1      -2.507   1.052   0.019  0.00  0.00    +0.039 A 
ATOM     18  C   UNL     1      -3.784   1.550   0.027  0.00  0.00    +0.018 A 
ATOM     19  C   UNL     1      -4.839   0.665   0.026  0.00  0.00    +0.008 A 
ATOM     20  C   UNL     1      -4.585  -0.669   0.017  0.00  0.00    +0.046 A 
ATOM     21  S   UNL     1      -2.800  -0.710   0.002  0.00  0.00    -0.095 S 
ENDBRANCH  14  17
ENDBRANCH   2   5
BRANCH   1  22
ATOM     22  C   UNL     1       7.679   7.239   1.551  0.00  0.00    +0.107 C 
BRANCH  22  25
ATOM     23  C   UNL     1      10.914   7.285   3.636  0.00  0.00    -0.078 C 
ATOM     24  C   UNL     1       9.986   7.574   2.454  0.00  0.00    -0.014 C 
ATOM     25  C   UNL     1       8.631   6.904   2.701  0.00  0.00    +0.003 C 
ATOM     26  C   UNL     1       8.046   7.423   4.018  0.00  0.00    -0.014 C 
ATOM     27  C   UNL     1       9.031   7.139   5.154  0.00  0.00    -0.078 C 
ATOM     28  N   UNL     1      10.306   7.831   4.869  0.00  0.00    +0.380 N 
ATOM     29  H   UNL     1      10.119   8.831   4.733  0.00  0.00    -0.082 HD
BRANCH  28  30
ATOM     30  C   UNL     1      11.235   7.666   6.006  0.00  0.00    -0.074 C 
BRANCH  30  31
ATOM     31  C   UNL     1      10.494   7.977   7.308  0.00  0.00    +0.024 C 
BRANCH  31  34
ATOM     32  C   UNL     1      13.038   8.418  10.108  0.00  0.00    +0.008 A 
ATOM     33  C   UNL     1      12.245   8.774   9.033  0.00  0.00    +0.011 A 
ATOM     34  C   UNL     1      11.442   7.838   8.471  0.00  0.00    -0.012 A 
ATOM     35  S   UNL     1      11.804   6.397   9.460  0.00  0.00    -0.102 S 
ATOM     36  C   UNL     1      12.996   7.141  10.561  0.00  0.00    +0.045 A 
ENDBRANCH  31  34
ENDBRANCH  30  31
ENDBRANCH  28  30
ENDBRANCH  22  25
ENDBRANCH   1  22
TORSDOF 7
