REMARK  Name = ZINC40401418
REMARK  12 active torsions:
REMARK  status: ('A' for Active; 'I' for Inactive)
REMARK    1  A    between atoms: C_1  and  C_2
REMARK    2  A    between atoms: C_2  and  C_3
REMARK    3  A    between atoms: C_2  and  C_4
REMARK    4  A    between atoms: C_7  and  C_10
REMARK    5  A    between atoms: C_10  and  N_11
REMARK    6  A    between atoms: N_11  and  C_12
REMARK    7  A    between atoms: N_11  and  C_22
REMARK    8  A    between atoms: C_12  and  C_13
REMARK    9  A    between atoms: C_22  and  C_23
REMARK   10  A    between atoms: C_25  and  C_28
REMARK   11  A    between atoms: N_30  and  C_31
REMARK   12  A    between atoms: C_31  and  C_32
REMARK                            x       y       z     vdW  Elec       q    Type
REMARK                         _______ _______ _______ _____ _____    ______ ____
ROOT
ATOM      1  N   UNL     1       3.662  -0.720  -4.910  0.00  0.00    +0.391 N 
ATOM      2  H   UNL     1       4.419  -0.330  -4.370  0.00  0.00    -0.080 HD
ENDROOT
BRANCH   1   3
ATOM      3  C   UNL     1       2.947  -1.718  -4.102  0.00  0.00    -0.042 C 
BRANCH   3   7
ATOM      4  C   UNL     1       5.719  -4.626  -2.651  0.00  0.00    -0.045 A 
ATOM      5  C   UNL     1       5.543  -3.438  -1.967  0.00  0.00    +0.004 A 
ATOM      6  C   UNL     1       4.646  -2.496  -2.437  0.00  0.00    +0.002 A 
ATOM      7  C   UNL     1       3.926  -2.743  -3.591  0.00  0.00    -0.064 A 
ATOM      8  C   UNL     1       4.103  -3.931  -4.275  0.00  0.00    +0.002 A 
ATOM      9  C   UNL     1       5.003  -4.870  -3.808  0.00  0.00    +0.004 A 
BRANCH   4  11
ATOM     10  C   UNL     1       8.081  -5.014  -2.001  0.00  0.00    +0.012 C 
ATOM     11  C   UNL     1       6.697  -5.652  -2.138  0.00  0.00    +0.013 C 
ATOM     12  C   UNL     1       6.233  -6.161  -0.772  0.00  0.00    +0.012 C 
ENDBRANCH   4  11
ENDBRANCH   3   7
ENDBRANCH   1   3
BRANCH   1  13
ATOM     13  C   UNL     1       2.734   0.351  -5.298  0.00  0.00    -0.042 C 
BRANCH  13  14
ATOM     14  C   UNL     1       2.278   1.091  -4.067  0.00  0.00    -0.060 A 
ATOM     15  C   UNL     1       1.087   0.745  -3.456  0.00  0.00    +0.005 A 
ATOM     16  C   UNL     1       0.665   1.421  -2.326  0.00  0.00    +0.050 A 
ATOM     17  C   UNL     1       1.435   2.447  -1.803  0.00  0.00    +0.166 A 
ATOM     18  C   UNL     1       2.635   2.795  -2.419  0.00  0.00    +0.166 A 
ATOM     19  C   UNL     1       3.055   2.110  -3.547  0.00  0.00    +0.051 A 
ATOM     20  O   UNL     1       3.201   3.823  -1.721  0.00  0.00    -0.453 OA
ATOM     21  C   UNL     1       2.140   4.370  -0.916  0.00  0.00    +0.466 C 
ATOM     22  O   UNL     1       1.249   3.256  -0.720  0.00  0.00    -0.453 OA
ENDBRANCH  13  14
ENDBRANCH   1  13
BRANCH   1  23
ATOM     23  C   UNL     1       4.200  -1.362  -6.117  0.00  0.00    +0.020 C 
BRANCH  23  24
ATOM     24  C   UNL     1       5.036  -0.369  -6.884  0.00  0.00    +0.179 A 
ATOM     25  N   UNL     1       6.311  -0.179  -6.727  0.00  0.00    -0.210 NA
ATOM     26  C   UNL     1       6.712   0.792  -7.591  0.00  0.00    +0.163 A 
ATOM     27  C   UNL     1       5.612   1.187  -8.288  0.00  0.00    +0.230 A 
ATOM     28  O   UNL     1       4.581   0.453  -7.840  0.00  0.00    -0.449 OA
BRANCH  26  29
ATOM     29  C   UNL     1       8.081   1.317  -7.745  0.00  0.00    +0.266 C 
ATOM     30  O   UNL     1       8.310   2.191  -8.559  0.00  0.00    -0.268 OA
ATOM     31  N   UNL     1       9.080   0.829  -6.982  0.00  0.00    -0.306 N 
ATOM     32  H   UNL     1       8.898   0.132  -6.332  0.00  0.00    +0.149 HD
BRANCH  31  33
ATOM     33  C   UNL     1      10.440   1.351  -7.134  0.00  0.00    +0.140 C 
BRANCH  33  34
ATOM     34  C   UNL     1      11.360   0.643  -6.173  0.00  0.00    -0.030 A 
ATOM     35  C   UNL     1      11.551   1.148  -4.901  0.00  0.00    +0.005 A 
ATOM     36  C   UNL     1      12.395   0.499  -4.019  0.00  0.00    +0.000 A 
ATOM     37  C   UNL     1      13.048  -0.655  -4.410  0.00  0.00    +0.000 A 
ATOM     38  C   UNL     1      12.856  -1.161  -5.682  0.00  0.00    +0.000 A 
ATOM     39  C   UNL     1      12.009  -0.514  -6.562  0.00  0.00    +0.005 A 
ENDBRANCH  33  34
ENDBRANCH  31  33
ENDBRANCH  26  29
ENDBRANCH  23  24
ENDBRANCH   1  23
TORSDOF 10
