REMARK  Name = ZINC21937426
REMARK  7 active torsions:
REMARK  status: ('A' for Active; 'I' for Inactive)
REMARK    1  A    between atoms: C_1  and  C_2
REMARK    2  A    between atoms: C_7  and  N_8
REMARK    3  A    between atoms: C_9  and  C_11
REMARK    4  A    between atoms: C_11  and  C_13
REMARK    5  A    between atoms: C_11  and  S_14
REMARK    6  A    between atoms: S_14  and  C_15
REMARK    7  A    between atoms: C_25  and  C_30
REMARK                            x       y       z     vdW  Elec       q    Type
REMARK                         _______ _______ _______ _____ _____    ______ ____
ROOT
ATOM      1  C   UNL     1       0.059   0.884  -2.717  0.00  0.00    +0.170 C 
ATOM      2  N   UNL     1       1.059   0.125  -2.359  0.00  0.00    -0.225 NA
ATOM      3  C   UNL     1       1.824  -0.537  -3.264  0.00  0.00    +0.077 A 
ATOM      4  C   UNL     1       2.886  -1.349  -2.861  0.00  0.00    +0.028 A 
ATOM      5  C   UNL     1       3.644  -2.002  -3.808  0.00  0.00    +0.002 A 
ATOM      6  C   UNL     1       3.365  -1.864  -5.160  0.00  0.00    +0.001 A 
ATOM      7  C   UNL     1       2.321  -1.067  -5.581  0.00  0.00    +0.013 A 
ATOM      8  C   UNL     1       1.545  -0.400  -4.639  0.00  0.00    +0.041 A 
ATOM      9  C   UNL     1       0.415   0.466  -5.043  0.00  0.00    +0.139 C 
ATOM     10  N   UNL     1      -0.044   0.756  -6.228  0.00  0.00    -0.250 NA
ATOM     11  C   UNL     1      -1.186   1.666  -6.057  0.00  0.00    +0.224 C 
ATOM     12  C   UNL     1      -1.294   1.840  -4.557  0.00  0.00    +0.256 C 
ATOM     13  O   UNL     1      -2.101   2.513  -3.953  0.00  0.00    -0.272 OA
ATOM     14  N   UNL     1      -0.299   1.088  -4.033  0.00  0.00    -0.200 N 
ENDROOT
BRANCH  11  15
ATOM     15  C   UNL     1      -0.912   2.989  -6.724  0.00  0.00    -0.014 A 
ATOM     16  C   UNL     1       0.370   3.505  -6.735  0.00  0.00    +0.006 A 
ATOM     17  C   UNL     1       0.622   4.717  -7.351  0.00  0.00    +0.000 A 
ATOM     18  C   UNL     1      -0.409   5.416  -7.949  0.00  0.00    +0.000 A 
ATOM     19  C   UNL     1      -1.693   4.902  -7.933  0.00  0.00    +0.000 A 
ATOM     20  C   UNL     1      -1.944   3.689  -7.321  0.00  0.00    +0.006 A 
ENDBRANCH  11  15
BRANCH   1  21
ATOM     21  S   UNL     1      -0.872   1.693  -1.458  0.00  0.00    -0.077 S 
BRANCH  21  22
ATOM     22  C   UNL     1      -0.001   1.095   0.011  0.00  0.00    +0.137 C 
ATOM     23  C   UNL     1       1.432   1.632   0.009  0.00  0.00    +0.029 C 
BRANCH  22  25
ATOM     24  N   UNL     1      -0.515   0.950   2.426  0.00  0.00    -0.284 N 
ATOM     25  C   UNL     1      -0.715   1.574   1.248  0.00  0.00    +0.230 C 
ATOM     26  O   UNL     1      -1.470   2.521   1.184  0.00  0.00    -0.274 OA
ATOM     27  H   UNL     1       0.097   0.037   2.468  0.00  0.00    +0.155 HD
BRANCH  24  34
ATOM     28  C   UNL     1      -1.009  -0.844   4.580  0.00  0.00    +0.045 C 
ATOM     29  C   UNL     1      -1.345   0.623   4.671  0.00  0.00    -0.029 A 
ATOM     30  C   UNL     1      -1.903   1.134   5.826  0.00  0.00    +0.005 A 
ATOM     31  C   UNL     1      -2.216   2.478   5.909  0.00  0.00    +0.000 A 
ATOM     32  C   UNL     1      -1.966   3.316   4.837  0.00  0.00    +0.002 A 
ATOM     33  C   UNL     1      -1.402   2.813   3.682  0.00  0.00    +0.023 A 
ATOM     34  C   UNL     1      -1.087   1.463   3.596  0.00  0.00    +0.036 A 
ENDBRANCH  24  34
ENDBRANCH  22  25
ENDBRANCH  21  22
ENDBRANCH   1  21
TORSDOF 5
