REMARK  Name = ZINC14948960
REMARK  6 active torsions:
REMARK  status: ('A' for Active; 'I' for Inactive)
REMARK    1  A    between atoms: C_6  and  C_7
REMARK    2  A    between atoms: C_17  and  C_19
REMARK    3  A    between atoms: C_19  and  C_20
REMARK    4  A    between atoms: C_20  and  C_22
REMARK    5  A    between atoms: C_20  and  N_31
REMARK    6  A    between atoms: C_22  and  C_23
REMARK                            x       y       z     vdW  Elec       q    Type
REMARK                         _______ _______ _______ _____ _____    ______ ____
ROOT
ATOM      1  C   UNL     1      -1.268  -0.764   0.011  0.00  0.00    +0.071 A 
ATOM      2  C   UNL     1      -1.571  -1.837  -0.765  0.00  0.00    +0.018 A 
ATOM      3  C   UNL     1      -2.868  -2.256  -0.442  0.00  0.00    +0.070 A 
ATOM      4  N   UNL     1      -3.335  -1.471   0.488  0.00  0.00    -0.178 NA
ATOM      5  H   UNL     1      -2.430   0.183   1.466  0.00  0.00    +0.189 HD
ATOM      6  N   UNL     1      -2.352  -0.521   0.804  0.00  0.00    -0.276 N 
ATOM      7  C   UNL     1      -3.557  -3.432  -1.092  0.00  0.00    +0.076 C 
ATOM      8  C   UNL     1      -2.831  -3.764  -2.401  0.00  0.00    +0.114 C 
ATOM      9  N   UNL     1      -1.381  -3.775  -2.168  0.00  0.00    -0.297 N 
ATOM     10  C   UNL     1      -0.714  -2.509  -1.811  0.00  0.00    +0.146 C 
ATOM     11  C   UNL     1      -0.674  -4.917  -2.278  0.00  0.00    +0.214 C 
ATOM     12  O   UNL     1       0.523  -4.911  -2.082  0.00  0.00    -0.276 OA
ENDROOT
BRANCH   1  18
ATOM     13  C   UNL     1      -0.017   1.391   0.010  0.00  0.00    +0.013 A 
ATOM     14  C   UNL     1       1.170   2.094   0.002  0.00  0.00    +0.039 A 
ATOM     15  C   UNL     1       2.379   1.418  -0.013  0.00  0.00    +0.123 A 
ATOM     16  C   UNL     1       2.403   0.033  -0.021  0.00  0.00    +0.039 A 
ATOM     17  C   UNL     1       1.222  -0.680  -0.014  0.00  0.00    +0.013 A 
ATOM     18  C   UNL     1       0.002  -0.004   0.002  0.00  0.00    +0.000 A 
ATOM     19  F   UNL     1       3.538   2.112  -0.020  0.00  0.00    -0.205 F 
ENDBRANCH   1  18
BRANCH  11  20
ATOM     20  C   UNL     1      -1.371  -6.202  -2.643  0.00  0.00    +0.080 C 
BRANCH  20  21
ATOM     21  C   UNL     1      -0.349  -7.339  -2.701  0.00  0.00    -0.062 C 
BRANCH  21  22
ATOM     22  N   UNL     1       0.601  -7.088  -3.792  0.00  0.00    +0.381 N 
ATOM     23  H   UNL     1       1.276  -7.838  -3.830  0.00  0.00    -0.090 HD
ATOM     24  H   UNL     1       0.103  -7.040  -4.668  0.00  0.00    -0.090 HD
ATOM     25  H   UNL     1       1.079  -6.214  -3.629  0.00  0.00    -0.090 HD
ENDBRANCH  21  22
BRANCH  21  26
ATOM     26  C   UNL     1      -1.073  -8.664  -2.949  0.00  0.00    +0.022 C 
BRANCH  26  27
ATOM     27  C   UNL     1      -0.082  -9.797  -2.883  0.00  0.00    -0.011 A 
ATOM     28  C   UNL     1       0.502 -10.273  -4.042  0.00  0.00    +0.044 A 
ATOM     29  C   UNL     1       1.412 -11.314  -3.982  0.00  0.00    +0.124 A 
ATOM     30  C   UNL     1       1.738 -11.879  -2.760  0.00  0.00    +0.041 A 
ATOM     31  C   UNL     1       1.154 -11.404  -1.602  0.00  0.00    +0.041 A 
ATOM     32  C   UNL     1       0.247 -10.359  -1.662  0.00  0.00    +0.127 A 
ATOM     33  F   UNL     1      -0.320  -9.891  -0.528  0.00  0.00    -0.205 F 
ATOM     34  F   UNL     1       1.983 -11.779  -5.115  0.00  0.00    -0.205 F 
ENDBRANCH  26  27
ENDBRANCH  21  26
ENDBRANCH  20  21
ENDBRANCH  11  20
TORSDOF 6
