REMARK  Name = ZINC16009796
REMARK  5 active torsions:
REMARK  status: ('A' for Active; 'I' for Inactive)
REMARK    1  A    between atoms: C_1  and  C_2
REMARK    2  A    between atoms: C_16  and  C_19
REMARK    3  A    between atoms: C_19  and  C_20
REMARK    4  A    between atoms: N_25  and  C_28
REMARK    5  A    between atoms: C_28  and  C_29
REMARK                            x       y       z     vdW  Elec       q    Type
REMARK                         _______ _______ _______ _____ _____    ______ ____
ROOT
ATOM      1  C   UNL     1      -0.214   1.484  -0.097  0.00  0.00    +0.046 C 
ATOM      2  C   UNL     1      -0.155  -0.022  -0.083  0.00  0.00    -0.028 A 
ATOM      3  C   UNL     1      -0.153  -0.721  -1.273  0.00  0.00    +0.025 A 
ATOM      4  C   UNL     1      -0.100  -2.103  -1.270  0.00  0.00    +0.042 A 
ATOM      5  C   UNL     1      -0.049  -2.788  -0.067  0.00  0.00    +0.027 A 
ATOM      6  C   UNL     1      -0.051  -2.094   1.121  0.00  0.00    +0.005 A 
ATOM      7  C   UNL     1      -0.099  -0.703   1.130  0.00  0.00    +0.042 A 
ATOM      8  N   UNL     1      -0.084  -0.227   2.444  0.00  0.00    -0.283 N 
ATOM      9  C   UNL     1      -0.022  -1.226   3.345  0.00  0.00    +0.243 C 
ATOM     10  O   UNL     1       0.003  -1.113   4.552  0.00  0.00    -0.273 OA
ATOM     11  C   UNL     1      -0.004  -2.512   2.564  0.00  0.00    +0.136 C 
ATOM     12  C   UNL     1      -1.184  -3.421   2.926  0.00  0.00    +0.122 C 
ATOM     13  C   UNL     1      -0.598  -4.438   3.945  0.00  0.00    +0.107 C 
ATOM     14  C   UNL     1       0.884  -4.033   4.099  0.00  0.00    +0.076 C 
ATOM     15  N   UNL     1       1.213  -3.290   2.861  0.00  0.00    -0.295 NA
ATOM     16  C   UNL     1      -1.348  -4.125   5.220  0.00  0.00    +0.227 C 
ATOM     17  O   UNL     1      -1.197  -4.695   6.279  0.00  0.00    -0.275 OA
ATOM     18  N   UNL     1      -2.202  -3.119   4.998  0.00  0.00    -0.237 N 
ATOM     19  C   UNL     1      -2.200  -2.644   3.732  0.00  0.00    +0.229 C 
ATOM     20  O   UNL     1      -2.892  -1.744   3.306  0.00  0.00    -0.275 OA
ATOM     21 CL   UNL     1      -0.098  -2.977  -2.770  0.00  0.00    -0.084 Cl
ATOM     22  H   UNL     1      -0.115   0.713   2.680  0.00  0.00    +0.155 HD
ATOM     23  H   UNL     1       1.425  -3.931   2.112  0.00  0.00    +0.124 HD
ENDROOT
BRANCH  14  24
ATOM     24  C   UNL     1       1.763  -5.277   4.245  0.00  0.00    +0.115 C 
BRANCH  24  25
ATOM     25  C   UNL     1       3.185  -4.858   4.516  0.00  0.00    +0.212 C 
ATOM     26  O   UNL     1       3.467  -3.680   4.586  0.00  0.00    -0.276 OA
ATOM     27  N   UNL     1       4.143  -5.792   4.681  0.00  0.00    -0.329 N 
ATOM     28  H   UNL     1       3.917  -6.733   4.625  0.00  0.00    +0.145 HD
ATOM     29  H   UNL     1       5.058  -5.522   4.856  0.00  0.00    +0.145 HD
ENDBRANCH  24  25
ENDBRANCH  14  24
BRANCH  18  30
ATOM     30  C   UNL     1      -3.079  -2.579   6.041  0.00  0.00    +0.153 C 
BRANCH  30  31
ATOM     31  C   UNL     1      -2.317  -1.575   6.866  0.00  0.00    -0.011 A 
ATOM     32  C   UNL     1      -1.708  -1.966   8.044  0.00  0.00    +0.006 A 
ATOM     33  C   UNL     1      -1.010  -1.044   8.801  0.00  0.00    +0.000 A 
ATOM     34  C   UNL     1      -0.919   0.270   8.380  0.00  0.00    +0.001 A 
ATOM     35  C   UNL     1      -1.527   0.662   7.203  0.00  0.00    +0.020 A 
ATOM     36  C   UNL     1      -2.221  -0.261   6.442  0.00  0.00    +0.046 A 
ATOM     37 CL   UNL     1      -2.980   0.230   4.959  0.00  0.00    -0.083 Cl
ENDBRANCH  30  31
ENDBRANCH  18  30
TORSDOF 4
