REMARK  Name = ZINC39696873
REMARK  10 active torsions:
REMARK  status: ('A' for Active; 'I' for Inactive)
REMARK    1  A    between atoms: C_1  and  C_2
REMARK    2  A    between atoms: C_2  and  C_3
REMARK    3  A    between atoms: C_2  and  C_4
REMARK    4  A    between atoms: C_4  and  C_6
REMARK    5  A    between atoms: C_4  and  O_31
REMARK    6  A    between atoms: C_10  and  C_19
REMARK    7  A    between atoms: N_21  and  C_22
REMARK    8  A    between atoms: C_22  and  C_23
REMARK    9  A    between atoms: N_26  and  C_30
REMARK   10  A    between atoms: O_31  and  C_32
REMARK                            x       y       z     vdW  Elec       q    Type
REMARK                         _______ _______ _______ _____ _____    ______ ____
ROOT
ATOM      1  C   UNL     1       0.826  -1.578   0.867  0.00  0.00    +0.257 C 
ATOM      2  O   UNL     1       0.249  -2.368   1.584  0.00  0.00    -0.272 OA
ATOM      3  N   UNL     1       1.617  -2.024  -0.129  0.00  0.00    -0.297 N 
ATOM      4  C   UNL     1       2.489  -1.227  -1.023  0.00  0.00    +0.121 C 
ATOM      5  C   UNL     1       3.766  -2.081  -1.187  0.00  0.00    +0.100 C 
ATOM      6  C   UNL     1       3.315  -3.521  -0.894  0.00  0.00    -0.004 C 
ATOM      7  C   UNL     1       1.816  -3.425  -0.572  0.00  0.00    +0.115 C 
ATOM      8  C   UNL     1       4.071  -4.079   0.308  0.00  0.00    -0.010 C 
ATOM      9  C   UNL     1       3.647  -5.531   0.543  0.00  0.00    -0.082 C 
ATOM     10  N   UNL     1       3.937  -6.328  -0.655  0.00  0.00    +0.379 N 
ATOM     11  C   UNL     1       3.135  -5.843  -1.785  0.00  0.00    -0.082 C 
ATOM     12  C   UNL     1       3.537  -4.404  -2.119  0.00  0.00    -0.010 C 
ATOM     13  H   UNL     1       4.917  -6.248  -0.881  0.00  0.00    -0.086 HD
ATOM     14  H   UNL     1       3.713  -7.295  -0.476  0.00  0.00    -0.086 HD
ENDROOT
BRANCH   5  15
ATOM     15  C   UNL     1       4.295  -1.969  -2.593  0.00  0.00    +0.218 C 
ATOM     16  O   UNL     1       3.540  -1.710  -3.506  0.00  0.00    -0.275 OA
ATOM     17  N   UNL     1       5.607  -2.158  -2.837  0.00  0.00    -0.313 N 
ATOM     18  H   UNL     1       6.211  -2.365  -2.107  0.00  0.00    +0.149 HD
BRANCH  17  19
ATOM     19  C   UNL     1       6.121  -2.049  -4.204  0.00  0.00    +0.137 C 
BRANCH  19  20
ATOM     20  C   UNL     1       7.629  -2.306  -4.204  0.00  0.00    +0.149 C 
ATOM     21  C   UNL     1       8.188  -2.073  -5.610  0.00  0.00    +0.117 C 
ATOM     22  N   UNL     1       9.622  -2.395  -5.622  0.00  0.00    -0.301 NA
ATOM     23  C   UNL     1       9.846  -3.790  -5.215  0.00  0.00    +0.112 C 
ATOM     24  C   UNL     1       9.271  -4.006  -3.813  0.00  0.00    +0.175 C 
ATOM     25  O   UNL     1       7.884  -3.658  -3.812  0.00  0.00    -0.372 OA
ATOM     26  C   UNL     1      10.211  -2.131  -6.941  0.00  0.00    +0.105 C 
ENDBRANCH  19  20
ENDBRANCH  17  19
ENDBRANCH   5  15
BRANCH   1  27
ATOM     27  C   UNL     1       0.658  -0.097   1.090  0.00  0.00    +0.261 C 
BRANCH  27  29
ATOM     28  C   UNL     1      -0.544   1.956   0.327  0.00  0.00    +0.011 C 
ATOM     29  C   UNL     1      -0.414   0.443   0.141  0.00  0.00    +0.033 C 
ATOM     30  C   UNL     1      -0.015   0.139  -1.304  0.00  0.00    +0.011 C 
ENDBRANCH  27  29
BRANCH  27  31
ATOM     31  O   UNL     1       0.260   0.139   2.442  0.00  0.00    -0.479 OA
BRANCH  31  32
ATOM     32  C   UNL     1       0.842   1.187   3.083  0.00  0.00    +0.122 A 
ATOM     33  C   UNL     1       0.599   1.398   4.432  0.00  0.00    +0.045 A 
ATOM     34  C   UNL     1       1.193   2.464   5.081  0.00  0.00    +0.004 A 
ATOM     35  C   UNL     1       2.028   3.319   4.386  0.00  0.00    +0.000 A 
ATOM     36  C   UNL     1       2.271   3.111   3.041  0.00  0.00    +0.004 A 
ATOM     37  C   UNL     1       1.685   2.043   2.389  0.00  0.00    +0.045 A 
ENDBRANCH  31  32
ENDBRANCH  27  31
ENDBRANCH   1  27
TORSDOF 7
