REMARK  Name = ZINC63038826
REMARK  8 active torsions:
REMARK  status: ('A' for Active; 'I' for Inactive)
REMARK    1  A    between atoms: C_1  and  C_2
REMARK    2  A    between atoms: C_2  and  C_3
REMARK    3  A    between atoms: C_2  and  C_4
REMARK    4  A    between atoms: C_2  and  C_5
REMARK    5  A    between atoms: C_5  and  C_7
REMARK    6  A    between atoms: C_5  and  O_22
REMARK    7  A    between atoms: C_7  and  C_8
REMARK    8  A    between atoms: C_17  and  N_18
REMARK                            x       y       z     vdW  Elec       q    Type
REMARK                         _______ _______ _______ _____ _____    ______ ____
ROOT
ATOM      1  C   UNL     1       3.031  -0.211  -2.525  0.00  0.00    -0.004 A 
ATOM      2  C   UNL     1       3.808  -1.381  -2.618  0.00  0.00    +0.007 A 
ATOM      3  C   UNL     1       4.208  -2.087  -1.472  0.00  0.00    +0.025 A 
ATOM      4  C   UNL     1       4.959  -3.216  -1.604  0.00  0.00    +0.019 A 
ATOM      5  C   UNL     1       5.338  -3.679  -2.864  0.00  0.00    +0.017 A 
ATOM      6  C   UNL     1       4.968  -3.019  -3.995  0.00  0.00    +0.029 A 
ATOM      7  C   UNL     1       4.192  -1.851  -3.899  0.00  0.00    +0.071 A 
ATOM      8  N   UNL     1       3.812  -1.183  -4.993  0.00  0.00    -0.253 NA
ATOM      9  C   UNL     1       3.088  -0.094  -4.910  0.00  0.00    +0.144 A 
ATOM     10  C   UNL     1       2.675   0.420  -3.682  0.00  0.00    +0.148 A 
ATOM     11 BR   UNL     1       5.497  -4.165  -0.060  0.00  0.00    -0.050 Br
ENDROOT
BRANCH  10  12
ATOM     12  N   UNL     1       1.853   1.650  -3.632  0.00  0.00    +0.058 N 
ATOM     13  O   UNL     1       0.971   1.755  -2.812  0.00  0.00    -0.126 OA
ATOM     14  O   UNL     1       2.064   2.550  -4.412  0.00  0.00    -0.126 OA
ENDBRANCH  10  12
BRANCH   1  15
ATOM     15  C   UNL     1       2.599   0.326  -1.185  0.00  0.00    +0.070 C 
BRANCH  15  16
ATOM     16  C   UNL     1       1.248  -0.282  -0.803  0.00  0.00    +0.124 C 
BRANCH  16  18
ATOM     17  C   UNL     1       0.591   1.864   0.295  0.00  0.00    +0.013 C 
ATOM     18  C   UNL     1       0.750   0.355   0.496  0.00  0.00    -0.011 C 
ATOM     19  C   UNL     1       1.762   0.093   1.613  0.00  0.00    +0.013 C 
ATOM     20  C   UNL     1      -0.601  -0.253   0.878  0.00  0.00    +0.013 C 
ENDBRANCH  16  18
BRANCH  16  21
ATOM     21  O   UNL     1       1.396  -1.691  -0.615  0.00  0.00    -0.391 OA
ATOM     22  H   UNL     1       2.024  -1.932   0.080  0.00  0.00    +0.210 HD
ENDBRANCH  16  21
ENDBRANCH  15  16
ENDBRANCH   1  15
TORSDOF 5
