REMARK  Name = ZINC32104146
REMARK  5 active torsions:
REMARK  status: ('A' for Active; 'I' for Inactive)
REMARK    1  A    between atoms: C_4  and  C_7
REMARK    2  A    between atoms: C_11  and  C_12
REMARK    3  A    between atoms: C_17  and  O_19
REMARK    4  A    between atoms: N_26  and  C_29
REMARK    5  A    between atoms: C_29  and  C_30
REMARK                            x       y       z     vdW  Elec       q    Type
REMARK                         _______ _______ _______ _____ _____    ______ ____
ROOT
ATOM      1  C   UNL     1       3.696  -0.685  -0.038  0.00  0.00    +0.029 A 
ATOM      2  C   UNL     1       4.091  -1.473  -1.123  0.00  0.00    +0.087 A 
ATOM      3  C   UNL     1       5.326  -2.099  -1.013  0.00  0.00    +0.036 A 
ATOM      4  S   UNL     1       5.936  -1.652   0.468  0.00  0.00    -0.082 S 
ATOM      5  C   UNL     1       4.599  -0.612   1.028  0.00  0.00    +0.110 A 
ATOM      6  C   UNL     1       5.906  -2.984  -2.068  0.00  0.00    +0.115 C 
ATOM      7  C   UNL     1       4.758  -3.626  -2.849  0.00  0.00    +0.121 C 
ATOM      8  C   UNL     1       3.655  -2.636  -3.088  0.00  0.00    +0.189 C 
ATOM      9  N   UNL     1       3.353  -1.669  -2.287  0.00  0.00    -0.216 NA
ATOM     10  C   UNL     1       6.820  -2.230  -2.980  0.00  0.00    -0.006 A 
ATOM     11  C   UNL     1       6.599  -1.152  -3.810  0.00  0.00    +0.007 A 
ATOM     12  C   UNL     1       7.688  -0.682  -4.536  0.00  0.00    +0.000 A 
ATOM     13  C   UNL     1       8.932  -1.271  -4.429  0.00  0.00    +0.002 A 
ATOM     14  C   UNL     1       9.161  -2.356  -3.597  0.00  0.00    +0.024 A 
ATOM     15  C   UNL     1       8.076  -2.838  -2.863  0.00  0.00    +0.041 A 
ATOM     16  N   UNL     1       8.019  -3.893  -1.969  0.00  0.00    -0.261 N 
ATOM     17  C   UNL     1       6.781  -4.053  -1.454  0.00  0.00    +0.236 C 
ATOM     18  O   UNL     1       6.437  -4.894  -0.651  0.00  0.00    -0.274 OA
ENDROOT
BRANCH   1  22
ATOM     19  C   UNL     1      -0.017   1.379   0.010  0.00  0.00    +0.000 A 
ATOM     20  C   UNL     1       1.168   2.093   0.002  0.00  0.00    +0.001 A 
ATOM     21  C   UNL     1       2.377   1.429  -0.013  0.00  0.00    +0.008 A 
ATOM     22  C   UNL     1       2.403   0.034  -0.021  0.00  0.00    -0.015 A 
ATOM     23  C   UNL     1       1.204  -0.680  -0.013  0.00  0.00    +0.008 A 
ATOM     24  C   UNL     1       0.002  -0.004   0.002  0.00  0.00    +0.001 A 
ENDBRANCH   1  22
BRANCH   5  25
ATOM     25  C   UNL     1       4.480   0.102   2.243  0.00  0.00    +0.394 C 
ATOM     26  O   UNL     1       3.478   0.772   2.464  0.00  0.00    -0.240 OA
ATOM     27  O   UNL     1       5.379   0.051   3.074  0.00  0.00    -0.240 OA
ENDBRANCH   5  25
BRANCH   8  28
ATOM     28  O   UNL     1       2.927  -2.765  -4.218  0.00  0.00    -0.495 OA
ATOM     29  H   UNL     1       2.232  -2.100  -4.317  0.00  0.00    +0.293 HD
ENDBRANCH   8  28
BRANCH  16  30
ATOM     30  C   UNL     1       9.165  -4.737  -1.623  0.00  0.00    +0.209 C 
BRANCH  30  31
ATOM     31  C   UNL     1       9.888  -4.143  -0.441  0.00  0.00    +0.228 C 
ATOM     32  O   UNL     1       9.485  -3.116   0.063  0.00  0.00    -0.274 OA
ATOM     33  N   UNL     1      10.982  -4.753   0.056  0.00  0.00    -0.328 N 
ATOM     34  H   UNL     1      11.304  -5.575  -0.347  0.00  0.00    +0.145 HD
ATOM     35  H   UNL     1      11.447  -4.371   0.817  0.00  0.00    +0.145 HD
ENDBRANCH  30  31
ENDBRANCH  16  30
TORSDOF 5
