REMARK  Name = ZINC33721648
REMARK  11 active torsions:
REMARK  status: ('A' for Active; 'I' for Inactive)
REMARK    1  A    between atoms: C_1  and  C_2
REMARK    2  A    between atoms: C_2  and  C_4
REMARK    3  A    between atoms: C_2  and  N_21
REMARK    4  A    between atoms: N_14  and  C_15
REMARK    5  A    between atoms: N_21  and  C_22
REMARK    6  A    between atoms: C_22  and  C_23
REMARK    7  A    between atoms: C_23  and  C_24
REMARK    8  A    between atoms: C_24  and  C_25
REMARK    9  A    between atoms: C_24  and  C_26
REMARK   10  A    between atoms: N_29  and  C_30
REMARK   11  A    between atoms: C_33  and  N_36
REMARK                            x       y       z     vdW  Elec       q    Type
REMARK                         _______ _______ _______ _____ _____    ______ ____
ROOT
ATOM      1  C   UNL     1      -0.534   1.487   0.072  0.00  0.00    +0.036 C 
ATOM      2  C   UNL     1      -0.483  -0.042   0.102  0.00  0.00    +0.141 C 
ENDROOT
BRANCH   2   3
ATOM      3  C   UNL     1       0.110  -0.550  -1.187  0.00  0.00    +0.138 A 
ATOM      4  N   UNL     1       0.171   0.262  -2.199  0.00  0.00    -0.231 NA
ATOM      5  C   UNL     1       0.692  -0.125  -3.390  0.00  0.00    +0.078 A 
ATOM      6  C   UNL     1       0.758   0.747  -4.479  0.00  0.00    +0.028 A 
ATOM      7  C   UNL     1       1.295   0.313  -5.670  0.00  0.00    +0.002 A 
ATOM      8  C   UNL     1       1.772  -0.985  -5.803  0.00  0.00    +0.001 A 
ATOM      9  C   UNL     1       1.717  -1.864  -4.745  0.00  0.00    +0.015 A 
ATOM     10  C   UNL     1       1.179  -1.444  -3.530  0.00  0.00    +0.065 A 
ATOM     11  C   UNL     1       1.095  -2.338  -2.366  0.00  0.00    +0.266 A 
ATOM     12  O   UNL     1       1.496  -3.486  -2.420  0.00  0.00    -0.267 OA
ATOM     13  N   UNL     1       0.559  -1.833  -1.230  0.00  0.00    -0.263 N 
BRANCH  13  14
ATOM     14  C   UNL     1       0.461  -2.641  -0.090  0.00  0.00    +0.051 A 
ATOM     15  C   UNL     1      -0.427  -3.709  -0.069  0.00  0.00    +0.026 A 
ATOM     16  C   UNL     1      -0.521  -4.504   1.057  0.00  0.00    +0.002 A 
ATOM     17  C   UNL     1       0.268  -4.238   2.161  0.00  0.00    +0.000 A 
ATOM     18  C   UNL     1       1.153  -3.176   2.142  0.00  0.00    +0.002 A 
ATOM     19  C   UNL     1       1.256  -2.380   1.018  0.00  0.00    +0.026 A 
ENDBRANCH  13  14
ENDBRANCH   2   3
BRANCH   2  20
ATOM     20  N   UNL     1      -1.839  -0.573   0.258  0.00  0.00    -0.276 N 
ATOM     21  C   UNL     1      -2.177  -1.240   1.379  0.00  0.00    +0.307 C 
ATOM     22  O   UNL     1      -1.356  -1.402   2.260  0.00  0.00    -0.252 OA
ATOM     23  N   UNL     1      -3.425  -1.729   1.522  0.00  0.00    -0.269 N 
ATOM     24  H   UNL     1      -4.055  -1.673   0.787  0.00  0.00    +0.156 HD
BRANCH  23  25
ATOM     25  C   UNL     1      -3.812  -2.316   2.732  0.00  0.00    +0.035 A 
ATOM     26  C   UNL     1      -3.306  -1.835   3.932  0.00  0.00    +0.025 A 
ATOM     27  C   UNL     1      -3.690  -2.417   5.125  0.00  0.00    +0.034 A 
ATOM     28  C   UNL     1      -4.577  -3.478   5.124  0.00  0.00    +0.126 A 
ATOM     29  C   UNL     1      -5.082  -3.960   3.930  0.00  0.00    +0.034 A 
ATOM     30  C   UNL     1      -4.706  -3.379   2.735  0.00  0.00    +0.025 A 
BRANCH  28  31
ATOM     31  N   UNL     1      -4.987  -4.099   6.404  0.00  0.00    +0.056 N 
ATOM     32  O   UNL     1      -4.546  -3.678   7.448  0.00  0.00    -0.126 OA
ATOM     33  O   UNL     1      -5.762  -5.026   6.404  0.00  0.00    -0.126 OA
ENDBRANCH  28  31
ENDBRANCH  23  25
BRANCH  20  34
ATOM     34  C   UNL     1      -2.829  -0.378  -0.805  0.00  0.00    +0.110 C 
BRANCH  34  35
ATOM     35  C   UNL     1      -2.861  -1.614  -1.705  0.00  0.00    +0.022 C 
BRANCH  35  36
ATOM     36  C   UNL     1      -3.818  -1.370  -2.873  0.00  0.00    -0.016 C 
ATOM     37  C   UNL     1      -3.273  -0.243  -3.753  0.00  0.00    +0.007 C 
ATOM     38  C   UNL     1      -3.946  -2.649  -3.704  0.00  0.00    +0.007 C 
ENDBRANCH  35  36
ENDBRANCH  34  35
ENDBRANCH  20  34
ENDBRANCH   2  20
TORSDOF 8
