REMARK  Name = ZINC35867127
REMARK  7 active torsions:
REMARK  status: ('A' for Active; 'I' for Inactive)
REMARK    1  A    between atoms: C_1  and  C_2
REMARK    2  A    between atoms: C_2  and  C_3
REMARK    3  A    between atoms: C_3  and  C_4
REMARK    4  A    between atoms: C_4  and  C_5
REMARK    5  A    between atoms: N_26  and  C_27
REMARK    6  A    between atoms: C_30  and  C_33
REMARK    7  A    between atoms: C_33  and  C_34
REMARK                            x       y       z     vdW  Elec       q    Type
REMARK                         _______ _______ _______ _____ _____    ______ ____
ROOT
ATOM      1  C   UNL     1       1.211  -4.584   2.578  0.00  0.00    +0.132 A 
ATOM      2  N   UNL     1       2.529  -4.680   2.581  0.00  0.00    -0.217 NA
ATOM      3  C   UNL     1       3.297  -3.813   3.222  0.00  0.00    +0.133 A 
ATOM      4  C   UNL     1       2.688  -2.741   3.931  0.00  0.00    +0.051 A 
ATOM      5  C   UNL     1       3.326  -1.674   4.704  0.00  0.00    -0.025 A 
ATOM      6  C   UNL     1       2.512  -0.769   5.285  0.00  0.00    -0.004 A 
ATOM      7  S   UNL     1       0.870  -1.274   4.845  0.00  0.00    -0.073 S 
ATOM      8  C   UNL     1       1.280  -2.704   3.880  0.00  0.00    +0.114 A 
ATOM      9  N   UNL     1       0.590  -3.608   3.212  0.00  0.00    -0.225 NA
ATOM     10  C   UNL     1       2.913   0.407   6.123  0.00  0.00    +0.043 C 
ATOM     11  C   UNL     1       4.380   0.227   6.539  0.00  0.00    +0.005 C 
ATOM     12  C   UNL     1       5.198  -0.153   5.301  0.00  0.00    +0.005 C 
ATOM     13  C   UNL     1       4.841  -1.572   4.859  0.00  0.00    +0.037 C 
ATOM     14  N   UNL     1       4.673  -3.948   3.202  0.00  0.00    -0.312 N 
ATOM     15  C   UNL     1       5.375  -4.615   4.307  0.00  0.00    +0.125 C 
ATOM     16  C   UNL     1       6.222  -5.757   3.732  0.00  0.00    +0.128 C 
ATOM     17  N   UNL     1       7.009  -5.237   2.605  0.00  0.00    -0.282 N 
ATOM     18  C   UNL     1       6.307  -4.570   1.500  0.00  0.00    +0.128 C 
ATOM     19  C   UNL     1       5.459  -3.433   2.072  0.00  0.00    +0.125 C 
ATOM     20  C   UNL     1       8.350  -5.369   2.586  0.00  0.00    +0.307 C 
ATOM     21  O   UNL     1       8.908  -6.033   3.438  0.00  0.00    -0.252 OA
ATOM     22  N   UNL     1       9.072  -4.764   1.622  0.00  0.00    -0.269 N 
ATOM     23  H   UNL     1       8.649  -4.128   1.025  0.00  0.00    +0.156 HD
ENDROOT
BRANCH  22  24
ATOM     24  C   UNL     1      10.435  -5.053   1.484  0.00  0.00    +0.035 A 
ATOM     25  C   UNL     1      11.160  -5.523   2.571  0.00  0.00    +0.023 A 
ATOM     26  C   UNL     1      12.504  -5.808   2.430  0.00  0.00    +0.005 A 
ATOM     27  C   UNL     1      13.128  -5.626   1.210  0.00  0.00    -0.048 A 
ATOM     28  C   UNL     1      12.408  -5.158   0.125  0.00  0.00    +0.005 A 
ATOM     29  C   UNL     1      11.062  -4.877   0.258  0.00  0.00    +0.023 A 
BRANCH  27  30
ATOM     30  C   UNL     1      14.595  -5.938   1.060  0.00  0.00    +0.032 C 
ATOM     31  C   UNL     1      14.765  -7.400   0.641  0.00  0.00    +0.009 C 
ENDBRANCH  27  30
ENDBRANCH  22  24
BRANCH   1  32
ATOM     32  C   UNL     1       0.400  -5.609   1.827  0.00  0.00    +0.076 C 
BRANCH  32  33
ATOM     33  C   UNL     1       0.194  -5.139   0.385  0.00  0.00    +0.007 C 
BRANCH  33  35
ATOM     34  C   UNL     1      -0.835  -5.710  -1.819  0.00  0.00    +0.004 C 
ATOM     35  C   UNL     1      -0.629  -6.179  -0.377  0.00  0.00    -0.003 C 
ENDBRANCH  33  35
ENDBRANCH  32  33
ENDBRANCH   1  32
TORSDOF 5
