REMARK  Name = ZINC53112798
REMARK  6 active torsions:
REMARK  status: ('A' for Active; 'I' for Inactive)
REMARK    1  A    between atoms: C_3  and  S_9
REMARK    2  A    between atoms: C_4  and  N_8
REMARK    3  A    between atoms: S_9  and  N_12
REMARK    4  A    between atoms: N_12  and  C_13
REMARK    5  A    between atoms: C_13  and  C_19
REMARK    6  A    between atoms: C_19  and  O_20
REMARK                            x       y       z     vdW  Elec       q    Type
REMARK                         _______ _______ _______ _____ _____    ______ ____
ROOT
ATOM      1  S   UNL     1       3.254   2.397   0.645  0.00  0.00    +0.061 S 
ATOM      2  O   UNL     1       3.178   3.759   1.044  0.00  0.00    -0.153 OA
ATOM      3  O   UNL     1       2.123   1.537   0.647  0.00  0.00    -0.153 OA
ENDROOT
BRANCH   1   6
ATOM      4  C   UNL     1       3.784   1.606  -3.259  0.00  0.00    +0.017 A 
ATOM      5  C   UNL     1       3.287   1.613  -1.969  0.00  0.00    +0.031 A 
ATOM      6  C   UNL     1       3.890   2.389  -0.998  0.00  0.00    +0.126 A 
ATOM      7  C   UNL     1       4.998   3.163  -1.319  0.00  0.00    +0.052 A 
ATOM      8  C   UNL     1       5.495   3.155  -2.616  0.00  0.00    +0.040 A 
ATOM      9  C   UNL     1       4.887   2.376  -3.582  0.00  0.00    +0.020 A 
ATOM     10 BR   UNL     1       5.563   2.363  -5.348  0.00  0.00    -0.050 Br
BRANCH   7  11
ATOM     11  N   UNL     1       5.610   3.949  -0.340  0.00  0.00    -0.356 N 
ATOM     12  H   UNL     1       5.314   3.892   0.582  0.00  0.00    +0.142 HD
ATOM     13  H   UNL     1       6.330   4.552  -0.582  0.00  0.00    +0.142 HD
ENDBRANCH   7  11
ENDBRANCH   1   6
BRANCH   1  14
ATOM     14  N   UNL     1       4.393   1.684   1.614  0.00  0.00    -0.182 NA
ATOM     15  H   UNL     1       4.793   2.185   2.341  0.00  0.00    +0.149 HD
BRANCH  14  16
ATOM     16  C   UNL     1       4.794   0.295   1.372  0.00  0.00    +0.063 C 
ATOM     17  C   UNL     1       5.583   0.213   0.064  0.00  0.00    +0.026 C 
ATOM     18  C   UNL     1       6.830   1.094   0.165  0.00  0.00    +0.002 C 
ATOM     19  C   UNL     1       7.706   0.608   1.321  0.00  0.00    +0.000 C 
ATOM     20  C   UNL     1       6.917   0.691   2.629  0.00  0.00    +0.002 C 
ATOM     21  C   UNL     1       5.670  -0.191   2.528  0.00  0.00    +0.026 C 
BRANCH  16  22
ATOM     22  C   UNL     1       3.547  -0.586   1.272  0.00  0.00    +0.179 C 
BRANCH  22  23
ATOM     23  O   UNL     1       2.940  -0.408  -0.010  0.00  0.00    -0.393 OA
ATOM     24  H   UNL     1       2.103  -0.880  -0.117  0.00  0.00    +0.209 HD
ENDBRANCH  22  23
ENDBRANCH  16  22
ENDBRANCH  14  16
ENDBRANCH   1  14
TORSDOF 6
