REMARK  Name = ZINC41310703
REMARK  13 active torsions:
REMARK  status: ('A' for Active; 'I' for Inactive)
REMARK    1  A    between atoms: C_1  and  C_2
REMARK    2  A    between atoms: C_2  and  C_3
REMARK    3  A    between atoms: C_2  and  C_4
REMARK    4  A    between atoms: C_11  and  C_13
REMARK    5  A    between atoms: N_15  and  C_16
REMARK    6  A    between atoms: C_16  and  C_17
REMARK    7  A    between atoms: C_17  and  C_19
REMARK    8  A    between atoms: C_17  and  N_28
REMARK    9  A    between atoms: C_22  and  N_25
REMARK   10  A    between atoms: N_25  and  C_26
REMARK   11  A    between atoms: N_25  and  C_27
REMARK   12  A    between atoms: N_28  and  C_29
REMARK   13  A    between atoms: N_28  and  C_30
REMARK                            x       y       z     vdW  Elec       q    Type
REMARK                         _______ _______ _______ _____ _____    ______ ____
ROOT
ATOM      1  C   UNL     1       7.713  -3.374  -5.059  0.00  0.00    +0.279 C 
ATOM      2  O   UNL     1       6.960  -3.678  -4.154  0.00  0.00    -0.267 OA
ATOM      3  N   UNL     1       7.297  -3.460  -6.339  0.00  0.00    -0.310 N 
ATOM      4  H   UNL     1       7.898  -3.217  -7.061  0.00  0.00    +0.149 HD
ENDROOT
BRANCH   1  12
ATOM      5  C   UNL     1      13.204  -1.541  -3.332  0.00  0.00    -0.044 A 
ATOM      6  C   UNL     1      13.383  -1.416  -4.703  0.00  0.00    +0.007 A 
ATOM      7  C   UNL     1      12.366  -1.730  -5.578  0.00  0.00    +0.047 A 
ATOM      8  C   UNL     1      11.145  -2.177  -5.087  0.00  0.00    +0.136 A 
ATOM      9  C   UNL     1      10.969  -2.303  -3.697  0.00  0.00    +0.021 A 
ATOM     10  C   UNL     1      12.014  -1.984  -2.827  0.00  0.00    +0.015 A 
ATOM     11  C   UNL     1       9.601  -2.787  -3.513  0.00  0.00    +0.063 A 
ATOM     12  C   UNL     1       9.076  -2.913  -4.759  0.00  0.00    +0.190 A 
ATOM     13  O   UNL     1       9.994  -2.551  -5.679  0.00  0.00    -0.450 OA
BRANCH   5  15
ATOM     14  C   UNL     1      15.541  -2.078  -2.700  0.00  0.00    +0.012 C 
ATOM     15  C   UNL     1      14.331  -1.193  -2.394  0.00  0.00    +0.013 C 
ATOM     16  C   UNL     1      14.714   0.277  -2.582  0.00  0.00    +0.012 C 
ENDBRANCH   5  15
ENDBRANCH   1  12
BRANCH   3  17
ATOM     17  C   UNL     1       5.939  -3.919  -6.638  0.00  0.00    +0.094 C 
BRANCH  17  18
ATOM     18  C   UNL     1       5.687  -3.817  -8.144  0.00  0.00    -0.021 C 
BRANCH  18  19
ATOM     19  C   UNL     1       6.610  -4.759  -8.873  0.00  0.00    -0.059 A 
ATOM     20  C   UNL     1       6.301  -6.105  -8.952  0.00  0.00    +0.004 A 
ATOM     21  C   UNL     1       7.144  -6.971  -9.619  0.00  0.00    +0.023 A 
ATOM     22  C   UNL     1       8.305  -6.489 -10.211  0.00  0.00    +0.029 A 
ATOM     23  C   UNL     1       8.612  -5.137 -10.130  0.00  0.00    +0.023 A 
ATOM     24  C   UNL     1       7.761  -4.276  -9.466  0.00  0.00    +0.004 A 
BRANCH  22  25
ATOM     25  N   UNL     1       9.161  -7.362 -10.887  0.00  0.00    -0.336 N 
ATOM     26  C   UNL     1       8.835  -8.788 -10.971  0.00  0.00    +0.129 C 
ATOM     27  C   UNL     1      10.384  -6.853 -11.511  0.00  0.00    +0.129 C 
ENDBRANCH  22  25
ENDBRANCH  18  19
BRANCH  18  28
ATOM     28  N   UNL     1       4.292  -4.178  -8.432  0.00  0.00    +0.382 N 
ATOM     29  C   UNL     1       3.392  -3.258  -7.723  0.00  0.00    -0.096 C 
ATOM     30  C   UNL     1       4.050  -4.081  -9.878  0.00  0.00    -0.096 C 
ATOM     31  H   UNL     1       4.118  -5.123  -8.124  0.00  0.00    -0.082 HD
ENDBRANCH  18  28
ENDBRANCH  17  18
ENDBRANCH   3  17
TORSDOF 7
