REMARK  Name = ZINC06301551
REMARK  12 active torsions:
REMARK  status: ('A' for Active; 'I' for Inactive)
REMARK    1  A    between atoms: C_1  and  C_2
REMARK    2  A    between atoms: C_4  and  C_37
REMARK    3  A    between atoms: C_7  and  C_14
REMARK    4  A    between atoms: C_14  and  N_68
REMARK    5  A    between atoms: C_15  and  C_16
REMARK    6  A    between atoms: C_15  and  N_68
REMARK    7  A    between atoms: N_20  and  C_21
REMARK    8  A    between atoms: C_21  and  C_22
REMARK    9  A    between atoms: C_25  and  O_28
REMARK   10  A    between atoms: O_28  and  C_29
REMARK   11  A    between atoms: C_30  and  C_31
REMARK   12  A    between atoms: C_30  and  N_68
REMARK                            x       y       z     vdW  Elec       q    Type
REMARK                         _______ _______ _______ _____ _____    ______ ____
ROOT
ATOM      1  N   UNL     1       4.040  -0.807   7.175  0.00  0.00    +0.389 N 
ATOM      2  H   UNL     1       3.537  -1.615   7.562  0.00  0.00    -0.081 HD
ENDROOT
BRANCH   1   3
ATOM      3  C   UNL     1       3.502   0.428   7.783  0.00  0.00    -0.037 C 
BRANCH   3  10
ATOM      4  C   UNL     1      -4.408  -0.280   8.525  0.00  0.00    +0.044 C 
ATOM      5  C   UNL     1      -2.903  -0.239   8.599  0.00  0.00    -0.048 A 
ATOM      6  C   UNL     1      -2.259  -0.698   9.740  0.00  0.00    +0.007 A 
ATOM      7  C   UNL     1      -0.896  -0.669   9.828  0.00  0.00    -0.041 A 
ATOM      8  C   UNL     1      -0.143  -0.172   8.759  0.00  0.00    +0.002 A 
ATOM      9  C   UNL     1       1.320  -0.131   8.817  0.00  0.00    +0.017 A 
ATOM     10  C   UNL     1       1.996   0.367   7.753  0.00  0.00    +0.001 A 
ATOM     11  C   UNL     1       1.296   0.822   6.615  0.00  0.00    +0.251 A 
ATOM     12  O   UNL     1       1.925   1.261   5.667  0.00  0.00    -0.268 OA
ATOM     13  N   UNL     1      -0.046   0.784   6.550  0.00  0.00    -0.322 N 
ATOM     14  H   UNL     1      -0.495   1.105   5.753  0.00  0.00    +0.169 HD
ATOM     15  C   UNL     1      -0.793   0.294   7.601  0.00  0.00    +0.050 A 
ATOM     16  C   UNL     1      -2.182   0.255   7.534  0.00  0.00    +0.029 A 
ATOM     17  C   UNL     1      -0.207  -1.171  11.070  0.00  0.00    +0.044 C 
ENDBRANCH   3  10
ENDBRANCH   1   3
BRANCH   1  18
ATOM     18  C   UNL     1       3.845  -0.776   5.710  0.00  0.00    +0.001 C 
BRANCH  18  19
ATOM     19  C   UNL     1       4.196  -2.128   5.145  0.00  0.00    +0.135 A 
ATOM     20  N   UNL     1       5.371  -2.514   4.710  0.00  0.00    -0.115 NA
ATOM     21  N   UNL     1       5.266  -3.733   4.308  0.00  0.00    -0.023 NA
ATOM     22  N   UNL     1       4.056  -4.138   4.479  0.00  0.00    -0.044 NA
ATOM     23  N   UNL     1       3.364  -3.175   4.988  0.00  0.00    -0.227 N 
BRANCH  23  24
ATOM     24  C   UNL     1       1.941  -3.215   5.335  0.00  0.00    +0.182 C 
BRANCH  24  25
ATOM     25  C   UNL     1       1.122  -2.770   4.151  0.00  0.00    -0.026 A 
ATOM     26  C   UNL     1       0.686  -3.700   3.225  0.00  0.00    +0.009 A 
ATOM     27  C   UNL     1      -0.065  -3.295   2.139  0.00  0.00    +0.046 A 
ATOM     28  C   UNL     1      -0.381  -1.954   1.977  0.00  0.00    +0.120 A 
ATOM     29  C   UNL     1       0.063  -1.022   2.904  0.00  0.00    +0.046 A 
ATOM     30  C   UNL     1       0.808  -1.433   3.992  0.00  0.00    +0.009 A 
BRANCH  28  31
ATOM     31  O   UNL     1      -1.120  -1.553   0.909  0.00  0.00    -0.495 OA
ATOM     32  C   UNL     1      -1.407  -0.157   0.806  0.00  0.00    +0.277 C 
ENDBRANCH  28  31
ENDBRANCH  24  25
ENDBRANCH  23  24
ENDBRANCH  18  19
ENDBRANCH   1  18
BRANCH   1  33
ATOM     33  C   UNL     1       5.478  -0.941   7.490  0.00  0.00    -0.046 C 
BRANCH  33  34
ATOM     34  C   UNL     1       5.622  -1.381   8.949  0.00  0.00    +0.102 C 
ATOM     35  C   UNL     1       7.095  -1.717   9.251  0.00  0.00    +0.032 C 
ATOM     36  C   UNL     1       7.472  -0.763  10.410  0.00  0.00    +0.030 C 
ATOM     37  C   UNL     1       6.083  -0.395  10.993  0.00  0.00    +0.160 C 
ATOM     38  O   UNL     1       5.241  -0.306   9.824  0.00  0.00    -0.378 OA
ENDBRANCH  33  34
ENDBRANCH   1  33
TORSDOF 9
