REMARK  Name = ZINC36204986
REMARK  14 active torsions:
REMARK  status: ('A' for Active; 'I' for Inactive)
REMARK    1  A    between atoms: C_1  and  C_2
REMARK    2  A    between atoms: C_15  and  C_17
REMARK    3  A    between atoms: C_17  and  N_18
REMARK    4  A    between atoms: N_18  and  C_19
REMARK    5  A    between atoms: N_18  and  C_25
REMARK    6  A    between atoms: C_19  and  C_20
REMARK    7  A    between atoms: C_25  and  C_26
REMARK    8  A    between atoms: C_26  and  C_28
REMARK    9  A    between atoms: C_26  and  O_34
REMARK   10  A    between atoms: C_28  and  O_29
REMARK   11  A    between atoms: O_29  and  C_30
REMARK   12  A    between atoms: C_30  and  C_31
REMARK   13  A    between atoms: C_31  and  C_32
REMARK   14  A    between atoms: C_31  and  C_33
REMARK                            x       y       z     vdW  Elec       q    Type
REMARK                         _______ _______ _______ _____ _____    ______ ____
ROOT
ATOM      1  N   UNL     1       2.275  -8.271   2.474  0.00  0.00    +0.391 N 
ATOM      2  H   UNL     1       1.579  -8.248   3.204  0.00  0.00    -0.080 HD
ENDROOT
BRANCH   1   3
ATOM      3  C   UNL     1       1.627  -8.053   1.173  0.00  0.00    -0.003 C 
BRANCH   3  17
ATOM      4  C   UNL     1      -5.624 -14.872   0.920  0.00  0.00    +0.008 C 
ATOM      5  C   UNL     1      -4.378 -14.017   0.684  0.00  0.00    -0.009 C 
ATOM      6  C   UNL     1      -4.752 -12.778  -0.135  0.00  0.00    +0.008 C 
ATOM      7  C   UNL     1      -3.485 -12.052  -0.586  0.00  0.00    +0.037 C 
ATOM      8  C   UNL     1      -2.605 -11.788   0.633  0.00  0.00    -0.023 A 
ATOM      9  C   UNL     1      -2.789 -12.488   1.777  0.00  0.00    -0.004 A 
ATOM     10  S   UNL     1      -1.570 -11.862   2.906  0.00  0.00    -0.073 S 
ATOM     11  C   UNL     1      -0.820 -10.668   1.845  0.00  0.00    +0.116 A 
ATOM     12  C   UNL     1      -1.546 -10.795   0.640  0.00  0.00    +0.075 A 
ATOM     13  C   UNL     1      -1.165  -9.936  -0.445  0.00  0.00    +0.260 A 
ATOM     14  O   UNL     1      -1.728  -9.968  -1.525  0.00  0.00    -0.267 OA
ATOM     15  N   UNL     1      -0.141  -9.088  -0.190  0.00  0.00    -0.312 N 
ATOM     16  H   UNL     1       0.150  -8.489  -0.896  0.00  0.00    +0.170 HD
ATOM     17  C   UNL     1       0.498  -9.037   1.003  0.00  0.00    +0.094 A 
ATOM     18  N   UNL     1       0.179  -9.808   2.020  0.00  0.00    -0.229 NA
ATOM     19  C   UNL     1      -3.801 -13.563   2.032  0.00  0.00    +0.046 C 
ENDBRANCH   3  17
ENDBRANCH   1   3
BRANCH   1  20
ATOM     20  C   UNL     1       3.267  -7.214   2.709  0.00  0.00    -0.002 C 
BRANCH  20  21
ATOM     21  C   UNL     1       2.577  -5.875   2.741  0.00  0.00    +0.089 A 
ATOM     22  C   UNL     1       2.103  -5.260   3.840  0.00  0.00    +0.042 A 
ATOM     23  C   UNL     1       1.538  -4.036   3.413  0.00  0.00    +0.041 A 
ATOM     24  C   UNL     1       1.700  -3.977   2.079  0.00  0.00    +0.195 A 
ATOM     25  O   UNL     1       2.335  -5.090   1.679  0.00  0.00    -0.470 OA
ENDBRANCH  20  21
ENDBRANCH   1  20
BRANCH   1  26
ATOM     26  C   UNL     1       2.943  -9.579   2.474  0.00  0.00    -0.044 C 
BRANCH  26  27
ATOM     27  C   UNL     1       3.462  -9.886   3.881  0.00  0.00    +0.124 C 
BRANCH  27  28
ATOM     28  O   UNL     1       4.533  -8.995   4.198  0.00  0.00    -0.391 OA
ATOM     29  H   UNL     1       5.287  -9.057   3.596  0.00  0.00    +0.210 HD
ENDBRANCH  27  28
BRANCH  27  30
ATOM     30  C   UNL     1       3.966 -11.329   3.935  0.00  0.00    +0.189 C 
BRANCH  30  31
ATOM     31  O   UNL     1       4.342 -11.653   5.275  0.00  0.00    -0.377 OA
BRANCH  31  32
ATOM     32  C   UNL     1       4.830 -12.986   5.436  0.00  0.00    +0.163 C 
BRANCH  32  33
ATOM     33  C   UNL     1       5.201 -13.220   6.902  0.00  0.00    +0.009 C 
ATOM     34  C   UNL     1       3.940 -13.143   7.765  0.00  0.00    +0.009 C 
ATOM     35  C   UNL     1       5.839 -14.603   7.052  0.00  0.00    +0.009 C 
ENDBRANCH  32  33
ENDBRANCH  31  32
ENDBRANCH  30  31
ENDBRANCH  27  30
ENDBRANCH  26  27
ENDBRANCH   1  26
TORSDOF 11
