REMARK  Name = ZINC36624051
REMARK  5 active torsions:
REMARK  status: ('A' for Active; 'I' for Inactive)
REMARK    1  A    between atoms: C_6  and  O_7
REMARK    2  A    between atoms: O_7  and  C_8
REMARK    3  A    between atoms: C_8  and  C_9
REMARK    4  A    between atoms: C_12  and  C_14
REMARK    5  A    between atoms: C_17  and  C_21
REMARK                            x       y       z     vdW  Elec       q    Type
REMARK                         _______ _______ _______ _____ _____    ______ ____
ROOT
ATOM      1  C   UNK     1      -2.454  -2.722   0.012  0.00  0.00    +0.142 A 
ATOM      2  C   UNK     1      -3.185  -3.033  -1.074  0.00  0.00    +0.048 A 
ATOM      3  C   UNK     1      -4.410  -3.562  -0.605  0.00  0.00    +0.044 A 
ATOM      4  C   UNK     1      -4.353  -3.543   0.739  0.00  0.00    +0.101 A 
ATOM      5  O   UNK     1      -3.164  -3.039   1.107  0.00  0.00    -0.462 OA
ENDROOT
BRANCH   4   6
ATOM      6  C   UNK     1      -5.439  -4.014   1.673  0.00  0.00    +0.056 C 
ATOM      7  N   UNK     1      -4.872  -4.451   2.971  0.00  0.00    +0.401 N 
ATOM      8  C   UNK     1      -5.630  -4.090   4.163  0.00  0.00    +0.056 C 
ATOM      9  C   UNK     1      -6.916  -3.276   3.880  0.00  0.00    +0.063 C 
ATOM     10  S   UNK     1      -6.513  -2.608   2.203  0.00  0.00    -0.170 S 
ATOM     11  H   UNK     1      -4.781  -5.456   2.951  0.00  0.00    -0.082 HD
ATOM     12  H   UNK     1      -3.947  -4.057   3.058  0.00  0.00    -0.082 HD
BRANCH   8  13
ATOM     13  C   UNK     1      -6.017  -5.354   4.885  0.00  0.00    +0.343 C 
ATOM     14  O   UNK     1      -6.499  -5.295   6.003  0.00  0.00    -0.248 OA
ATOM     15  O   UNK     1      -5.849  -6.437   4.351  0.00  0.00    -0.248 OA
ENDBRANCH   8  13
ENDBRANCH   4   6
BRANCH   1  16
ATOM     16  C   UNK     1      -1.070  -2.126   0.001  0.00  0.00    +0.303 C 
BRANCH  16  17
ATOM     17  O   UNK     1      -1.165  -0.701   0.010  0.00  0.00    -0.484 OA
BRANCH  17  23
ATOM     18  C   UNK     1      -0.017   1.383   0.010  0.00  0.00    +0.047 A 
ATOM     19  C   UNK     1       1.171   2.089   0.002  0.00  0.00    +0.019 A 
ATOM     20  C   UNK     1       2.378   1.414  -0.013  0.00  0.00    +0.018 A 
ATOM     21  C   UNK     1       2.399   0.030  -0.022  0.00  0.00    +0.019 A 
ATOM     22  C   UNK     1       1.214  -0.679  -0.014  0.00  0.00    +0.047 A 
ATOM     23  C   UNK     1       0.002  -0.004   0.002  0.00  0.00    +0.121 A 
ATOM     24 BR   UNK     1       4.002   2.383  -0.024  0.00  0.00    -0.050 Br
ENDBRANCH  17  23
ENDBRANCH  16  17
ENDBRANCH   1  16
TORSDOF 5
