REMARK  Name = ZINC41268349
REMARK  7 active torsions:
REMARK  status: ('A' for Active; 'I' for Inactive)
REMARK    1  A    between atoms: C_1  and  C_2
REMARK    2  A    between atoms: C_5  and  C_35
REMARK    3  A    between atoms: C_6  and  N_8
REMARK    4  A    between atoms: C_14  and  C_16
REMARK    5  A    between atoms: N_19  and  C_22
REMARK    6  A    between atoms: C_22  and  C_23
REMARK    7  A    between atoms: C_26  and  C_28
REMARK                            x       y       z     vdW  Elec       q    Type
REMARK                         _______ _______ _______ _____ _____    ______ ____
ROOT
ATOM      1  C   UNL     1      -1.217  -4.000   6.988  0.00  0.00    +0.072 C 
ATOM      2  C   UNL     1      -1.985  -2.698   7.236  0.00  0.00    -0.006 C 
ATOM      3  C   UNL     1      -3.258  -3.006   8.027  0.00  0.00    -0.077 C 
ATOM      4  N   UNL     1      -2.902  -3.619   9.313  0.00  0.00    +0.386 N 
ATOM      5  C   UNL     1      -2.229  -4.903   9.084  0.00  0.00    -0.077 C 
ATOM      6  C   UNL     1      -0.916  -4.668   8.333  0.00  0.00    -0.006 C 
ATOM      7  H   UNL     1      -2.285  -3.002   9.819  0.00  0.00    -0.081 HD
ENDROOT
BRANCH   1  14
ATOM      8  N   UNL     1       0.392  -4.375   2.359  0.00  0.00    -0.327 N 
ATOM      9  C   UNL     1       1.615  -4.169   3.149  0.00  0.00    +0.124 C 
ATOM     10  C   UNL     1       1.322  -3.137   4.245  0.00  0.00    +0.126 C 
ATOM     11  N   UNL     1       0.087  -3.527   4.940  0.00  0.00    -0.298 N 
ATOM     12  C   UNL     1      -1.135  -3.733   4.150  0.00  0.00    +0.126 C 
ATOM     13  C   UNL     1      -0.844  -4.760   3.055  0.00  0.00    +0.124 C 
ATOM     14  C   UNL     1       0.077  -3.694   6.277  0.00  0.00    +0.219 C 
ATOM     15  O   UNL     1       1.108  -3.598   6.909  0.00  0.00    -0.275 OA
BRANCH   8  21
ATOM     16  C   UNL     1      -0.160  -1.438  -1.542  0.00  0.00    +0.044 C 
ATOM     17  C   UNL     1       0.139  -2.789  -0.946  0.00  0.00    -0.049 A 
ATOM     18  C   UNL     1       0.426  -3.860  -1.772  0.00  0.00    +0.004 A 
ATOM     19  C   UNL     1       0.701  -5.102  -1.230  0.00  0.00    +0.005 A 
ATOM     20  C   UNL     1       0.691  -5.276   0.140  0.00  0.00    -0.029 A 
ATOM     21  C   UNL     1       0.404  -4.202   0.973  0.00  0.00    +0.033 A 
ATOM     22  C   UNL     1       0.133  -2.955   0.425  0.00  0.00    +0.026 A 
ATOM     23  C   UNL     1       0.990  -6.630   0.731  0.00  0.00    +0.045 C 
ENDBRANCH   8  21
ENDBRANCH   1  14
BRANCH   4  24
ATOM     24  C   UNL     1      -4.122  -3.841  10.101  0.00  0.00    +0.021 C 
BRANCH  24  25
ATOM     25  C   UNL     1      -3.750  -4.356  11.468  0.00  0.00    +0.202 A 
ATOM     26  N   UNL     1      -3.514  -3.630  12.525  0.00  0.00    -0.114 NA
ATOM     27  N   UNL     1      -3.225  -4.397  13.517  0.00  0.00    -0.107 NA
ATOM     28  C   UNL     1      -3.268  -5.649  13.123  0.00  0.00    +0.248 A 
ATOM     29  O   UNL     1      -3.606  -5.645  11.819  0.00  0.00    -0.422 OA
BRANCH  28  30
ATOM     30  C   UNL     1      -3.000  -6.840  13.957  0.00  0.00    +0.039 A 
ATOM     31  C   UNL     1      -3.076  -8.117  13.399  0.00  0.00    +0.014 A 
ATOM     32  C   UNL     1      -2.824  -9.224  14.182  0.00  0.00    +0.021 A 
ATOM     33  C   UNL     1      -2.497  -9.071  15.518  0.00  0.00    +0.041 A 
ATOM     34  C   UNL     1      -2.420  -7.807  16.078  0.00  0.00    +0.021 A 
ATOM     35  C   UNL     1      -2.664  -6.691  15.304  0.00  0.00    +0.014 A 
ATOM     36 CL   UNL     1      -2.182 -10.470  16.497  0.00  0.00    -0.084 Cl
ENDBRANCH  28  30
ENDBRANCH  24  25
ENDBRANCH   4  24
TORSDOF 5
