REMARK  Name = ZINC36799230
REMARK  7 active torsions:
REMARK  status: ('A' for Active; 'I' for Inactive)
REMARK    1  A    between atoms: C_1  and  C_2
REMARK    2  A    between atoms: C_9  and  C_16
REMARK    3  A    between atoms: C_11  and  O_12
REMARK    4  A    between atoms: C_16  and  S_17
REMARK    5  A    between atoms: S_17  and  C_18
REMARK    6  A    between atoms: N_28  and  C_29
REMARK    7  A    between atoms: C_29  and  C_30
REMARK                            x       y       z     vdW  Elec       q    Type
REMARK                         _______ _______ _______ _____ _____    ______ ____
ROOT
ATOM      1  C   UNL     1       0.076   1.452   0.029  0.00  0.00    +0.109 C 
ATOM      2  C   UNL     1      -0.007  -0.031  -0.226  0.00  0.00    +0.214 C 
ATOM      3  O   UNL     1       0.965  -0.631  -0.650  0.00  0.00    -0.276 OA
ATOM      4  N   UNL     1      -1.131  -0.679   0.009  0.00  0.00    -0.286 N 
ATOM      5  C   UNL     1      -1.167  -2.037  -0.086  0.00  0.00    +0.037 A 
ATOM      6  C   UNL     1      -2.404  -2.699  -0.180  0.00  0.00    +0.024 A 
ATOM      7  C   UNL     1      -2.453  -4.053  -0.276  0.00  0.00    +0.013 A 
ATOM      8  C   UNL     1      -1.261  -4.800  -0.281  0.00  0.00    +0.022 A 
ATOM      9  C   UNL     1      -1.291  -6.207  -0.380  0.00  0.00    -0.020 A 
ATOM     10  C   UNL     1      -0.093  -6.893  -0.381  0.00  0.00    +0.092 A 
ATOM     11  C   UNL     1       1.104  -6.197  -0.285  0.00  0.00    +0.285 A 
ATOM     12  O   UNL     1       1.127  -4.863  -0.192  0.00  0.00    -0.425 OA
ATOM     13  C   UNL     1      -0.014  -4.143  -0.186  0.00  0.00    +0.141 A 
ATOM     14  C   UNL     1       0.025  -2.763  -0.095  0.00  0.00    +0.070 A 
ATOM     15  H   UNL     1      -1.932  -0.188   0.250  0.00  0.00    +0.155 HD
ENDROOT
BRANCH  11  16
ATOM     16  O   UNL     1       2.265  -6.878  -0.288  0.00  0.00    -0.480 OA
ATOM     17  H   UNL     1       3.050  -6.318  -0.218  0.00  0.00    +0.295 HD
ENDBRANCH  11  16
BRANCH   9  18
ATOM     18  C   UNL     1      -2.601  -6.944  -0.482  0.00  0.00    +0.113 C 
BRANCH  18  19
ATOM     19  S   UNL     1      -2.845  -7.510  -2.188  0.00  0.00    -0.083 S 
BRANCH  19  20
ATOM     20  C   UNL     1      -4.397  -8.342  -2.143  0.00  0.00    +0.173 A 
ATOM     21  N   UNL     1      -5.044  -8.398  -1.004  0.00  0.00    -0.223 NA
ATOM     22  C   UNL     1      -6.236  -9.018  -0.898  0.00  0.00    +0.079 A 
ATOM     23  C   UNL     1      -6.926  -9.077   0.317  0.00  0.00    +0.028 A 
ATOM     24  C   UNL     1      -8.132  -9.715   0.379  0.00  0.00    +0.002 A 
ATOM     25  C   UNL     1      -8.685 -10.309  -0.748  0.00  0.00    +0.001 A 
ATOM     26  C   UNL     1      -8.035 -10.269  -1.950  0.00  0.00    +0.015 A 
ATOM     27  C   UNL     1      -6.803  -9.623  -2.043  0.00  0.00    +0.065 A 
ATOM     28  C   UNL     1      -6.059  -9.548  -3.308  0.00  0.00    +0.263 A 
ATOM     29  O   UNL     1      -6.495 -10.049  -4.328  0.00  0.00    -0.267 OA
ATOM     30  N   UNL     1      -4.874  -8.895  -3.298  0.00  0.00    -0.283 N 
BRANCH  30  31
ATOM     31  C   UNL     1      -4.093  -8.784  -4.533  0.00  0.00    +0.154 C 
BRANCH  31  32
ATOM     32  C   UNL     1      -3.164  -9.964  -4.647  0.00  0.00    -0.013 C 
ATOM     33  C   UNL     1      -3.190 -10.718  -5.718  0.00  0.00    +0.005 C 
ENDBRANCH  31  32
ENDBRANCH  30  31
ENDBRANCH  19  20
ENDBRANCH  18  19
ENDBRANCH   9  18
TORSDOF 6
