REMARK  Name = ZINC63633443
REMARK  7 active torsions:
REMARK  status: ('A' for Active; 'I' for Inactive)
REMARK    1  A    between atoms: C_1  and  C_2
REMARK    2  A    between atoms: C_8  and  C_30
REMARK    3  A    between atoms: N_16  and  C_17
REMARK    4  A    between atoms: C_17  and  C_18
REMARK    5  A    between atoms: C_18  and  C_19
REMARK    6  A    between atoms: C_22  and  O_28
REMARK    7  A    between atoms: O_28  and  C_29
REMARK                            x       y       z     vdW  Elec       q    Type
REMARK                         _______ _______ _______ _____ _____    ______ ____
ROOT
ATOM      1  C   UNL     1      -0.019   1.526   0.010  0.00  0.00    +0.024 C 
ATOM      2  C   UNL     1       0.002  -0.004   0.002  0.00  0.00    +0.062 C 
ATOM      3  C   UNL     1      -1.434  -0.540   0.026  0.00  0.00    +0.114 C 
ATOM      4  C   UNL     1      -1.376  -2.039   0.155  0.00  0.00    +0.221 C 
ATOM      5  O   UNL     1      -2.307  -2.706  -0.243  0.00  0.00    -0.275 OA
ATOM      6  N   UNL     1      -0.317  -2.653   0.701  0.00  0.00    -0.244 N 
ATOM      7  C   UNL     1      -0.314  -4.124   0.803  0.00  0.00    +0.230 C 
ATOM      8  N   UNL     1       0.216  -4.523   2.104  0.00  0.00    -0.228 NA
ATOM      9  C   UNL     1       0.864  -3.725   2.888  0.00  0.00    +0.180 C 
ATOM     10  N   UNL     1       1.086  -2.404   2.586  0.00  0.00    -0.286 N 
ATOM     11  C   UNL     1       0.858  -1.943   1.205  0.00  0.00    +0.239 C 
ATOM     12  N   UNL     1       0.700  -0.495   1.194  0.00  0.00    -0.280 NA
ATOM     13  N   UNL     1       1.350  -4.220   4.075  0.00  0.00    -0.317 N 
ATOM     14  H   UNL     1       1.388  -1.785   3.269  0.00  0.00    +0.152 HD
ATOM     15  H   UNL     1       1.839  -3.639   4.678  0.00  0.00    +0.149 HD
ATOM     16  H   UNL     1       1.589  -0.033   1.309  0.00  0.00    +0.125 HD
ENDROOT
BRANCH   7  17
ATOM     17  C   UNL     1       0.551  -4.701  -0.288  0.00  0.00    -0.005 A 
ATOM     18  C   UNL     1       0.683  -4.032  -1.491  0.00  0.00    +0.007 A 
ATOM     19  C   UNL     1       1.476  -4.561  -2.492  0.00  0.00    +0.000 A 
ATOM     20  C   UNL     1       2.137  -5.759  -2.290  0.00  0.00    +0.000 A 
ATOM     21  C   UNL     1       2.005  -6.427  -1.087  0.00  0.00    +0.000 A 
ATOM     22  C   UNL     1       1.216  -5.895  -0.084  0.00  0.00    +0.007 A 
ENDBRANCH   7  17
BRANCH  13  23
ATOM     23  C   UNL     1       1.130  -5.625   4.428  0.00  0.00    +0.108 C 
BRANCH  23  24
ATOM     24  C   UNL     1       1.768  -5.914   5.788  0.00  0.00    +0.052 C 
BRANCH  24  25
ATOM     25  C   UNL     1       1.542  -7.359   6.152  0.00  0.00    -0.040 C 
ATOM     26  C   UNL     1       2.389  -8.392   5.944  0.00  0.00    +0.002 A 
ATOM     27  C   UNL     1       3.724  -8.479   5.342  0.00  0.00    +0.055 A 
ATOM     28  C   UNL     1       4.346  -9.680   5.268  0.00  0.00    +0.121 A 
ATOM     29  C   UNL     1       3.757 -10.861   5.752  0.00  0.00    +0.047 A 
ATOM     30  C   UNL     1       2.533 -10.882   6.322  0.00  0.00    +0.029 A 
ATOM     31  C   UNL     1       1.770  -9.637   6.454  0.00  0.00    +0.043 A 
ATOM     32  N   UNL     1       0.587  -9.384   6.956  0.00  0.00    -0.380 N 
ATOM     33  C   UNL     1       0.323  -7.946   6.828  0.00  0.00    +0.144 C 
ATOM     34  H   UNL     1      -0.013 -10.037   7.350  0.00  0.00    +0.160 HD
BRANCH  28  35
ATOM     35  O   UNL     1       5.582  -9.745   4.707  0.00  0.00    -0.495 OA
ATOM     36  C   UNL     1       6.201 -11.032   4.650  0.00  0.00    +0.277 C 
ENDBRANCH  28  35
ENDBRANCH  24  25
ENDBRANCH  23  24
ENDBRANCH  13  23
TORSDOF 5
