REMARK  Name = ZINC14053520
REMARK  16 active torsions:
REMARK  status: ('A' for Active; 'I' for Inactive)
REMARK    1  A    between atoms: C_1  and  C_2
REMARK    2  A    between atoms: C_2  and  C_3
REMARK    3  A    between atoms: C_3  and  C_4
REMARK    4  A    between atoms: C_4  and  N_5
REMARK    5  A    between atoms: N_5  and  C_6
REMARK    6  A    between atoms: C_7  and  N_19
REMARK    7  A    between atoms: N_8  and  C_15
REMARK    8  A    between atoms: C_15  and  C_16
REMARK    9  A    between atoms: C_16  and  C_17
REMARK   10  A    between atoms: C_16  and  C_18
REMARK   11  A    between atoms: C_20  and  C_22
REMARK   12  A    between atoms: C_22  and  C_23
REMARK   13  A    between atoms: C_26  and  C_28
REMARK   14  A    between atoms: C_33  and  O_34
REMARK   15  A    between atoms: O_34  and  C_35
REMARK   16  A    between atoms: C_35  and  C_36
REMARK                            x       y       z     vdW  Elec       q    Type
REMARK                         _______ _______ _______ _____ _____    ______ ____
ROOT
ATOM      1  N   UNL     1      -0.693   1.501   1.271  0.00  0.00    -0.264 N 
ATOM      2  C   UNL     1      -1.533   0.792   2.055  0.00  0.00    +0.226 C 
ATOM      3  O   UNL     1      -1.888   1.241   3.124  0.00  0.00    -0.275 OA
ENDROOT
BRANCH   1   4
ATOM      4  C   UNL     1      -0.143   2.712   1.741  0.00  0.00    +0.140 A 
ATOM      5  C   UNL     1      -0.956   3.795   2.007  0.00  0.00    +0.127 A 
ATOM      6  N   UNL     1      -0.391   4.961   2.469  0.00  0.00    -0.280 N 
ATOM      7  C   UNL     1       0.940   5.048   2.650  0.00  0.00    +0.331 A 
ATOM      8  O   UNL     1       1.421   6.089   3.055  0.00  0.00    -0.246 OA
ATOM      9  N   UNL     1       1.748   4.005   2.390  0.00  0.00    -0.273 N 
ATOM     10  H   UNL     1       2.733   4.095   2.532  0.00  0.00    +0.173 HD
ATOM     11  C   UNL     1       1.244   2.838   1.941  0.00  0.00    +0.277 A 
ATOM     12  O   UNL     1       1.986   1.898   1.709  0.00  0.00    -0.266 OA
BRANCH   5  13
ATOM     13  N   UNL     1      -2.314   3.708   1.818  0.00  0.00    -0.343 N 
ATOM     14  H   UNL     1      -2.697   2.918   1.405  0.00  0.00    +0.144 HD
ATOM     15  H   UNL     1      -2.890   4.437   2.096  0.00  0.00    +0.144 HD
ENDBRANCH   5  13
BRANCH   6  16
ATOM     16  C   UNL     1      -1.242   6.117   2.761  0.00  0.00    +0.131 C 
BRANCH  16  17
ATOM     17  C   UNL     1      -1.384   6.976   1.503  0.00  0.00    +0.003 C 
ATOM     18  C   UNL     1      -2.131   6.185   0.427  0.00  0.00    +0.009 C 
ATOM     19  C   UNL     1      -2.168   8.246   1.839  0.00  0.00    +0.009 C 
ENDBRANCH  16  17
ENDBRANCH   6  16
ENDBRANCH   1   4
BRANCH   1  20
ATOM     20  C   UNL     1      -0.353   1.012  -0.068  0.00  0.00    +0.114 C 
BRANCH  20  21
ATOM     21  C   UNL     1      -1.376   1.537  -1.077  0.00  0.00    +0.019 C 
BRANCH  21  23
ATOM     22  C   UNL     1      -2.043   1.551  -3.485  0.00  0.00    +0.004 C 
ATOM     23  C   UNL     1      -1.020   1.027  -2.475  0.00  0.00    -0.002 C 
ENDBRANCH  21  23
ENDBRANCH  20  21
ENDBRANCH   1  20
BRANCH   2  24
ATOM     24  C   UNL     1      -2.029  -0.557   1.601  0.00  0.00    +0.152 C 
BRANCH  24  25
ATOM     25  C   UNL     1      -2.945  -1.133   2.650  0.00  0.00    +0.058 A 
ATOM     26  C   UNL     1      -4.204  -1.522   2.314  0.00  0.00    +0.071 A 
ATOM     27  S   UNL     1      -4.802  -2.104   3.896  0.00  0.00    -0.075 S 
ATOM     28  C   UNL     1      -3.314  -1.767   4.829  0.00  0.00    +0.112 A 
ATOM     29  N   UNL     1      -2.527  -1.266   3.887  0.00  0.00    -0.243 NA
BRANCH  28  30
ATOM     30  C   UNL     1      -3.036  -1.990   6.263  0.00  0.00    +0.049 A 
ATOM     31  C   UNL     1      -1.792  -1.652   6.797  0.00  0.00    +0.014 A 
ATOM     32  C   UNL     1      -1.537  -1.862   8.136  0.00  0.00    +0.001 A 
ATOM     33  C   UNL     1      -2.512  -2.408   8.954  0.00  0.00    +0.004 A 
ATOM     34  C   UNL     1      -3.748  -2.748   8.437  0.00  0.00    +0.046 A 
ATOM     35  C   UNL     1      -4.021  -2.537   7.095  0.00  0.00    +0.130 A 
BRANCH  35  36
ATOM     36  O   UNL     1      -5.237  -2.864   6.586  0.00  0.00    -0.492 OA
BRANCH  36  37
ATOM     37  C   UNL     1      -6.191  -3.417   7.494  0.00  0.00    +0.226 C 
ATOM     38  C   UNL     1      -7.491  -3.721   6.746  0.00  0.00    +0.048 C 
ENDBRANCH  36  37
ENDBRANCH  35  36
ENDBRANCH  28  30
ENDBRANCH  24  25
ENDBRANCH   2  24
TORSDOF 12
