REMARK  Name = ZINC14067822
REMARK  6 active torsions:
REMARK  status: ('A' for Active; 'I' for Inactive)
REMARK    1  A    between atoms: C_1  and  C_2
REMARK    2  A    between atoms: C_8  and  C_14
REMARK    3  A    between atoms: C_11  and  C_13
REMARK    4  A    between atoms: N_16  and  C_17
REMARK    5  A    between atoms: C_17  and  C_18
REMARK    6  A    between atoms: C_18  and  C_19
REMARK                            x       y       z     vdW  Elec       q    Type
REMARK                         _______ _______ _______ _____ _____    ______ ____
ROOT
ATOM      1  C   UNL     1       5.981  -2.002  -2.697  0.00  0.00    +0.248 C 
ATOM      2  O   UNL     1       5.438  -1.696  -3.741  0.00  0.00    -0.270 OA
ATOM      3  N   UNL     1       5.410  -1.679  -1.520  0.00  0.00    -0.311 N 
ATOM      4  H   UNL     1       5.843  -1.923  -0.688  0.00  0.00    +0.149 HD
ENDROOT
BRANCH   1  11
ATOM      5  C   UNL     1       9.910  -5.433  -5.600  0.00  0.00    +0.016 C 
ATOM      6  C   UNL     1       9.460  -3.986  -5.383  0.00  0.00    +0.060 C 
ATOM      7  C   UNL     1       9.071  -3.751  -3.936  0.00  0.00    +0.001 A 
ATOM      8  C   UNL     1       9.680  -4.089  -2.748  0.00  0.00    +0.007 A 
ATOM      9  C   UNL     1       9.091  -3.754  -1.539  0.00  0.00    +0.001 A 
ATOM     10  C   UNL     1       7.893  -3.074  -1.522  0.00  0.00    +0.017 A 
ATOM     11  C   UNL     1       7.266  -2.728  -2.719  0.00  0.00    +0.079 A 
ATOM     12  C   UNL     1       7.863  -3.066  -3.947  0.00  0.00    +0.137 A 
ATOM     13  O   UNL     1       7.447  -2.820  -5.217  0.00  0.00    -0.487 OA
ATOM     14  C   UNL     1       8.130  -3.704  -6.121  0.00  0.00    +0.178 C 
ATOM     15  C   UNL     1       8.390  -3.014  -7.462  0.00  0.00    +0.052 C 
ENDBRANCH   1  11
BRANCH   3  16
ATOM     16  C   UNL     1       4.134  -0.958  -1.499  0.00  0.00    +0.109 C 
BRANCH  16  17
ATOM     17  C   UNL     1       3.709  -0.717  -0.049  0.00  0.00    +0.054 C 
BRANCH  17  18
ATOM     18  C   UNL     1       2.397   0.024  -0.027  0.00  0.00    -0.042 A 
ATOM     19  C   UNL     1       1.207  -0.680  -0.016  0.00  0.00    +0.007 A 
ATOM     20  C   UNL     1       0.002  -0.004   0.002  0.00  0.00    +0.050 A 
ATOM     21  C   UNL     1      -0.017   1.383   0.010  0.00  0.00    +0.162 A 
ATOM     22  C   UNL     1       1.179   2.090   0.002  0.00  0.00    +0.162 A 
ATOM     23  C   UNL     1       2.385   1.406  -0.018  0.00  0.00    +0.053 A 
ATOM     24  O   UNL     1       1.184   3.451   0.018  0.00  0.00    -0.485 OA
ATOM     25  C   UNL     1      -0.040   4.103  -0.340  0.00  0.00    +0.270 C 
ATOM     26  C   UNL     1      -1.189   3.413   0.408  0.00  0.00    +0.270 C 
ATOM     27  O   UNL     1      -1.212   2.035   0.019  0.00  0.00    -0.485 OA
ENDBRANCH  17  18
ENDBRANCH  16  17
ENDBRANCH   3  16
TORSDOF 4
