REMARK  Name = ZINC09291731
REMARK  9 active torsions:
REMARK  status: ('A' for Active; 'I' for Inactive)
REMARK    1  A    between atoms: C_1  and  C_2
REMARK    2  A    between atoms: C_10  and  C_13
REMARK    3  A    between atoms: C_16  and  S_19
REMARK    4  A    between atoms: S_19  and  C_20
REMARK    5  A    between atoms: C_21  and  C_29
REMARK    6  A    between atoms: C_32  and  O_37
REMARK    7  A    between atoms: C_33  and  O_35
REMARK    8  A    between atoms: O_35  and  C_36
REMARK    9  A    between atoms: O_37  and  C_38
REMARK                            x       y       z     vdW  Elec       q    Type
REMARK                         _______ _______ _______ _____ _____    ______ ____
ROOT
ATOM      1  C   UNL     1      -0.018   1.503   0.010  0.00  0.00    +0.044 C 
ATOM      2  C   UNL     1       0.002  -0.004   0.002  0.00  0.00    -0.050 A 
ATOM      3  C   UNL     1       0.006  -0.687  -1.202  0.00  0.00    +0.007 A 
ATOM      4  C   UNL     1       0.023  -2.069  -1.225  0.00  0.00    +0.046 A 
ATOM      5  C   UNL     1       0.037  -2.778  -0.037  0.00  0.00    +0.131 A 
ATOM      6  C   UNL     1       0.036  -2.087   1.182  0.00  0.00    +0.043 A 
ATOM      7  C   UNL     1       0.023  -0.699   1.196  0.00  0.00    +0.017 A 
ATOM      8  C   UNL     1       0.057  -2.877   2.438  0.00  0.00    +0.083 C 
ATOM      9  C   UNL     1       0.405  -4.178   2.350  0.00  0.00    +0.028 C 
ATOM     10  C   UNL     1       0.764  -4.785   1.025  0.00  0.00    +0.234 C 
ATOM     11  O   UNL     1       0.051  -4.136  -0.030  0.00  0.00    -0.479 OA
ATOM     12  C   UNL     1       0.420  -4.997   3.621  0.00  0.00    +0.163 C 
ATOM     13  N   UNL     1       0.050  -4.284   4.853  0.00  0.00    -0.182 N 
ATOM     14  C   UNL     1      -0.271  -2.959   4.773  0.00  0.00    +0.209 C 
ATOM     15  N   UNL     1      -0.261  -2.313   3.629  0.00  0.00    -0.216 NA
ATOM     16  N   UNL     1      -0.567  -2.558   6.050  0.00  0.00    -0.275 N 
ATOM     17  C   UNL     1      -0.424  -3.640   6.884  0.00  0.00    +0.208 C 
ATOM     18  N   UNL     1      -0.059  -4.670   6.189  0.00  0.00    -0.169 NA
ATOM     19  H   UNL     1      -0.831  -1.664   6.318  0.00  0.00    +0.156 HD
ENDROOT
BRANCH  10  20
ATOM     20  C   UNL     1       2.244  -4.631   0.791  0.00  0.00    -0.003 A 
ATOM     21  C   UNL     1       2.750  -3.424   0.345  0.00  0.00    +0.008 A 
ATOM     22  C   UNL     1       4.106  -3.279   0.129  0.00  0.00    +0.015 A 
ATOM     23  C   UNL     1       4.963  -4.348   0.361  0.00  0.00    +0.008 A 
ATOM     24  C   UNL     1       4.451  -5.560   0.810  0.00  0.00    +0.015 A 
ATOM     25  C   UNL     1       3.095  -5.696   1.029  0.00  0.00    +0.008 A 
BRANCH  23  26
ATOM     26  S   UNL     1       6.694  -4.168   0.087  0.00  0.00    -0.129 S 
ATOM     27  C   UNL     1       7.378  -5.793   0.517  0.00  0.00    +0.090 C 
ENDBRANCH  23  26
ENDBRANCH  10  20
BRANCH  12  28
ATOM     28  C   UNL     1      -0.533  -6.151   3.448  0.00  0.00    -0.017 A 
ATOM     29  C   UNL     1      -1.892  -5.954   3.606  0.00  0.00    +0.009 A 
ATOM     30  C   UNL     1      -2.770  -7.010   3.448  0.00  0.00    +0.050 A 
ATOM     31  C   UNL     1      -2.288  -8.270   3.130  0.00  0.00    +0.162 A 
ATOM     32  C   UNL     1      -0.920  -8.469   2.971  0.00  0.00    +0.162 A 
ATOM     33  C   UNL     1      -0.046  -7.405   3.126  0.00  0.00    +0.055 A 
BRANCH  32  34
ATOM     34  O   UNL     1      -0.443  -9.703   2.660  0.00  0.00    -0.491 OA
ATOM     35  C   UNL     1       0.973  -9.833   2.512  0.00  0.00    +0.277 C 
ENDBRANCH  32  34
BRANCH  31  36
ATOM     36  O   UNL     1      -3.151  -9.310   2.975  0.00  0.00    -0.491 OA
ATOM     37  C   UNL     1      -4.541  -9.032   3.154  0.00  0.00    +0.277 C 
ENDBRANCH  31  36
ENDBRANCH  12  28
TORSDOF 5
