REMARK  Name = ZINC58880442
REMARK  7 active torsions:
REMARK  status: ('A' for Active; 'I' for Inactive)
REMARK    1  A    between atoms: C_3  and  C_6
REMARK    2  A    between atoms: C_6  and  C_8
REMARK    3  A    between atoms: C_6  and  N_28
REMARK    4  A    between atoms: C_8  and  N_9
REMARK    5  A    between atoms: N_12  and  C_13
REMARK    6  A    between atoms: C_15  and  C_24
REMARK    7  A    between atoms: C_18  and  N_19
REMARK                            x       y       z     vdW  Elec       q    Type
REMARK                         _______ _______ _______ _____ _____    ______ ____
ROOT
ATOM      1  N   UNL     1       5.863   2.111   1.264  0.00  0.00    -0.300 N 
ATOM      2  C   UNL     1       6.673   2.045   2.339  0.00  0.00    +0.304 C 
ATOM      3  O   UNL     1       6.218   1.745   3.426  0.00  0.00    -0.253 OA
ATOM      4  N   UNL     1       7.988   2.311   2.210  0.00  0.00    -0.268 N 
ATOM      5  H   UNL     1       6.226   2.351   0.397  0.00  0.00    +0.150 HD
ATOM      6  H   UNL     1       8.366   2.474   1.331  0.00  0.00    +0.156 HD
ENDROOT
BRANCH   4   7
ATOM      7  C   UNL     1       8.809   2.354   3.343  0.00  0.00    +0.061 A 
ATOM      8  C   UNL     1       8.265   2.652   4.585  0.00  0.00    +0.037 A 
ATOM      9  C   UNL     1       9.077   2.693   5.702  0.00  0.00    +0.057 A 
ATOM     10  C   UNL     1      10.432   2.439   5.587  0.00  0.00    +0.014 A 
ATOM     11  C   UNL     1      10.982   2.141   4.355  0.00  0.00    +0.030 A 
ATOM     12  C   UNL     1      10.173   2.092   3.229  0.00  0.00    +0.087 A 
BRANCH  12  13
ATOM     13  N   UNL     1      10.728   1.784   1.978  0.00  0.00    -0.238 N 
ATOM     14  C   UNL     1      12.007   1.416   1.743  0.00  0.00    +0.114 A 
ATOM     15  C   UNL     1      12.139   1.209   0.412  0.00  0.00    +0.041 A 
ATOM     16  C   UNL     1      10.900   1.460  -0.187  0.00  0.00    +0.135 A 
ATOM     17  N   UNL     1      10.052   1.799   0.750  0.00  0.00    -0.175 NA
ENDBRANCH  12  13
BRANCH   9  18
ATOM     18  C   UNL     1       8.485   3.018   7.049  0.00  0.00    +0.417 C 
ATOM     19  F   UNL     1       8.078   1.835   7.676  0.00  0.00    -0.166 F 
ATOM     20  F   UNL     1       9.446   3.657   7.839  0.00  0.00    -0.166 F 
ATOM     21  F   UNL     1       7.382   3.861   6.883  0.00  0.00    -0.166 F 
ENDBRANCH   9  18
ENDBRANCH   4   7
BRANCH   1  22
ATOM     22  C   UNL     1       4.434   1.822   1.405  0.00  0.00    +0.095 C 
BRANCH  22  23
ATOM     23  C   UNL     1       3.770   1.847   0.027  0.00  0.00    -0.013 C 
BRANCH  23  24
ATOM     24  N   UNL     1       2.369   1.424   0.150  0.00  0.00    +0.386 N 
ATOM     25  C   UNL     1       1.763   1.258  -1.196  0.00  0.00    -0.078 C 
ATOM     26  C   UNL     1       0.565   0.312  -0.932  0.00  0.00    -0.020 C 
ATOM     27  C   UNL     1       1.120  -0.659   0.136  0.00  0.00    -0.020 C 
ATOM     28  C   UNL     1       2.292   0.094   0.793  0.00  0.00    -0.078 C 
ATOM     29  H   UNL     1       1.847   2.100   0.687  0.00  0.00    -0.081 HD
ENDBRANCH  23  24
BRANCH  23  32
ATOM     30  C   UNL     1       4.543   5.092  -1.813  0.00  0.00    +0.008 A 
ATOM     31  C   UNL     1       4.683   3.767  -1.443  0.00  0.00    +0.009 A 
ATOM     32  C   UNL     1       3.825   3.245  -0.532  0.00  0.00    -0.022 A 
ATOM     33  S   UNL     1       2.778   4.644  -0.168  0.00  0.00    -0.103 S 
ATOM     34  C   UNL     1       3.554   5.830  -1.254  0.00  0.00    +0.045 A 
ENDBRANCH  23  32
ENDBRANCH  22  23
ENDBRANCH   1  22
TORSDOF 7
