REMARK  Name = ZINC20997050
REMARK  6 active torsions:
REMARK  status: ('A' for Active; 'I' for Inactive)
REMARK    1  A    between atoms: C_1  and  C_2
REMARK    2  A    between atoms: C_7  and  N_8
REMARK    3  A    between atoms: C_15  and  C_17
REMARK    4  A    between atoms: C_17  and  C_18
REMARK    5  A    between atoms: N_25  and  C_26
REMARK    6  A    between atoms: C_26  and  C_27
REMARK                            x       y       z     vdW  Elec       q    Type
REMARK                         _______ _______ _______ _____ _____    ______ ____
ROOT
ATOM      1  C   UNL     1      -1.264   5.329  -0.538  0.00  0.00    +0.090 C 
ENDROOT
BRANCH   1   9
ATOM      2  N   UNL     1       0.543   1.583   0.659  0.00  0.00    -0.328 N 
ATOM      3  C   UNL     1       0.006   0.463  -0.114  0.00  0.00    +0.106 C 
ATOM      4  C   UNL     1      -1.157   0.806  -0.955  0.00  0.00    +0.038 C 
ATOM      5  C   UNL     1      -0.746   1.865  -2.010  0.00  0.00    +0.109 C 
ATOM      6  N   UNL     1      -0.485   3.127  -1.352  0.00  0.00    -0.300 N 
ATOM      7  C   UNL     1       0.845   3.498  -0.827  0.00  0.00    +0.126 C 
ATOM      8  C   UNL     1       1.524   2.313  -0.115  0.00  0.00    +0.124 C 
ATOM      9  C   UNL     1      -1.499   4.004  -1.217  0.00  0.00    +0.215 C 
ATOM     10  O   UNL     1      -2.600   3.728  -1.643  0.00  0.00    -0.276 OA
BRANCH   2  17
ATOM     11  C   UNL     1       3.046   0.231   0.590  0.00  0.00    +0.045 C 
ATOM     12  C   UNL     1       2.307   0.477   1.880  0.00  0.00    -0.029 A 
ATOM     13  C   UNL     1       2.844   0.045   3.077  0.00  0.00    +0.005 A 
ATOM     14  C   UNL     1       2.164   0.266   4.261  0.00  0.00    +0.000 A 
ATOM     15  C   UNL     1       0.947   0.923   4.251  0.00  0.00    +0.002 A 
ATOM     16  C   UNL     1       0.407   1.361   3.058  0.00  0.00    +0.023 A 
ATOM     17  C   UNL     1       1.087   1.141   1.867  0.00  0.00    +0.033 A 
ENDBRANCH   2  17
ENDBRANCH   1   9
BRANCH   1  18
ATOM     18  C   UNL     1      -2.592   6.075  -0.401  0.00  0.00    +0.028 C 
ATOM     19  C   UNL     1      -3.513   5.294   0.493  0.00  0.00    +0.200 C 
ATOM     20  O   UNL     1      -3.060   4.796   1.502  0.00  0.00    -0.278 OA
ATOM     21  N   UNL     1      -4.812   5.123   0.223  0.00  0.00    -0.318 N 
ATOM     22  C   UNL     1      -5.447   5.649  -0.982  0.00  0.00    +0.085 C 
ATOM     23  C   UNL     1      -4.575   6.744  -1.599  0.00  0.00    -0.059 C 
ATOM     24  N   UNL     1      -3.200   6.236  -1.729  0.00  0.00    +0.389 N 
ATOM     25  H   UNL     1      -5.406   4.559   0.956  0.00  0.00    +0.149 HD
ATOM     26  H   UNL     1      -3.234   5.252  -2.218  0.00  0.00    -0.081 HD
BRANCH  24  27
ATOM     27  C   UNL     1      -2.389   7.123  -2.574  0.00  0.00    -0.074 C 
BRANCH  27  28
ATOM     28  C   UNL     1      -2.829   6.979  -4.033  0.00  0.00    -0.028 C 
ATOM     29  C   UNL     1      -2.521   5.561  -4.521  0.00  0.00    +0.002 C 
ATOM     30  C   UNL     1      -2.961   5.417  -5.979  0.00  0.00    +0.000 C 
ATOM     31  C   UNL     1      -2.204   6.429  -6.842  0.00  0.00    +0.000 C 
ATOM     32  C   UNL     1      -2.511   7.846  -6.354  0.00  0.00    +0.000 C 
ATOM     33  C   UNL     1      -2.072   7.990  -4.896  0.00  0.00    +0.002 C 
ENDBRANCH  27  28
ENDBRANCH  24  27
ENDBRANCH   1  18
TORSDOF 5
