REMARK  Name = ZINC38712859
REMARK  12 active torsions:
REMARK  status: ('A' for Active; 'I' for Inactive)
REMARK    1  A    between atoms: C_1  and  C_2
REMARK    2  A    between atoms: C_2  and  O_3
REMARK    3  A    between atoms: O_3  and  C_4
REMARK    4  A    between atoms: C_7  and  C_13
REMARK    5  A    between atoms: C_9  and  O_10
REMARK    6  A    between atoms: O_10  and  C_11
REMARK    7  A    between atoms: C_11  and  C_12
REMARK    8  A    between atoms: N_32  and  C_33
REMARK    9  A    between atoms: C_33  and  C_34
REMARK   10  A    between atoms: C_34  and  N_35
REMARK   11  A    between atoms: N_35  and  C_36
REMARK   12  A    between atoms: N_35  and  C_37
REMARK                            x       y       z     vdW  Elec       q    Type
REMARK                         _______ _______ _______ _____ _____    ______ ____
ROOT
ATOM      1  C   UNL     1       1.107  -6.044  -1.844  0.00  0.00    +0.145 C 
ATOM      2  C   UNL     1      -0.190  -6.608  -2.322  0.00  0.00    +0.072 A 
ATOM      3  C   UNL     1      -0.971  -6.347  -3.534  0.00  0.00    +0.199 A 
ATOM      4  O   UNL     1      -0.547  -5.697  -4.474  0.00  0.00    -0.287 OA
ATOM      5  C   UNL     1      -2.328  -6.947  -3.510  0.00  0.00    +0.065 A 
ATOM      6  C   UNL     1      -3.263  -6.611  -4.504  0.00  0.00    +0.016 A 
ATOM      7  C   UNL     1      -4.509  -7.144  -4.493  0.00  0.00    +0.009 A 
ATOM      8  C   UNL     1      -4.881  -8.050  -3.477  0.00  0.00    -0.014 A 
ATOM      9  C   UNL     1      -6.169  -8.608  -3.449  0.00  0.00    +0.008 A 
ATOM     10  C   UNL     1      -6.505  -9.483  -2.460  0.00  0.00    +0.001 A 
ATOM     11  C   UNL     1      -5.589  -9.835  -1.473  0.00  0.00    +0.001 A 
ATOM     12  C   UNL     1      -4.330  -9.311  -1.469  0.00  0.00    +0.012 A 
ATOM     13  C   UNL     1      -3.952  -8.405  -2.472  0.00  0.00    +0.025 A 
ATOM     14  C   UNL     1      -2.652  -7.843  -2.488  0.00  0.00    +0.147 A 
ATOM     15  O   UNL     1      -1.774  -8.195  -1.526  0.00  0.00    -0.449 OA
ATOM     16  C   UNL     1      -0.626  -7.503  -1.386  0.00  0.00    +0.199 A 
ATOM     17  C   UNL     1       0.355  -7.539  -0.289  0.00  0.00    +0.283 C 
ATOM     18  O   UNL     1       0.263  -8.232   0.705  0.00  0.00    -0.267 OA
ATOM     19  N   UNL     1       1.373  -6.690  -0.548  0.00  0.00    -0.285 N 
ENDROOT
BRANCH   1  23
ATOM     20  C   UNL     1       0.777  -1.811  -1.336  0.00  0.00    +0.162 A 
ATOM     21  C   UNL     1       0.243  -2.669  -0.388  0.00  0.00    +0.050 A 
ATOM     22  C   UNL     1       0.352  -4.037  -0.555  0.00  0.00    +0.009 A 
ATOM     23  C   UNL     1       0.992  -4.552  -1.667  0.00  0.00    -0.019 A 
ATOM     24  C   UNL     1       1.526  -3.702  -2.616  0.00  0.00    +0.055 A 
ATOM     25  C   UNL     1       1.416  -2.330  -2.458  0.00  0.00    +0.162 A 
BRANCH  20  26
ATOM     26  O   UNL     1       0.671  -0.465  -1.174  0.00  0.00    -0.489 OA
BRANCH  26  28
ATOM     27  C   UNL     1      -0.019   1.526   0.010  0.00  0.00    +0.048 C 
ATOM     28  C   UNL     1       0.002  -0.004   0.002  0.00  0.00    +0.226 C 
ENDBRANCH  26  28
ENDBRANCH  20  26
BRANCH  25  29
ATOM     29  O   UNL     1       1.936  -1.492  -3.394  0.00  0.00    -0.489 OA
BRANCH  29  30
ATOM     30  C   UNL     1       2.578  -2.095  -4.520  0.00  0.00    +0.226 C 
ATOM     31  C   UNL     1       3.096  -1.002  -5.457  0.00  0.00    +0.048 C 
ENDBRANCH  29  30
ENDBRANCH  25  29
ENDBRANCH   1  23
BRANCH  19  32
ATOM     32  C   UNL     1       2.538  -6.453   0.309  0.00  0.00    +0.090 C 
BRANCH  32  33
ATOM     33  C   UNL     1       2.232  -5.312   1.281  0.00  0.00    -0.060 C 
BRANCH  33  34
ATOM     34  N   UNL     1       3.399  -5.074   2.140  0.00  0.00    +0.377 N 
ATOM     35  C   UNL     1       4.521  -4.596   1.321  0.00  0.00    -0.097 C 
ATOM     36  C   UNL     1       3.065  -4.062   3.151  0.00  0.00    -0.097 C 
ATOM     37  H   UNL     1       3.660  -5.934   2.599  0.00  0.00    -0.083 HD
ENDBRANCH  33  34
ENDBRANCH  32  33
ENDBRANCH  19  32
TORSDOF 8
