REMARK  Name = ZINC17749244
REMARK  8 active torsions:
REMARK  status: ('A' for Active; 'I' for Inactive)
REMARK    1  A    between atoms: C_1  and  C_2
REMARK    2  A    between atoms: C_3  and  C_15
REMARK    3  A    between atoms: N_5  and  C_7
REMARK    4  A    between atoms: C_15  and  C_17
REMARK    5  A    between atoms: C_15  and  C_24
REMARK    6  A    between atoms: C_21  and  O_23
REMARK    7  A    between atoms: C_26  and  C_38
REMARK    8  A    between atoms: N_28  and  C_31
REMARK                            x       y       z     vdW  Elec       q    Type
REMARK                         _______ _______ _______ _____ _____    ______ ____
ROOT
ATOM      1  C   UNL     1      -0.489   4.072  -0.737  0.00  0.00    +0.074 C 
ENDROOT
BRANCH   1   4
ATOM      2  C   UNL     1       0.168   1.171   0.186  0.00  0.00    +0.065 C 
ATOM      3  C   UNL     1      -0.562   1.551  -1.076  0.00  0.00    +0.039 A 
ATOM      4  C   UNL     1      -0.846   2.808  -1.475  0.00  0.00    +0.047 A 
ATOM      5  C   UNL     1      -1.538   2.732  -2.707  0.00  0.00    +0.276 A 
ATOM      6  N   UNL     1      -1.658   1.428  -3.028  0.00  0.00    -0.219 N 
ATOM      7  N   UNL     1      -1.044   0.681  -2.013  0.00  0.00    -0.294 N 
ATOM      8  O   UNL     1      -1.950   3.674  -3.359  0.00  0.00    -0.266 OA
ATOM      9  H   UNL     1      -0.975  -0.286  -1.980  0.00  0.00    +0.187 HD
BRANCH   6  10
ATOM     10  C   UNL     1      -2.280   0.913  -4.171  0.00  0.00    +0.067 A 
ATOM     11  C   UNL     1      -2.841   1.774  -5.105  0.00  0.00    +0.030 A 
ATOM     12  C   UNL     1      -3.454   1.264  -6.232  0.00  0.00    +0.040 A 
ATOM     13  C   UNL     1      -3.509  -0.106  -6.432  0.00  0.00    +0.124 A 
ATOM     14  C   UNL     1      -2.950  -0.966  -5.502  0.00  0.00    +0.040 A 
ATOM     15  C   UNL     1      -2.331  -0.460  -4.376  0.00  0.00    +0.030 A 
ATOM     16  F   UNL     1      -4.110  -0.603  -7.535  0.00  0.00    -0.205 F 
ENDBRANCH   6  10
ENDBRANCH   1   4
BRANCH   1  17
ATOM     17  C   UNL     1      -1.746   4.923  -0.545  0.00  0.00    +0.135 C 
ATOM     18  C   UNL     1      -2.765   4.186   0.299  0.00  0.00    +0.047 C 
ATOM     19  N   UNL     1      -2.957   4.882   1.351  0.00  0.00    -0.181 NA
ATOM     20  N   UNL     1      -2.199   6.048   1.381  0.00  0.00    -0.160 N 
ATOM     21  C   UNL     1      -1.433   6.162   0.272  0.00  0.00    +0.249 C 
ATOM     22  O   UNL     1      -0.663   7.056  -0.009  0.00  0.00    -0.273 OA
ATOM     23  C   UNL     1      -3.428   2.875  -0.041  0.00  0.00    +0.063 C 
BRANCH  20  24
ATOM     24  C   UNL     1      -2.226   6.983   2.424  0.00  0.00    +0.060 A 
ATOM     25  C   UNL     1      -1.434   8.122   2.357  0.00  0.00    +0.028 A 
ATOM     26  C   UNL     1      -1.462   9.043   3.386  0.00  0.00    +0.040 A 
ATOM     27  C   UNL     1      -2.280   8.832   4.483  0.00  0.00    +0.124 A 
ATOM     28  C   UNL     1      -3.071   7.697   4.552  0.00  0.00    +0.040 A 
ATOM     29  C   UNL     1      -3.050   6.777   3.522  0.00  0.00    +0.028 A 
ATOM     30  F   UNL     1      -2.307   9.734   5.489  0.00  0.00    -0.205 F 
ENDBRANCH  20  24
ENDBRANCH   1  17
BRANCH   1  31
ATOM     31  C   UNL     1       0.527   4.849  -1.534  0.00  0.00    -0.035 A 
ATOM     32  C   UNL     1       0.152   5.473  -2.710  0.00  0.00    +0.004 A 
ATOM     33  C   UNL     1       1.081   6.187  -3.443  0.00  0.00    +0.004 A 
ATOM     34  C   UNL     1       2.388   6.278  -3.003  0.00  0.00    +0.045 A 
ATOM     35  C   UNL     1       2.766   5.653  -1.824  0.00  0.00    +0.117 A 
ATOM     36  C   UNL     1       1.830   4.942  -1.087  0.00  0.00    +0.049 A 
BRANCH  35  37
ATOM     37  O   UNL     1       4.051   5.742  -1.389  0.00  0.00    -0.507 OA
ATOM     38  H   UNL     1       4.219   6.498  -0.810  0.00  0.00    +0.292 HD
ENDBRANCH  35  37
ENDBRANCH   1  31
TORSDOF 6
