REMARK  Name = ZINC63807027
REMARK  12 active torsions:
REMARK  status: ('A' for Active; 'I' for Inactive)
REMARK    1  A    between atoms: C_1  and  C_2
REMARK    2  A    between atoms: C_4  and  N_24
REMARK    3  A    between atoms: C_7  and  C_9
REMARK    4  A    between atoms: C_9  and  N_11
REMARK    5  A    between atoms: C_18  and  O_22
REMARK    6  A    between atoms: O_22  and  C_23
REMARK    7  A    between atoms: N_24  and  C_25
REMARK    8  A    between atoms: C_25  and  C_26
REMARK    9  A    between atoms: C_26  and  C_27
REMARK   10  A    between atoms: C_27  and  C_28
REMARK   11  A    between atoms: C_27  and  C_29
REMARK   12  A    between atoms: C_30  and  C_32
REMARK                            x       y       z     vdW  Elec       q    Type
REMARK                         _______ _______ _______ _____ _____    ______ ____
ROOT
ATOM      1  C   UNL     1       0.770   0.115   1.445  0.00  0.00    +0.062 C 
ATOM      2  C   UNL     1       0.166  -1.119   0.827  0.00  0.00    +0.035 C 
ATOM      3  N   UNL     1      -0.007  -1.195  -0.415  0.00  0.00    -0.258 NA
ATOM      4  C   UNL     1      -0.600  -2.406  -1.018  0.00  0.00    +0.254 C 
ATOM      5  S   UNL     1      -0.468  -3.591   0.393  0.00  0.00    -0.096 S 
ATOM      6  C   UNL     1      -0.242  -2.301   1.695  0.00  0.00    +0.181 C 
ENDROOT
BRANCH   4   7
ATOM      7  N   UNL     1       0.183  -2.863  -2.169  0.00  0.00    -0.271 N 
ATOM      8  C   UNL     1       1.468  -3.236  -2.004  0.00  0.00    +0.215 C 
ATOM      9  O   UNL     1       1.940  -3.307  -0.890  0.00  0.00    -0.276 OA
ATOM     10  C   UNL     1       2.317  -3.565  -3.205  0.00  0.00    +0.109 C 
BRANCH   7  11
ATOM     11  C   UNL     1      -0.430  -2.914  -3.498  0.00  0.00    +0.111 C 
BRANCH  11  12
ATOM     12  C   UNL     1      -0.092  -1.635  -4.266  0.00  0.00    +0.022 C 
BRANCH  12  13
ATOM     13  C   UNL     1      -0.732  -1.688  -5.654  0.00  0.00    -0.016 C 
ATOM     14  C   UNL     1      -2.256  -1.685  -5.513  0.00  0.00    +0.007 C 
ATOM     15  C   UNL     1      -0.293  -0.468  -6.466  0.00  0.00    +0.007 C 
ENDBRANCH  12  13
ENDBRANCH  11  12
ENDBRANCH   7  11
ENDBRANCH   4   7
BRANCH   6  16
ATOM     16  C   UNL     1       0.854  -2.679   2.657  0.00  0.00    +0.257 C 
ATOM     17  O   UNL     1       2.018  -2.491   2.357  0.00  0.00    -0.272 OA
BRANCH  16  18
ATOM     18  N   UNL     1       0.550  -3.217   3.833  0.00  0.00    -0.155 NA
ATOM     19  C   UNL     1       1.506  -3.430   4.735  0.00  0.00    +0.164 A 
ATOM     20  N   UNL     1       2.771  -2.940   4.738  0.00  0.00    -0.335 N 
ATOM     21  H   UNL     1       3.069  -2.359   4.021  0.00  0.00    +0.168 HD
ATOM     22  C   UNL     1       3.635  -3.272   5.767  0.00  0.00    +0.055 A 
ATOM     23  C   UNL     1       4.967  -2.882   5.964  0.00  0.00    +0.030 A 
ATOM     24  C   UNL     1       5.671  -3.320   7.060  0.00  0.00    +0.048 A 
ATOM     25  C   UNL     1       5.087  -4.159   8.002  0.00  0.00    +0.121 A 
ATOM     26  C   UNL     1       3.769  -4.557   7.828  0.00  0.00    +0.062 A 
ATOM     27  C   UNL     1       3.067  -4.117   6.731  0.00  0.00    +0.042 A 
ATOM     28  S   UNL     1       1.416  -4.362   6.131  0.00  0.00    -0.052 S 
BRANCH  25  29
ATOM     29  O   UNL     1       5.798  -4.584   9.080  0.00  0.00    -0.495 OA
ATOM     30  C   UNL     1       7.149  -4.129   9.186  0.00  0.00    +0.277 C 
ENDBRANCH  25  29
ENDBRANCH  16  18
ENDBRANCH   6  16
TORSDOF 7
