REMARK  Name = ZINC36301712
REMARK  17 active torsions:
REMARK  status: ('A' for Active; 'I' for Inactive)
REMARK    1  A    between atoms: C_1  and  C_2
REMARK    2  A    between atoms: C_2  and  O_3
REMARK    3  A    between atoms: O_3  and  C_4
REMARK    4  A    between atoms: C_4  and  C_5
REMARK    5  A    between atoms: C_5  and  C_7
REMARK    6  A    between atoms: C_5  and  O_36
REMARK    7  A    between atoms: C_7  and  N_8
REMARK    8  A    between atoms: N_8  and  C_9
REMARK    9  A    between atoms: N_8  and  C_32
REMARK   10  A    between atoms: C_9  and  C_10
REMARK   11  A    between atoms: C_11  and  C_31
REMARK   12  A    between atoms: N_13  and  C_24
REMARK   13  A    between atoms: C_14  and  O_15
REMARK   14  A    between atoms: O_15  and  C_16
REMARK   15  A    between atoms: C_19  and  O_22
REMARK   16  A    between atoms: O_22  and  C_23
REMARK   17  A    between atoms: C_32  and  C_33
REMARK                            x       y       z     vdW  Elec       q    Type
REMARK                         _______ _______ _______ _____ _____    ______ ____
ROOT
ATOM      1  C   UNL     1       3.576  -5.866  -4.983  0.00  0.00    +0.021 A 
ATOM      2  C   UNL     1       3.021  -5.960  -6.263  0.00  0.00    +0.065 A 
ATOM      3  N   UNL     1       3.996  -6.032  -7.133  0.00  0.00    -0.168 NA
ATOM      4  N   UNL     1       5.212  -5.987  -6.439  0.00  0.00    -0.200 N 
ATOM      5  C   UNL     1       4.929  -5.879  -5.113  0.00  0.00    +0.225 A 
ATOM      6  C   UNL     1       1.549  -5.976  -6.586  0.00  0.00    +0.068 C 
ENDROOT
BRANCH   4   7
ATOM      7  C   UNL     1       6.491  -6.039  -7.010  0.00  0.00    +0.070 A 
ATOM      8  C   UNL     1       7.502  -5.218  -6.527  0.00  0.00    +0.028 A 
ATOM      9  C   UNL     1       8.761  -5.271  -7.091  0.00  0.00    +0.003 A 
ATOM     10  C   UNL     1       9.017  -6.141  -8.136  0.00  0.00    +0.020 A 
ATOM     11  C   UNL     1       8.012  -6.960  -8.619  0.00  0.00    +0.043 A 
ATOM     12  C   UNL     1       6.751  -6.915  -8.054  0.00  0.00    +0.048 A 
ATOM     13 CL   UNL     1       8.337  -8.050  -9.930  0.00  0.00    -0.083 Cl
ENDBRANCH   4   7
BRANCH   1  14
ATOM     14  C   UNL     1       2.810  -5.762  -3.689  0.00  0.00    -0.036 C 
BRANCH  14  15
ATOM     15  N   UNL     1       2.709  -4.351  -3.292  0.00  0.00    +0.384 N 
ATOM     16  H   UNL     1       3.631  -3.943  -3.262  0.00  0.00    -0.081 HD
BRANCH  15  17
ATOM     17  C   UNL     1       1.885  -3.626  -4.269  0.00  0.00    -0.044 C 
BRANCH  17  18
ATOM     18  C   UNL     1       1.882  -2.135  -3.925  0.00  0.00    +0.124 C 
BRANCH  18  19
ATOM     19  O   UNL     1       3.201  -1.608  -4.079  0.00  0.00    -0.391 OA
ATOM     20  H   UNL     1       3.558  -1.694  -4.973  0.00  0.00    +0.210 HD
ENDBRANCH  18  19
BRANCH  18  21
ATOM     21  C   UNL     1       0.926  -1.397  -4.865  0.00  0.00    +0.189 C 
BRANCH  21  22
ATOM     22  O   UNL     1       0.834  -0.026  -4.471  0.00  0.00    -0.378 OA
BRANCH  22  24
ATOM     23  C   UNL     1      -0.060   2.198  -4.777  0.00  0.00    +0.034 C 
ATOM     24  C   UNL     1      -0.039   0.756  -5.288  0.00  0.00    +0.156 C 
ENDBRANCH  22  24
ENDBRANCH  21  22
ENDBRANCH  18  21
ENDBRANCH  17  18
ENDBRANCH  15  17
BRANCH  15  25
ATOM     25  C   UNL     1       2.089  -4.260  -1.964  0.00  0.00    -0.075 C 
BRANCH  25  26
ATOM     26  C   UNL     1       3.009  -4.905  -0.926  0.00  0.00    -0.028 C 
ATOM     27  C   UNL     1       2.494  -6.153  -0.205  0.00  0.00    +0.002 C 
ATOM     28  C   UNL     1       2.587  -4.821   0.542  0.00  0.00    +0.002 C 
ENDBRANCH  25  26
ENDBRANCH  15  25
ENDBRANCH  14  15
ENDBRANCH   1  14
BRANCH   5  29
ATOM     29  O   UNL     1       5.833  -5.802  -4.104  0.00  0.00    -0.438 OA
BRANCH  29  30
ATOM     30  C   UNL     1       6.306  -6.964  -3.579  0.00  0.00    +0.131 A 
ATOM     31  C   UNL     1       5.948  -8.178  -4.148  0.00  0.00    +0.050 A 
ATOM     32  C   UNL     1       6.428  -9.358  -3.616  0.00  0.00    +0.049 A 
ATOM     33  C   UNL     1       7.267  -9.331  -2.512  0.00  0.00    +0.120 A 
ATOM     34  C   UNL     1       7.625  -8.118  -1.943  0.00  0.00    +0.049 A 
ATOM     35  C   UNL     1       7.150  -6.936  -2.479  0.00  0.00    +0.050 A 
BRANCH  33  36
ATOM     36  O   UNL     1       7.739 -10.493  -1.988  0.00  0.00    -0.495 OA
ATOM     37  C   UNL     1       8.599 -10.390  -0.851  0.00  0.00    +0.277 C 
ENDBRANCH  33  36
ENDBRANCH  29  30
ENDBRANCH   5  29
TORSDOF 14
