REMARK  Name = ZINC26086915
REMARK  9 active torsions:
REMARK  status: ('A' for Active; 'I' for Inactive)
REMARK    1  A    between atoms: C_2  and  C_3
REMARK    2  A    between atoms: C_3  and  S_4
REMARK    3  A    between atoms: S_4  and  C_5
REMARK    4  A    between atoms: C_10  and  N_11
REMARK    5  A    between atoms: C_12  and  C_14
REMARK    6  A    between atoms: C_14  and  S_15
REMARK    7  A    between atoms: S_15  and  C_16
REMARK    8  A    between atoms: C_19  and  C_22
REMARK    9  A    between atoms: N_20  and  N_21
REMARK                            x       y       z     vdW  Elec       q    Type
REMARK                         _______ _______ _______ _____ _____    ______ ____
ROOT
ATOM      1  S   UNL     1       3.196  -5.850   6.753  0.00  0.00    -0.075 S 
ENDROOT
BRANCH   1   2
ATOM      2  C   UNL     1       2.066  -6.087   8.085  0.00  0.00    +0.209 A 
ATOM      3  N   UNL     1       0.892  -5.512   8.223  0.00  0.00    -0.121 NA
ATOM      4  N   UNL     1       0.332  -5.909   9.309  0.00  0.00    -0.127 NA
ATOM      5  C   UNL     1       1.113  -6.762   9.930  0.00  0.00    +0.183 A 
ATOM      6  N   UNL     1       2.245  -6.906   9.163  0.00  0.00    -0.224 N 
BRANCH   5   7
ATOM      7  C   UNL     1       0.827  -7.443  11.211  0.00  0.00    +0.035 A 
ATOM      8  C   UNL     1       1.771  -7.429  12.239  0.00  0.00    +0.013 A 
ATOM      9  C   UNL     1       1.498  -8.066  13.431  0.00  0.00    +0.001 A 
ATOM     10  C   UNL     1       0.290  -8.718  13.611  0.00  0.00    +0.001 A 
ATOM     11  C   UNL     1      -0.651  -8.735  12.597  0.00  0.00    +0.016 A 
ATOM     12  C   UNL     1      -0.392  -8.097  11.400  0.00  0.00    +0.029 A 
ATOM     13 BR   UNL     1      -1.683  -8.116  10.018  0.00  0.00    -0.050 Br
ENDBRANCH   5   7
BRANCH   6  14
ATOM     14  N   UNL     1       3.325  -7.701   9.425  0.00  0.00    -0.295 N 
ATOM     15  H   UNL     1       4.051  -7.181   9.895  0.00  0.00    +0.163 HD
ATOM     16  H   UNL     1       3.055  -8.511   9.963  0.00  0.00    +0.163 HD
ENDBRANCH   6  14
ENDBRANCH   1   2
BRANCH   1  17
ATOM     17  C   UNL     1       2.360  -4.654   5.676  0.00  0.00    +0.173 C 
BRANCH  17  19
ATOM     18  N   UNL     1       2.810  -3.492   3.539  0.00  0.00    -0.284 N 
ATOM     19  C   UNL     1       3.230  -4.359   4.481  0.00  0.00    +0.228 C 
ATOM     20  O   UNL     1       4.308  -4.903   4.368  0.00  0.00    -0.275 OA
ATOM     21  H   UNL     1       1.987  -2.996   3.669  0.00  0.00    +0.155 HD
BRANCH  18  27
ATOM     22  C   UNL     1       3.461  -2.113   1.656  0.00  0.00    +0.029 A 
ATOM     23  C   UNL     1       4.214  -1.934   0.504  0.00  0.00    +0.016 A 
ATOM     24  C   UNL     1       5.059  -2.937   0.068  0.00  0.00    +0.001 A 
ATOM     25  C   UNL     1       5.157  -4.121   0.776  0.00  0.00    +0.002 A 
ATOM     26  C   UNL     1       4.410  -4.308   1.924  0.00  0.00    +0.024 A 
ATOM     27  C   UNL     1       3.564  -3.306   2.373  0.00  0.00    +0.047 A 
BRANCH  22  28
ATOM     28  S   UNL     1       2.383  -0.836   2.215  0.00  0.00    -0.119 S 
BRANCH  28  29
ATOM     29  C   UNL     1       2.588   0.481   0.985  0.00  0.00    +0.101 C 
BRANCH  29  31
ATOM     30  C   UNL     1       2.248   2.797   1.679  0.00  0.00    +0.005 C 
ATOM     31  C   UNL     1       1.709   1.650   1.349  0.00  0.00    -0.024 C 
ENDBRANCH  29  31
ENDBRANCH  28  29
ENDBRANCH  22  28
ENDBRANCH  18  27
ENDBRANCH  17  19
ENDBRANCH   1  17
TORSDOF 9
