REMARK  Name = ZINC12747593
REMARK  7 active torsions:
REMARK  status: ('A' for Active; 'I' for Inactive)
REMARK    1  A    between atoms: C_1  and  C_2
REMARK    2  A    between atoms: C_8  and  N_10
REMARK    3  A    between atoms: C_11  and  C_13
REMARK    4  A    between atoms: C_13  and  N_14
REMARK    5  A    between atoms: N_14  and  C_15
REMARK    6  A    between atoms: N_14  and  S_21
REMARK    7  A    between atoms: S_21  and  C_24
REMARK                            x       y       z     vdW  Elec       q    Type
REMARK                         _______ _______ _______ _____ _____    ______ ____
ROOT
ATOM      1  N   UNL     1       5.202   5.165  -2.346  0.00  0.00    -0.194 N 
ENDROOT
BRANCH   1   2
ATOM      2  C   UNL     1       4.941   6.275  -1.539  0.00  0.00    +0.052 A 
ATOM      3  C   UNL     1       4.455   7.448  -2.103  0.00  0.00    +0.025 A 
ATOM      4  C   UNL     1       4.194   8.541  -1.301  0.00  0.00    +0.002 A 
ATOM      5  C   UNL     1       4.425   8.473   0.061  0.00  0.00    +0.000 A 
ATOM      6  C   UNL     1       4.913   7.309   0.625  0.00  0.00    +0.002 A 
ATOM      7  C   UNL     1       5.172   6.210  -0.171  0.00  0.00    +0.025 A 
ENDBRANCH   1   2
BRANCH   1   8
ATOM      8  S   UNL     1       5.533   5.372  -3.955  0.00  0.00    +0.078 S 
ATOM      9  O   UNL     1       6.026   6.697  -4.102  0.00  0.00    -0.150 OA
ATOM     10  O   UNL     1       6.276   4.233  -4.367  0.00  0.00    -0.150 OA
BRANCH   8  11
ATOM     11  C   UNL     1       3.997   5.309  -4.816  0.00  0.00    +0.144 A 
ATOM     12  C   UNL     1       3.528   6.429  -5.476  0.00  0.00    +0.032 A 
ATOM     13  C   UNL     1       2.323   6.380  -6.152  0.00  0.00    +0.002 A 
ATOM     14  C   UNL     1       1.586   5.210  -6.168  0.00  0.00    +0.003 A 
ATOM     15  C   UNL     1       2.053   4.089  -5.509  0.00  0.00    +0.040 A 
ATOM     16  C   UNL     1       3.262   4.136  -4.836  0.00  0.00    +0.150 A 
ATOM     17  F   UNL     1       3.722   3.039  -4.196  0.00  0.00    -0.203 F 
ENDBRANCH   8  11
ENDBRANCH   1   8
BRANCH   1  18
ATOM     18  C   UNL     1       5.183   3.819  -1.770  0.00  0.00    +0.227 C 
BRANCH  18  20
ATOM     19  N   UNL     1       3.507   2.069  -1.270  0.00  0.00    -0.311 N 
ATOM     20  C   UNL     1       3.769   3.297  -1.759  0.00  0.00    +0.232 C 
ATOM     21  O   UNL     1       2.866   3.983  -2.191  0.00  0.00    -0.274 OA
ATOM     22  H   UNL     1       4.229   1.521  -0.924  0.00  0.00    +0.149 HD
BRANCH  19  29
ATOM     23  C   UNL     1       2.870  -0.461  -2.526  0.00  0.00    +0.009 C 
ATOM     24  C   UNL     1       2.154   0.032  -1.268  0.00  0.00    +0.006 C 
ATOM     25  C   UNL     1       0.718  -0.497  -1.257  0.00  0.00    +0.005 C 
ATOM     26  C   UNL     1       0.002  -0.004   0.002  0.00  0.00    +0.000 C 
ATOM     27  C   UNL     1      -0.019   1.526   0.010  0.00  0.00    +0.002 C 
ATOM     28  C   UNL     1       1.417   2.055  -0.000  0.00  0.00    +0.022 C 
ATOM     29  C   UNL     1       2.133   1.562  -1.259  0.00  0.00    +0.076 C 
ENDBRANCH  19  29
ENDBRANCH  18  20
ENDBRANCH   1  18
TORSDOF 6
