REMARK  Name = ZINC44170540
REMARK  10 active torsions:
REMARK  status: ('A' for Active; 'I' for Inactive)
REMARK    1  A    between atoms: C_1  and  C_2
REMARK    2  A    between atoms: C_2  and  C_3
REMARK    3  A    between atoms: C_8  and  C_9
REMARK    4  A    between atoms: C_15  and  C_18
REMARK    5  A    between atoms: C_23  and  C_26
REMARK    6  A    between atoms: C_26  and  C_27
REMARK    7  A    between atoms: C_33  and  C_39
REMARK    8  A    between atoms: C_33  and  C_40
REMARK    9  A    between atoms: C_36  and  C_37
REMARK   10  A    between atoms: C_36  and  C_38
REMARK                            x       y       z     vdW  Elec       q    Type
REMARK                         _______ _______ _______ _____ _____    ______ ____
ROOT
ATOM      1  C   UNL     1      -1.216  -0.420  -2.539  0.00  0.00    -0.027 C 
ATOM      2  C   UNL     1      -1.107   1.107  -2.630  0.00  0.00    +0.092 C 
ATOM      3  S   UNL     1      -0.114   1.522  -4.097  0.00  0.00    +0.020 S 
ATOM      4  O   UNL     1       1.222   1.077  -3.907  0.00  0.00    -0.257 OA
ATOM      5  C   UNL     1      -0.903   0.532  -5.405  0.00  0.00    +0.097 C 
ATOM      6  C   UNL     1      -1.042  -0.909  -4.899  0.00  0.00    +0.029 C 
ATOM      7  N   UNL     1      -1.909  -0.939  -3.719  0.00  0.00    +0.392 N 
ATOM      8  H   UNL     1      -2.194  -1.891  -3.543  0.00  0.00    -0.084 HD
ATOM      9  H   UNL     1      -2.728  -0.377  -3.895  0.00  0.00    -0.084 HD
ENDROOT
BRANCH   1  15
ATOM     10  C   UNL     1      -1.368  -0.772  -0.064  0.00  0.00    -0.046 A 
ATOM     11  C   UNL     1      -2.082  -1.113   1.066  0.00  0.00    +0.008 A 
ATOM     12  C   UNL     1      -3.417  -1.484   0.973  0.00  0.00    -0.038 A 
ATOM     13  C   UNL     1      -4.034  -1.507  -0.259  0.00  0.00    -0.038 A 
ATOM     14  C   UNL     1      -3.312  -1.166  -1.395  0.00  0.00    +0.006 A 
ATOM     15  C   UNL     1      -1.987  -0.794  -1.300  0.00  0.00    -0.057 A 
ATOM     16  C   UNL     1      -5.482  -1.883  -0.433  0.00  0.00    -0.010 C 
ATOM     17  C   UNL     1      -5.995  -2.627   0.798  0.00  0.00    +0.012 C 
ATOM     18  C   UNL     1      -5.647  -1.802   2.043  0.00  0.00    +0.012 C 
ATOM     19  C   UNL     1      -4.134  -1.852   2.245  0.00  0.00    -0.010 C 
ATOM     20  C   UNL     1      -3.727  -3.267   2.662  0.00  0.00    +0.016 C 
ATOM     21  C   UNL     1      -3.740  -0.869   3.349  0.00  0.00    +0.016 C 
ATOM     22  C   UNL     1      -6.311  -0.614  -0.638  0.00  0.00    +0.016 C 
ATOM     23  C   UNL     1      -5.625  -2.782  -1.662  0.00  0.00    +0.016 C 
BRANCH  10  25
ATOM     24  C   UNL     1       0.970  -1.581  -0.233  0.00  0.00    +0.009 C 
ATOM     25  C   UNL     1       0.080  -0.369   0.049  0.00  0.00    +0.032 C 
ENDBRANCH  10  25
ENDBRANCH   1  15
BRANCH   6  26
ATOM     26  C   UNL     1       0.319  -1.444  -4.534  0.00  0.00    +0.202 C 
ATOM     27  O   UNL     1       1.314  -0.804  -4.799  0.00  0.00    -0.277 OA
ATOM     28  N   UNL     1       0.430  -2.635  -3.912  0.00  0.00    -0.303 N 
ATOM     29  C   UNL     1      -0.749  -3.491  -3.718  0.00  0.00    +0.108 C 
ATOM     30  C   UNL     1      -0.446  -4.882  -4.285  0.00  0.00    +0.023 C 
ATOM     31  C   UNL     1       0.835  -5.422  -3.645  0.00  0.00    -0.004 C 
ATOM     32  C   UNL     1       2.006  -4.497  -3.984  0.00  0.00    +0.023 C 
ATOM     33  C   UNL     1       1.732  -3.104  -3.420  0.00  0.00    +0.108 C 
BRANCH  31  34
ATOM     34  C   UNL     1       1.121  -6.825  -4.183  0.00  0.00    +0.038 C 
BRANCH  34  35
ATOM     35  C   UNL     1       2.312  -7.405  -3.464  0.00  0.00    -0.047 A 
ATOM     36  C   UNL     1       3.586  -7.201  -3.959  0.00  0.00    +0.003 A 
ATOM     37  C   UNL     1       4.678  -7.733  -3.299  0.00  0.00    +0.000 A 
ATOM     38  C   UNL     1       4.495  -8.470  -2.144  0.00  0.00    +0.000 A 
ATOM     39  C   UNL     1       3.221  -8.674  -1.648  0.00  0.00    +0.000 A 
ATOM     40  C   UNL     1       2.130  -8.138  -2.305  0.00  0.00    +0.003 A 
ENDBRANCH  34  35
ENDBRANCH  31  34
ENDBRANCH   6  26
TORSDOF 5
