REMARK  Name = ZINC35711534
REMARK  13 active torsions:
REMARK  status: ('A' for Active; 'I' for Inactive)
REMARK    1  A    between atoms: C_1  and  C_2
REMARK    2  A    between atoms: C_2  and  C_3
REMARK    3  A    between atoms: C_3  and  N_4
REMARK    4  A    between atoms: C_5  and  C_36
REMARK    5  A    between atoms: C_6  and  C_29
REMARK    6  A    between atoms: C_7  and  C_12
REMARK    7  A    between atoms: C_15  and  N_18
REMARK    8  A    between atoms: N_21  and  C_22
REMARK    9  A    between atoms: C_29  and  O_31
REMARK   10  A    between atoms: O_31  and  C_32
REMARK   11  A    between atoms: C_32  and  C_33
REMARK   12  A    between atoms: C_33  and  O_34
REMARK   13  A    between atoms: O_34  and  C_35
REMARK                            x       y       z     vdW  Elec       q    Type
REMARK                         _______ _______ _______ _____ _____    ______ ____
ROOT
ATOM      1  N   UNL     1      -1.520  -2.014   0.020  0.00  0.00    -0.259 N 
ATOM      2  C   UNL     1      -1.705  -2.637  -1.181  0.00  0.00    +0.024 C 
ATOM      3  C   UNL     1      -1.645  -3.982  -1.285  0.00  0.00    +0.078 C 
ATOM      4  C   UNL     1      -1.365  -4.775  -0.025  0.00  0.00    +0.143 C 
ATOM      5  N   UNL     1      -1.180  -4.008   1.219  0.00  0.00    -0.288 N 
ATOM      6  C   UNL     1      -1.265  -2.664   1.162  0.00  0.00    +0.307 C 
ATOM      7  O   UNL     1      -1.110  -2.022   2.182  0.00  0.00    -0.252 OA
ATOM      8  C   UNL     1      -1.981  -1.810  -2.411  0.00  0.00    +0.061 C 
ATOM      9  H   UNL     1      -0.998  -4.460   2.058  0.00  0.00    +0.151 HD
ENDROOT
BRANCH   4  10
ATOM     10  C   UNL     1      -0.119  -5.591  -0.256  0.00  0.00    -0.022 A 
ATOM     11  C   UNL     1       1.125  -5.000  -0.136  0.00  0.00    +0.007 A 
ATOM     12  C   UNL     1       2.269  -5.745  -0.347  0.00  0.00    +0.024 A 
ATOM     13  C   UNL     1       2.168  -7.089  -0.680  0.00  0.00    +0.035 A 
ATOM     14  C   UNL     1       0.917  -7.680  -0.800  0.00  0.00    +0.024 A 
ATOM     15  C   UNL     1      -0.223  -6.931  -0.582  0.00  0.00    +0.007 A 
BRANCH  13  16
ATOM     16  N   UNL     1       3.325  -7.847  -0.896  0.00  0.00    -0.269 N 
ATOM     17  C   UNL     1       4.433  -7.606  -0.168  0.00  0.00    +0.308 C 
ATOM     18  O   UNL     1       4.455  -6.678   0.618  0.00  0.00    -0.252 OA
ATOM     19  N   UNL     1       5.518  -8.392  -0.312  0.00  0.00    -0.269 N 
ATOM     20  H   UNL     1       3.329  -8.546  -1.568  0.00  0.00    +0.156 HD
ATOM     21  H   UNL     1       5.531  -9.081  -0.995  0.00  0.00    +0.156 HD
BRANCH  19  22
ATOM     22  C   UNL     1       6.627  -8.215   0.524  0.00  0.00    +0.035 A 
ATOM     23  C   UNL     1       6.446  -7.840   1.849  0.00  0.00    +0.025 A 
ATOM     24  C   UNL     1       7.542  -7.667   2.672  0.00  0.00    +0.022 A 
ATOM     25  C   UNL     1       8.819  -7.867   2.177  0.00  0.00    +0.041 A 
ATOM     26  C   UNL     1       9.001  -8.241   0.858  0.00  0.00    +0.022 A 
ATOM     27  C   UNL     1       7.909  -8.421   0.032  0.00  0.00    +0.025 A 
ATOM     28 CL   UNL     1      10.193  -7.647   3.214  0.00  0.00    -0.084 Cl
ENDBRANCH  19  22
ENDBRANCH  13  16
ENDBRANCH   4  10
BRANCH   3  29
ATOM     29  C   UNL     1      -1.837  -4.629  -2.529  0.00  0.00    +0.339 C 
ATOM     30  O   UNL     1      -2.061  -3.972  -3.528  0.00  0.00    -0.245 OA
BRANCH  29  31
ATOM     31  O   UNL     1      -1.772  -5.975  -2.606  0.00  0.00    -0.459 OA
BRANCH  31  32
ATOM     32  C   UNL     1      -1.977  -6.561  -3.893  0.00  0.00    +0.260 C 
BRANCH  32  33
ATOM     33  C   UNL     1      -1.867  -8.083  -3.784  0.00  0.00    +0.200 C 
BRANCH  33  34
ATOM     34  O   UNL     1      -2.930  -8.580  -2.969  0.00  0.00    -0.380 OA
ATOM     35  C   UNL     1      -2.920  -9.999  -2.802  0.00  0.00    +0.194 C 
ENDBRANCH  33  34
ENDBRANCH  32  33
ENDBRANCH  31  32
ENDBRANCH  29  31
ENDBRANCH   3  29
BRANCH   1  36
ATOM     36  C   UNL     1      -1.598  -0.552   0.059  0.00  0.00    +0.114 C 
BRANCH  36  38
ATOM     37  C   UNL     1      -3.143   1.404   0.237  0.00  0.00    +0.005 C 
ATOM     38  C   UNL     1      -3.061  -0.123   0.195  0.00  0.00    +0.016 C 
ENDBRANCH  36  38
ENDBRANCH   1  36
TORSDOF 10
