REMARK  Name = ZINC03006905
REMARK  14 active torsions:
REMARK  status: ('A' for Active; 'I' for Inactive)
REMARK    1  A    between atoms: C_1  and  C_2
REMARK    2  A    between atoms: C_2  and  C_3
REMARK    3  A    between atoms: C_3  and  C_4
REMARK    4  A    between atoms: C_4  and  N_5
REMARK    5  A    between atoms: N_5  and  C_6
REMARK    6  A    between atoms: N_5  and  S_7
REMARK    7  A    between atoms: S_7  and  C_10
REMARK    8  A    between atoms: C_13  and  C_16
REMARK    9  A    between atoms: N_18  and  C_19
REMARK   10  A    between atoms: C_20  and  C_28
REMARK   11  A    between atoms: C_27  and  N_64
REMARK   12  A    between atoms: C_28  and  O_30
REMARK   13  A    between atoms: O_30  and  C_31
REMARK   14  A    between atoms: C_31  and  C_32
REMARK                            x       y       z     vdW  Elec       q    Type
REMARK                         _______ _______ _______ _____ _____    ______ ____
ROOT
ATOM      1  C   UNL     1      -3.119   3.065   4.886  0.00  0.00    +0.249 C 
ATOM      2  O   UNL     1      -3.927   2.303   5.378  0.00  0.00    -0.270 OA
ATOM      3  N   UNL     1      -2.918   4.280   5.433  0.00  0.00    -0.275 N 
ATOM      4  H   UNL     1      -2.273   4.889   5.040  0.00  0.00    +0.156 HD
ENDROOT
BRANCH   3   5
ATOM      5  C   UNL     1      -3.633   4.660   6.557  0.00  0.00    +0.086 A 
ATOM      6  C   UNL     1      -3.567   5.859   7.258  0.00  0.00    +0.091 A 
ATOM      7  C   UNL     1      -4.432   6.005   8.413  0.00  0.00    -0.025 A 
ATOM      8  C   UNL     1      -5.220   4.940   8.684  0.00  0.00    -0.021 A 
ATOM      9  S   UNL     1      -4.832   3.760   7.425  0.00  0.00    -0.079 S 
ATOM     10  C   UNL     1      -6.199   4.822   9.810  0.00  0.00    -0.036 C 
ATOM     11  C   UNL     1      -5.795   7.194  10.102  0.00  0.00    -0.074 C 
ATOM     12  C   UNL     1      -4.495   7.247   9.296  0.00  0.00    +0.018 C 
ATOM     13  C   UNL     1      -6.944   5.943  11.829  0.00  0.00    -0.096 C 
ATOM     14  N   UNL     1      -5.891   5.891  10.792  0.00  0.00    +0.381 N 
ATOM     15  H   UNL     1      -4.991   5.683  11.241  0.00  0.00    -0.082 HD
BRANCH   6  16
ATOM     16  C   UNL     1      -2.659   6.932   6.846  0.00  0.00    +0.342 C 
ATOM     17  O   UNL     1      -3.037   7.779   6.059  0.00  0.00    -0.245 OA
BRANCH  16  18
ATOM     18  O   UNL     1      -1.405   6.981   7.340  0.00  0.00    -0.461 OA
BRANCH  18  19
ATOM     19  C   UNL     1      -0.561   8.072   6.888  0.00  0.00    +0.229 C 
ATOM     20  C   UNL     1       0.814   7.962   7.550  0.00  0.00    +0.048 C 
ENDBRANCH  18  19
ENDBRANCH  16  18
ENDBRANCH   6  16
ENDBRANCH   3   5
BRANCH   1  24
ATOM     21  C   UNL     1      -0.927   1.900   1.439  0.00  0.00    +0.106 A 
ATOM     22  C   UNL     1      -0.715   3.146   2.002  0.00  0.00    +0.029 A 
ATOM     23  C   UNL     1      -1.427   3.533   3.118  0.00  0.00    +0.015 A 
ATOM     24  C   UNL     1      -2.356   2.660   3.687  0.00  0.00    +0.037 A 
ATOM     25  C   UNL     1      -2.561   1.402   3.117  0.00  0.00    +0.015 A 
ATOM     26  C   UNL     1      -1.846   1.030   1.998  0.00  0.00    +0.029 A 
BRANCH  21  27
ATOM     27  S   UNL     1      -0.017   1.417   0.010  0.00  0.00    +0.061 S 
ATOM     28  O   UNL     1       0.002  -0.004   0.002  0.00  0.00    -0.153 OA
ATOM     29  O   UNL     1       1.172   2.195   0.003  0.00  0.00    -0.153 OA
BRANCH  27  30
ATOM     30  N   UNL     1      -0.897   1.885  -1.312  0.00  0.00    -0.180 NA
ATOM     31  C   UNL     1      -0.691   3.213  -1.897  0.00  0.00    +0.131 C 
BRANCH  30  32
ATOM     32  C   UNL     1      -1.883   0.973  -1.897  0.00  0.00    +0.109 C 
BRANCH  32  33
ATOM     33  C   UNL     1      -3.267   1.280  -1.323  0.00  0.00    +0.017 C 
BRANCH  33  35
ATOM     34  C   UNL     1      -5.680   0.634  -1.359  0.00  0.00    +0.004 C 
ATOM     35  C   UNL     1      -4.296   0.327  -1.934  0.00  0.00    -0.002 C 
ENDBRANCH  33  35
ENDBRANCH  32  33
ENDBRANCH  30  32
ENDBRANCH  27  30
ENDBRANCH  21  27
ENDBRANCH   1  24
TORSDOF 10
