REMARK  Name = ZINC64713443
REMARK  9 active torsions:
REMARK  status: ('A' for Active; 'I' for Inactive)
REMARK    1  A    between atoms: C_1  and  O_2
REMARK    2  A    between atoms: O_2  and  C_3
REMARK    3  A    between atoms: C_6  and  C_11
REMARK    4  A    between atoms: C_8  and  O_9
REMARK    5  A    between atoms: O_9  and  C_10
REMARK    6  A    between atoms: C_19  and  S_23
REMARK    7  A    between atoms: S_23  and  C_24
REMARK    8  A    between atoms: C_24  and  C_25
REMARK    9  A    between atoms: C_27  and  C_30
REMARK                            x       y       z     vdW  Elec       q    Type
REMARK                         _______ _______ _______ _____ _____    ______ ____
ROOT
ATOM      1  C   UNL     1      -4.967  -2.616   0.036  0.00  0.00    +0.047 C 
ATOM      2  C   UNL     1      -6.173  -2.000   0.041  0.00  0.00    +0.027 C 
ATOM      3  C   UNL     1      -7.166  -3.130   0.032  0.00  0.00    +0.193 C 
ATOM      4  C   UNL     1      -8.372  -2.967   0.907  0.00  0.00    +0.276 C 
ATOM      5  O   UNL     1      -8.852  -1.882   1.136  0.00  0.00    -0.270 OA
ATOM      6  N   UNL     1      -8.894  -4.107   1.428  0.00  0.00    -0.081 NA
ATOM      7  N   UNL     1      -8.370  -5.217   1.308  0.00  0.00    -0.163 NA
ATOM      8  C   UNL     1      -7.088  -5.439   0.617  0.00  0.00    +0.272 C 
ATOM      9  N   UNL     1      -6.339  -4.205   0.670  0.00  0.00    -0.178 NA
ATOM     10  N   UNL     1      -5.156  -4.019   0.035  0.00  0.00    -0.274 N 
ATOM     11  H   UNL     1      -4.568  -4.695  -0.336  0.00  0.00    +0.167 HD
ENDROOT
BRANCH   1  15
ATOM     12  C   UNL     1      -1.201  -0.638   0.010  0.00  0.00    +0.162 A 
ATOM     13  C   UNL     1      -2.373   0.103   0.019  0.00  0.00    +0.050 A 
ATOM     14  C   UNL     1      -3.596  -0.536   0.028  0.00  0.00    +0.013 A 
ATOM     15  C   UNL     1      -3.655  -1.929   0.027  0.00  0.00    +0.000 A 
ATOM     16  C   UNL     1      -2.476  -2.675   0.017  0.00  0.00    +0.059 A 
ATOM     17  C   UNL     1      -1.253  -2.029   0.003  0.00  0.00    +0.162 A 
BRANCH  12  19
ATOM     18  C   UNL     1      -0.017   1.425   0.010  0.00  0.00    +0.277 C 
ATOM     19  O   UNL     1       0.002  -0.004   0.002  0.00  0.00    -0.491 OA
ENDBRANCH  12  19
BRANCH  17  20
ATOM     20  O   UNL     1      -0.102  -2.753  -0.012  0.00  0.00    -0.491 OA
ATOM     21  C   UNL     1      -0.231  -4.177  -0.019  0.00  0.00    +0.277 C 
ENDBRANCH  17  20
ENDBRANCH   1  15
BRANCH   8  22
ATOM     22  S   UNL     1      -6.163  -6.764   1.440  0.00  0.00    -0.106 S 
BRANCH  22  23
ATOM     23  C   UNL     1      -5.924  -6.149   3.130  0.00  0.00    +0.171 C 
BRANCH  23  24
ATOM     24  C   UNL     1      -5.157  -7.169   3.932  0.00  0.00    +0.238 A 
ATOM     25  N   UNL     1      -3.861  -7.228   4.048  0.00  0.00    -0.191 NA
ATOM     26  C   UNL     1      -3.517  -8.261   4.838  0.00  0.00    +0.202 A 
ATOM     27  N   UNL     1      -4.608  -8.870   5.232  0.00  0.00    -0.056 NA
ATOM     28  O   UNL     1      -5.694  -8.163   4.651  0.00  0.00    -0.337 OA
BRANCH  26  29
ATOM     29  C   UNL     1      -2.131  -8.647   5.202  0.00  0.00    +0.023 A 
ATOM     30  C   UNL     1      -1.050  -7.911   4.720  0.00  0.00    +0.013 A 
ATOM     31  C   UNL     1       0.236  -8.274   5.061  0.00  0.00    +0.021 A 
ATOM     32  C   UNL     1       0.455  -9.368   5.882  0.00  0.00    +0.041 A 
ATOM     33  C   UNL     1      -0.616 -10.102   6.364  0.00  0.00    +0.021 A 
ATOM     34  C   UNL     1      -1.906  -9.743   6.033  0.00  0.00    +0.013 A 
ATOM     35 CL   UNL     1       2.076  -9.820   6.308  0.00  0.00    -0.084 Cl
ENDBRANCH  26  29
ENDBRANCH  23  24
ENDBRANCH  22  23
ENDBRANCH   8  22
TORSDOF 7
