REMARK  Name = ZINC06198281
REMARK  8 active torsions:
REMARK  status: ('A' for Active; 'I' for Inactive)
REMARK    1  A    between atoms: C_1  and  C_2
REMARK    2  A    between atoms: C_2  and  C_3
REMARK    3  A    between atoms: C_10  and  C_15
REMARK    4  A    between atoms: C_15  and  C_17
REMARK    5  A    between atoms: C_15  and  N_64
REMARK    6  A    between atoms: N_21  and  C_22
REMARK    7  A    between atoms: C_22  and  C_23
REMARK    8  A    between atoms: C_31  and  C_34
REMARK                            x       y       z     vdW  Elec       q    Type
REMARK                         _______ _______ _______ _____ _____    ______ ____
ROOT
ATOM      1  C   UNL     1      -0.013   1.086   0.008  0.00  0.00    +0.039 C 
ENDROOT
BRANCH   1   9
ATOM      2  C   UNL     1      -3.044   0.463  -5.350  0.00  0.00    -0.047 A 
ATOM      3  C   UNL     1      -2.901   1.780  -5.764  0.00  0.00    +0.005 A 
ATOM      4  C   UNL     1      -2.230   2.695  -4.981  0.00  0.00    +0.026 A 
ATOM      5  C   UNL     1      -1.690   2.295  -3.763  0.00  0.00    +0.049 A 
ATOM      6  C   UNL     1      -1.837   0.959  -3.346  0.00  0.00    -0.001 A 
ATOM      7  C   UNL     1      -2.522   0.048  -4.158  0.00  0.00    +0.013 A 
ATOM      8  C   UNL     1      -1.266   0.549  -2.063  0.00  0.00    +0.017 A 
ATOM      9  C   UNL     1      -0.613   1.475  -1.319  0.00  0.00    +0.011 A 
ATOM     10  C   UNL     1      -0.498   2.804  -1.779  0.00  0.00    +0.251 A 
ATOM     11  O   UNL     1       0.089   3.623  -1.092  0.00  0.00    -0.268 OA
ATOM     12  N   UNL     1      -1.014   3.189  -2.959  0.00  0.00    -0.322 N 
ATOM     13  H   UNL     1      -0.907   4.137  -3.258  0.00  0.00    +0.169 HD
BRANCH   2  15
ATOM     14  C   UNL     1      -5.268  -0.508  -5.859  0.00  0.00    +0.009 C 
ATOM     15  C   UNL     1      -3.782  -0.518  -6.224  0.00  0.00    +0.032 C 
ENDBRANCH   2  15
ENDBRANCH   1   9
BRANCH   1  22
ATOM     16  C   UNL     1       1.987   1.240   1.364  0.00  0.00    -0.077 C 
ATOM     17  C   UNL     1       3.418   1.781   1.396  0.00  0.00    -0.015 C 
ATOM     18  C   UNL     1       4.251   1.071   0.326  0.00  0.00    -0.018 C 
ATOM     19  C   UNL     1       3.598   1.283  -1.043  0.00  0.00    -0.015 C 
ATOM     20  C   UNL     1       2.162   0.756  -1.004  0.00  0.00    -0.077 C 
ATOM     21  C   UNL     1       5.667   1.651   0.312  0.00  0.00    +0.007 C 
ATOM     22  N   UNL     1       1.406   1.497   0.029  0.00  0.00    +0.389 N 
ATOM     23  H   UNL     1       1.465   2.502  -0.172  0.00  0.00    -0.080 HD
ENDBRANCH   1  22
BRANCH   1  24
ATOM     24  C   UNL     1      -0.745   1.795   1.118  0.00  0.00    +0.143 A 
ATOM     25  N   UNL     1      -0.631   3.058   1.448  0.00  0.00    -0.115 NA
ATOM     26  N   UNL     1      -1.419   3.282   2.442  0.00  0.00    -0.023 NA
ATOM     27  N   UNL     1      -2.027   2.193   2.760  0.00  0.00    -0.044 NA
ATOM     28  N   UNL     1      -1.638   1.253   1.966  0.00  0.00    -0.228 N 
BRANCH  28  29
ATOM     29  C   UNL     1      -2.085  -0.142   1.985  0.00  0.00    +0.178 C 
BRANCH  29  30
ATOM     30  C   UNL     1      -1.173  -0.957   2.904  0.00  0.00    +0.140 C 
ATOM     31  C   UNL     1      -1.565  -2.449   2.841  0.00  0.00    +0.035 C 
ATOM     32  C   UNL     1      -1.408  -2.894   4.321  0.00  0.00    +0.031 C 
ATOM     33  C   UNL     1      -1.839  -1.604   5.063  0.00  0.00    +0.160 C 
ATOM     34  O   UNL     1      -1.337  -0.524   4.260  0.00  0.00    -0.375 OA
ENDBRANCH  29  30
ENDBRANCH  28  29
ENDBRANCH   1  24
TORSDOF 6
