REMARK  Name = ZINC12621684
REMARK  5 active torsions:
REMARK  status: ('A' for Active; 'I' for Inactive)
REMARK    1  A    between atoms: C_13  and  C_17
REMARK    2  A    between atoms: C_17  and  O_19
REMARK    3  A    between atoms: O_19  and  C_20
REMARK    4  A    between atoms: C_20  and  C_21
REMARK    5  A    between atoms: N_23  and  C_24
REMARK                            x       y       z     vdW  Elec       q    Type
REMARK                         _______ _______ _______ _____ _____    ______ ____
ROOT
ATOM      1  C   UNL     1       3.575   7.609   0.959  0.00  0.00    +0.328 C 
ENDROOT
BRANCH   1   2
ATOM      2  C   UNL     1       3.548   6.234   0.344  0.00  0.00    +0.255 C 
ATOM      3  O   UNL     1       4.577   5.725  -0.049  0.00  0.00    -0.272 OA
ATOM      4  N   UNL     1       2.381   5.570   0.230  0.00  0.00    -0.282 N 
ATOM      5  H   UNL     1       1.550   6.003   0.479  0.00  0.00    +0.155 HD
BRANCH   4   6
ATOM      6  C   UNL     1       2.368   4.262  -0.244  0.00  0.00    +0.045 A 
ATOM      7  C   UNL     1       3.249   3.874  -1.254  0.00  0.00    +0.024 A 
ATOM      8  C   UNL     1       3.239   2.579  -1.727  0.00  0.00    +0.003 A 
ATOM      9  C   UNL     1       2.356   1.644  -1.208  0.00  0.00    +0.012 A 
ATOM     10  C   UNL     1       1.470   2.009  -0.202  0.00  0.00    +0.035 A 
ATOM     11  C   UNL     1       1.473   3.330   0.288  0.00  0.00    +0.054 A 
ATOM     12  C   UNL     1       0.531   3.716   1.355  0.00  0.00    +0.196 C 
ATOM     13  O   UNL     1       0.681   4.761   1.958  0.00  0.00    -0.287 OA
ATOM     14  C   UNL     1      -0.598   2.818   1.683  0.00  0.00    +0.033 A 
ATOM     15  C   UNL     1      -1.655   3.267   2.468  0.00  0.00    +0.012 A 
ATOM     16  C   UNL     1      -2.714   2.414   2.748  0.00  0.00    +0.001 A 
ATOM     17  C   UNL     1      -2.717   1.117   2.269  0.00  0.00    +0.001 A 
ATOM     18  C   UNL     1      -1.669   0.654   1.492  0.00  0.00    +0.012 A 
ATOM     19  C   UNL     1      -0.606   1.498   1.191  0.00  0.00    +0.033 A 
ATOM     20  C   UNL     1       0.523   1.022   0.361  0.00  0.00    +0.195 C 
ATOM     21  O   UNL     1       0.666  -0.164   0.141  0.00  0.00    -0.287 OA
ENDBRANCH   4   6
ENDBRANCH   1   2
BRANCH   1  22
ATOM     22  O   UNL     1       4.939   8.109   0.967  0.00  0.00    -0.452 OA
BRANCH  22  23
ATOM     23  C   UNL     1       5.138   9.335   1.488  0.00  0.00    +0.340 C 
ATOM     24  O   UNL     1       4.198   9.970   1.923  0.00  0.00    -0.245 OA
BRANCH  23  37
ATOM     25  C   UNL     1       8.007  11.413   7.697  0.00  0.00    +0.001 A 
ATOM     26  C   UNL     1       6.731  10.878   7.672  0.00  0.00    +0.001 A 
ATOM     27  C   UNL     1       6.165  10.472   6.476  0.00  0.00    +0.012 A 
ATOM     28  C   UNL     1       6.882  10.603   5.290  0.00  0.00    +0.033 A 
ATOM     29  C   UNL     1       8.179  11.147   5.316  0.00  0.00    +0.033 A 
ATOM     30  C   UNL     1       8.733  11.549   6.527  0.00  0.00    +0.012 A 
ATOM     31  C   UNL     1       8.947  11.288   4.061  0.00  0.00    +0.195 C 
ATOM     32  O   UNL     1      10.067  11.758   4.083  0.00  0.00    -0.287 OA
ATOM     33  C   UNL     1       8.351  10.857   2.779  0.00  0.00    +0.034 A 
ATOM     34  C   UNL     1       9.070  10.988   1.591  0.00  0.00    +0.012 A 
ATOM     35  C   UNL     1       8.512  10.584   0.392  0.00  0.00    +0.002 A 
ATOM     36  C   UNL     1       7.242  10.043   0.355  0.00  0.00    +0.016 A 
ATOM     37  C   UNL     1       6.500   9.909   1.530  0.00  0.00    +0.070 A 
ATOM     38  C   UNL     1       7.057  10.315   2.753  0.00  0.00    +0.047 A 
ATOM     39  C   UNL     1       6.287  10.172   4.007  0.00  0.00    +0.195 C 
ATOM     40  O   UNL     1       5.167   9.703   3.983  0.00  0.00    -0.287 OA
ENDBRANCH  23  37
ENDBRANCH  22  23
ENDBRANCH   1  22
TORSDOF 5
