REMARK  Name = ZINC58057546
REMARK  6 active torsions:
REMARK  status: ('A' for Active; 'I' for Inactive)
REMARK    1  A    between atoms: C_1  and  C_2
REMARK    2  A    between atoms: C_8  and  C_10
REMARK    3  A    between atoms: C_13  and  C_17
REMARK    4  A    between atoms: C_14  and  N_16
REMARK    5  A    between atoms: C_17  and  C_18
REMARK    6  A    between atoms: C_17  and  C_19
REMARK                            x       y       z     vdW  Elec       q    Type
REMARK                         _______ _______ _______ _____ _____    ______ ____
ROOT
ATOM      1  C   UNL     1       2.537  -2.644  -0.055  0.00  0.00    +0.002 A 
ATOM      2  C   UNL     1       2.607  -4.037  -0.038  0.00  0.00    +0.010 A 
ATOM      3  C   UNL     1       3.835  -4.667  -0.017  0.00  0.00    +0.006 A 
ATOM      4  C   UNL     1       4.999  -3.921  -0.013  0.00  0.00    -0.024 A 
ATOM      5  C   UNL     1       4.940  -2.533  -0.031  0.00  0.00    +0.029 A 
ATOM      6  C   UNL     1       3.711  -1.892  -0.057  0.00  0.00    +0.033 A 
ENDROOT
BRANCH   1  14
ATOM      7  C   UNL     1      -0.018   1.502  -0.144  0.00  0.00    +0.086 C 
ATOM      8  C   UNL     1       0.002  -0.005  -0.120  0.00  0.00    +0.107 A 
ATOM      9  N   UNL     1      -1.167  -0.677  -0.119  0.00  0.00    -0.311 N 
ATOM     10  H   UNL     1      -2.004  -0.188  -0.135  0.00  0.00    +0.170 HD
ATOM     11  C   UNL     1      -1.176  -2.026  -0.097  0.00  0.00    +0.252 A 
ATOM     12  O   UNL     1      -2.230  -2.641  -0.097  0.00  0.00    -0.268 OA
ATOM     13  C   UNL     1       0.053  -2.710  -0.075  0.00  0.00    +0.098 A 
ATOM     14  C   UNL     1       1.220  -1.966  -0.077  0.00  0.00    +0.078 A 
ATOM     15  N   UNL     1       1.150  -0.624  -0.105  0.00  0.00    -0.234 NA
ENDBRANCH   1  14
BRANCH   5  16
ATOM     16  N   UNL     1       6.119  -1.784  -0.027  0.00  0.00    -0.358 N 
ATOM     17  H   UNL     1       6.977  -2.229  -0.107  0.00  0.00    +0.142 HD
ATOM     18  H   UNL     1       6.080  -0.818   0.056  0.00  0.00    +0.142 HD
ENDBRANCH   5  16
BRANCH   4  19
ATOM     19  C   UNL     1       6.336  -4.616   0.009  0.00  0.00    +0.015 C 
ATOM     20  C   UNL     1       6.493  -5.377   1.328  0.00  0.00    +0.012 C 
ATOM     21  C   UNL     1       6.420  -5.600  -1.160  0.00  0.00    +0.012 C 
ENDBRANCH   4  19
TORSDOF 3
