REMARK  Name = ZINC40046014
REMARK  6 active torsions:
REMARK  status: ('A' for Active; 'I' for Inactive)
REMARK    1  A    between atoms: C_1  and  C_2
REMARK    2  A    between atoms: C_2  and  C_3
REMARK    3  A    between atoms: C_17  and  C_19
REMARK    4  A    between atoms: C_22  and  O_27
REMARK    5  A    between atoms: C_23  and  O_25
REMARK    6  A    between atoms: O_25  and  C_26
REMARK                            x       y       z     vdW  Elec       q    Type
REMARK                         _______ _______ _______ _____ _____    ______ ____
ROOT
ATOM      1  C   UNL     1      -1.412  -0.526   0.013  0.00  0.00    -0.047 A 
ATOM      2  C   UNL     1      -2.051  -0.766   1.221  0.00  0.00    +0.007 A 
ATOM      3  C   UNL     1      -3.341  -1.246   1.253  0.00  0.00    +0.047 A 
ATOM      4  C   UNL     1      -4.024  -1.495   0.062  0.00  0.00    +0.139 A 
ATOM      5  C   UNL     1      -3.369  -1.242  -1.154  0.00  0.00    +0.065 A 
ATOM      6  C   UNL     1      -2.062  -0.755  -1.168  0.00  0.00    +0.019 A 
ATOM      7  C   UNL     1      -4.093  -1.489  -2.426  0.00  0.00    +0.199 A 
ATOM      8  O   UNL     1      -3.553  -1.458  -3.518  0.00  0.00    -0.287 OA
ATOM      9  C   UNL     1      -5.520  -1.774  -2.244  0.00  0.00    +0.072 A 
ATOM     10  C   UNL     1      -6.041  -1.994  -1.000  0.00  0.00    +0.199 A 
ATOM     11  O   UNL     1      -5.288  -1.972   0.117  0.00  0.00    -0.450 OA
ATOM     12  C   UNL     1      -7.486  -2.240  -1.141  0.00  0.00    +0.289 C 
ATOM     13  O   UNL     1      -8.246  -2.467  -0.221  0.00  0.00    -0.266 OA
ATOM     14  N   UNL     1      -7.843  -2.178  -2.441  0.00  0.00    -0.232 N 
ATOM     15  C   UNL     1      -6.636  -1.882  -3.231  0.00  0.00    +0.152 C 
ATOM     16  C   UNL     1      -9.119  -2.360  -2.943  0.00  0.00    +0.169 A 
ATOM     17  N   UNL     1      -9.527  -2.318  -4.190  0.00  0.00    -0.224 NA
ATOM     18  C   UNL     1     -10.816  -2.518  -4.540  0.00  0.00    +0.080 A 
ATOM     19  C   UNL     1     -11.382  -2.499  -5.835  0.00  0.00    +0.030 A 
ATOM     20  C   UNL     1     -12.722  -2.723  -6.018  0.00  0.00    +0.022 A 
ATOM     21  C   UNL     1     -13.568  -2.973  -4.946  0.00  0.00    +0.042 A 
ATOM     22  C   UNL     1     -13.047  -2.998  -3.664  0.00  0.00    +0.037 A 
ATOM     23  C   UNL     1     -11.707  -2.776  -3.473  0.00  0.00    +0.042 A 
ATOM     24  S   UNL     1     -10.630  -2.721  -2.060  0.00  0.00    -0.052 S 
ATOM     25 CL   UNL     1     -15.261  -3.251  -5.211  0.00  0.00    -0.084 Cl
ENDROOT
BRANCH  15  26
ATOM     26  C   UNL     1      -6.805  -0.580  -3.970  0.00  0.00    -0.018 A 
ATOM     27  C   UNL     1      -7.483   0.468  -3.375  0.00  0.00    +0.009 A 
ATOM     28  C   UNL     1      -7.640   1.665  -4.049  0.00  0.00    +0.049 A 
ATOM     29  C   UNL     1      -7.118   1.816  -5.324  0.00  0.00    +0.158 A 
ATOM     30  C   UNL     1      -6.435   0.761  -5.922  0.00  0.00    +0.162 A 
ATOM     31  C   UNL     1      -6.277  -0.434  -5.239  0.00  0.00    +0.055 A 
BRANCH  30  32
ATOM     32  O   UNL     1      -5.921   0.905  -7.173  0.00  0.00    -0.491 OA
ATOM     33  C   UNL     1      -5.233  -0.220  -7.724  0.00  0.00    +0.277 C 
ENDBRANCH  30  32
BRANCH  29  34
ATOM     34  O   UNL     1      -7.273   2.992  -5.989  0.00  0.00    -0.503 OA
ATOM     35  H   UNL     1      -6.559   3.627  -5.835  0.00  0.00    +0.292 HD
ENDBRANCH  29  34
ENDBRANCH  15  26
BRANCH   1  37
ATOM     36  C   UNL     1      -0.019   1.526   0.010  0.00  0.00    +0.009 C 
ATOM     37  C   UNL     1       0.002  -0.004   0.002  0.00  0.00    +0.032 C 
ENDBRANCH   1  37
TORSDOF 4
