REMARK  Name = ZINC39715643
REMARK  9 active torsions:
REMARK  status: ('A' for Active; 'I' for Inactive)
REMARK    1  A    between atoms: C_7  and  C_10
REMARK    2  A    between atoms: C_10  and  C_11
REMARK    3  A    between atoms: C_11  and  N_12
REMARK    4  A    between atoms: C_13  and  C_15
REMARK    5  A    between atoms: C_15  and  S_16
REMARK    6  A    between atoms: S_16  and  C_17
REMARK    7  A    between atoms: C_21  and  C_28
REMARK    8  A    between atoms: N_23  and  C_24
REMARK    9  A    between atoms: C_24  and  C_25
REMARK                            x       y       z     vdW  Elec       q    Type
REMARK                         _______ _______ _______ _____ _____    ______ ____
ROOT
ATOM      1  C   UNL     1      -5.695   7.093  -2.327  0.00  0.00    +0.167 C 
ENDROOT
BRANCH   1   3
ATOM      2  N   UNL     1      -4.965   5.141  -0.995  0.00  0.00    -0.314 N 
ATOM      3  C   UNL     1      -5.186   5.679  -2.210  0.00  0.00    +0.223 C 
ATOM      4  O   UNL     1      -4.977   5.026  -3.210  0.00  0.00    -0.275 OA
ATOM      5  H   UNL     1      -5.133   5.664  -0.195  0.00  0.00    +0.149 HD
BRANCH   2   6
ATOM      6  C   UNL     1      -4.471   3.767  -0.881  0.00  0.00    +0.109 C 
BRANCH   6   7
ATOM      7  C   UNL     1      -4.306   3.405   0.596  0.00  0.00    +0.056 C 
BRANCH   7  14
ATOM      8  C   UNL     1      -0.017   1.518   0.470  0.00  0.00    +0.001 A 
ATOM      9  C   UNL     1      -0.028   0.138   0.624  0.00  0.00    +0.002 A 
ATOM     10  C   UNL     1      -1.215  -0.540   0.791  0.00  0.00    +0.026 A 
ATOM     11  C   UNL     1      -2.416   0.161   0.808  0.00  0.00    +0.047 A 
ATOM     12  N   UNL     1      -3.732  -0.215   0.951  0.00  0.00    -0.360 N 
ATOM     13  C   UNL     1      -4.541   0.887   0.893  0.00  0.00    +0.087 A 
ATOM     14  C   UNL     1      -3.798   1.991   0.713  0.00  0.00    -0.021 A 
ATOM     15  C   UNL     1      -2.399   1.560   0.652  0.00  0.00    +0.003 A 
ATOM     16  C   UNL     1      -1.184   2.228   0.489  0.00  0.00    +0.010 A 
ATOM     17  H   UNL     1      -4.041  -1.127   1.075  0.00  0.00    +0.165 HD
ENDBRANCH   7  14
ENDBRANCH   6   7
ENDBRANCH   2   6
ENDBRANCH   1   3
BRANCH   1  18
ATOM     18  S   UNL     1      -5.890   7.522  -4.079  0.00  0.00    -0.116 S 
BRANCH  18  19
ATOM     19  C   UNL     1      -6.500   9.231  -4.046  0.00  0.00    +0.201 C 
ATOM     20  N   UNL     1      -5.542  10.098  -3.325  0.00  0.00    -0.229 NA
ATOM     21  N   UNL     1      -6.389  11.048  -2.587  0.00  0.00    -0.233 NA
ATOM     22  C   UNL     1      -7.538  10.209  -2.156  0.00  0.00    +0.178 C 
ATOM     23  N   UNL     1      -7.775   9.299  -3.302  0.00  0.00    -0.246 NA
ATOM     24  H   UNL     1      -4.934  10.581  -3.970  0.00  0.00    +0.143 HD
ATOM     25  H   UNL     1      -6.696  11.800  -3.187  0.00  0.00    +0.143 HD
BRANCH  22  26
ATOM     26  C   UNL     1      -8.751  11.066  -1.900  0.00  0.00    +0.022 A 
ATOM     27  C   UNL     1      -9.557  11.101  -0.811  0.00  0.00    +0.014 A 
ATOM     28  C   UNL     1     -10.625  11.978  -0.795  0.00  0.00    +0.008 A 
ATOM     29  C   UNL     1     -10.834  12.778  -1.870  0.00  0.00    +0.045 A 
ATOM     30  S   UNL     1      -9.494  12.304  -2.950  0.00  0.00    -0.099 S 
ENDBRANCH  22  26
BRANCH  23  31
ATOM     31  C   UNL     1      -8.858   9.800  -4.157  0.00  0.00    +0.213 C 
BRANCH  31  32
ATOM     32  C   UNL     1      -9.207   8.758  -5.188  0.00  0.00    +0.370 C 
ATOM     33  O   UNL     1      -8.609   7.696  -5.208  0.00  0.00    -0.245 OA
ATOM     34  O   UNL     1     -10.088   8.977  -6.002  0.00  0.00    -0.245 OA
ENDBRANCH  31  32
ENDBRANCH  23  31
ENDBRANCH  18  19
ENDBRANCH   1  18
TORSDOF 9
