REMARK  Name = ZINC20134154
REMARK  6 active torsions:
REMARK  status: ('A' for Active; 'I' for Inactive)
REMARK    1  A    between atoms: C_1  and  C_2
REMARK    2  A    between atoms: C_5  and  C_9
REMARK    3  A    between atoms: C_6  and  C_8
REMARK    4  A    between atoms: C_9  and  S_10
REMARK    5  A    between atoms: S_10  and  C_11
REMARK    6  A    between atoms: C_16  and  C_26
REMARK                            x       y       z     vdW  Elec       q    Type
REMARK                         _______ _______ _______ _____ _____    ______ ____
ROOT
ATOM      1  C   UNL     1       3.891   5.769  -0.836  0.00  0.00    +0.211 A 
ATOM      2  N   UNL     1       4.425   4.551  -0.654  0.00  0.00    -0.187 NA
ATOM      3  C   UNL     1       3.484   3.708  -0.328  0.00  0.00    +0.219 A 
ATOM      4  N   UNL     1       2.308   4.381  -0.289  0.00  0.00    -0.220 N 
ATOM      5  N   UNL     1       2.595   5.704  -0.622  0.00  0.00    -0.141 NA
ATOM      6  C   UNL     1       1.036   3.755   0.049  0.00  0.00    +0.175 C 
ATOM      7  C   UNL     1       1.172   2.249   0.003  0.00  0.00    +0.041 C 
ATOM      8  C   UNL     1       2.375   1.638  -0.039  0.00  0.00    +0.020 C 
ATOM      9  N   UNL     1       3.550   2.352  -0.054  0.00  0.00    -0.287 N 
ATOM     10  C   UNL     1       2.480   0.132  -0.079  0.00  0.00    +0.052 C 
ATOM     11  C   UNL     1       1.296  -0.487   0.666  0.00  0.00    +0.014 C 
ATOM     12  C   UNL     1       0.002  -0.004   0.002  0.00  0.00    +0.080 C 
ATOM     13  C   UNL     1      -0.018   1.499   0.010  0.00  0.00    +0.163 C 
ATOM     14  O   UNL     1      -1.086   2.079   0.018  0.00  0.00    -0.292 OA
ATOM     15  H   UNL     1       4.522   1.877   0.144  0.00  0.00    +0.155 HD
ENDROOT
BRANCH   6  16
ATOM     16  C   UNL     1       0.624   4.178   1.435  0.00  0.00    -0.018 A 
ATOM     17  C   UNL     1       1.429   3.876   2.518  0.00  0.00    +0.007 A 
ATOM     18  C   UNL     1       1.053   4.267   3.789  0.00  0.00    +0.015 A 
ATOM     19  C   UNL     1      -0.133   4.953   3.980  0.00  0.00    +0.018 A 
ATOM     20  C   UNL     1      -0.941   5.250   2.897  0.00  0.00    +0.015 A 
ATOM     21  C   UNL     1      -0.562   4.863   1.625  0.00  0.00    +0.007 A 
ATOM     22 BR   UNL     1      -0.650   5.483   5.719  0.00  0.00    -0.050 Br
ENDBRANCH   6  16
BRANCH   1  23
ATOM     23  S   UNL     1       4.783   7.220  -1.287  0.00  0.00    -0.080 S 
BRANCH  23  24
ATOM     24  C   UNL     1       6.501   6.653  -1.429  0.00  0.00    +0.112 C 
BRANCH  24  29
ATOM     25  C   UNL     1       9.882  11.098  -2.912  0.00  0.00    +0.044 C 
ATOM     26  C   UNL     1       9.000   9.939  -2.525  0.00  0.00    -0.050 A 
ATOM     27  C   UNL     1       8.773   9.658  -1.190  0.00  0.00    +0.003 A 
ATOM     28  C   UNL     1       7.964   8.595  -0.836  0.00  0.00    +0.005 A 
ATOM     29  C   UNL     1       7.382   7.812  -1.815  0.00  0.00    -0.034 A 
ATOM     30  C   UNL     1       7.613   8.090  -3.150  0.00  0.00    -0.046 A 
ATOM     31  C   UNL     1       8.418   9.157  -3.505  0.00  0.00    +0.007 A 
ATOM     32  C   UNL     1       6.983   7.233  -4.217  0.00  0.00    +0.044 C 
ENDBRANCH  24  29
ENDBRANCH  23  24
ENDBRANCH   1  23
TORSDOF 4
