REMARK  Name = ZINC05105939
REMARK  10 active torsions:
REMARK  status: ('A' for Active; 'I' for Inactive)
REMARK    1  A    between atoms: C_1  and  O_2
REMARK    2  A    between atoms: O_2  and  C_3
REMARK    3  A    between atoms: C_6  and  O_34
REMARK    4  A    between atoms: C_9  and  C_20
REMARK    5  A    between atoms: C_11  and  C_13
REMARK    6  A    between atoms: C_20  and  C_22
REMARK    7  A    between atoms: C_20  and  O_33
REMARK    8  A    between atoms: C_22  and  N_67
REMARK    9  A    between atoms: C_23  and  N_67
REMARK   10  A    between atoms: O_34  and  C_35
REMARK                            x       y       z     vdW  Elec       q    Type
REMARK                         _______ _______ _______ _____ _____    ______ ____
ROOT
ATOM      1  C   UNL     1      -5.121   7.256  -1.002  0.00  0.00    +0.130 A 
ATOM      2  C   UNL     1      -6.497   7.311  -0.959  0.00  0.00    +0.050 A 
ATOM      3  C   UNL     1      -7.223   7.813  -2.034  0.00  0.00    +0.051 A 
ATOM      4  C   UNL     1      -6.594   8.263  -3.160  0.00  0.00    +0.146 A 
ATOM      5  C   UNL     1      -5.187   8.223  -3.243  0.00  0.00    +0.117 A 
ATOM      6  C   UNL     1      -4.445   7.708  -2.152  0.00  0.00    +0.051 A 
ATOM      7  C   UNL     1      -3.040   7.673  -2.232  0.00  0.00    -0.006 A 
ATOM      8  C   UNL     1      -2.446   8.130  -3.371  0.00  0.00    +0.035 A 
ATOM      9  C   UNL     1      -3.236   8.624  -4.421  0.00  0.00    +0.072 A 
ATOM     10  N   UNL     1      -4.552   8.658  -4.335  0.00  0.00    -0.243 NA
ENDROOT
BRANCH   9  11
ATOM     11  C   UNL     1      -2.577   9.118  -5.654  0.00  0.00    +0.000 A 
ATOM     12  C   UNL     1      -1.187   9.095  -5.761  0.00  0.00    +0.011 A 
ATOM     13  C   UNL     1      -0.579   9.552  -6.912  0.00  0.00    +0.020 A 
ATOM     14  C   UNL     1      -1.346  10.042  -7.955  0.00  0.00    +0.041 A 
ATOM     15  C   UNL     1      -2.727  10.071  -7.852  0.00  0.00    +0.020 A 
ATOM     16  C   UNL     1      -3.345   9.612  -6.707  0.00  0.00    +0.011 A 
ATOM     17 CL   UNL     1      -0.575  10.622  -9.398  0.00  0.00    -0.084 Cl
ENDBRANCH   9  11
BRANCH   1  19
ATOM     18  C   UNL     1      -5.179   6.320   1.182  0.00  0.00    +0.277 C 
ATOM     19  O   UNL     1      -4.422   6.764   0.054  0.00  0.00    -0.494 OA
ENDBRANCH   1  19
BRANCH   4  20
ATOM     20  O   UNL     1      -7.324   8.749  -4.199  0.00  0.00    -0.493 OA
ATOM     21  C   UNL     1      -8.745   8.760  -4.045  0.00  0.00    +0.277 C 
ENDBRANCH   4  20
BRANCH   7  22
ATOM     22  C   UNL     1      -2.214   7.138  -1.091  0.00  0.00    +0.128 C 
BRANCH  22  23
ATOM     23  O   UNL     1      -0.885   7.657  -1.180  0.00  0.00    -0.389 OA
ATOM     24  H   UNL     1      -0.426   7.425  -1.998  0.00  0.00    +0.210 HD
ENDBRANCH  22  23
BRANCH  22  25
ATOM     25  C   UNL     1      -2.170   5.610  -1.165  0.00  0.00    -0.045 C 
BRANCH  25  26
ATOM     26  N   UNL     1      -1.462   5.088   0.019  0.00  0.00    +0.385 N 
ATOM     27  H   UNL     1      -1.960   5.382   0.868  0.00  0.00    -0.085 HD
ATOM     28  H   UNL     1      -0.507   5.465   0.036  0.00  0.00    -0.085 HD
BRANCH  26  29
ATOM     29  C   UNL     1      -1.404   3.615  -0.026  0.00  0.00    -0.067 C 
ATOM     30  C   UNL     1      -0.658   3.168  -1.285  0.00  0.00    -0.009 C 
ATOM     31  C   UNL     1      -0.594   1.640  -1.324  0.00  0.00    -0.012 C 
ATOM     32  C   UNL     1       0.144   1.129  -0.085  0.00  0.00    +0.007 C 
ATOM     33  C   UNL     1      -0.602   1.576   1.173  0.00  0.00    -0.012 C 
ATOM     34  C   UNL     1      -0.666   3.104   1.212  0.00  0.00    -0.009 C 
ATOM     35  C   UNL     1      -2.022   1.006   1.154  0.00  0.00    +0.007 C 
ATOM     36  C   UNL     1      -2.760   1.517  -0.085  0.00  0.00    -0.012 C 
ATOM     37  C   UNL     1      -2.014   1.070  -1.344  0.00  0.00    +0.007 C 
ATOM     38  C   UNL     1      -2.824   3.045  -0.046  0.00  0.00    -0.009 C 
ENDBRANCH  26  29
ENDBRANCH  25  26
ENDBRANCH  22  25
ENDBRANCH   7  22
TORSDOF 8
