REMARK  Name = ZINC02396849
REMARK  9 active torsions:
REMARK  status: ('A' for Active; 'I' for Inactive)
REMARK    1  A    between atoms: C_1  and  C_2
REMARK    2  A    between atoms: C_5  and  S_8
REMARK    3  A    between atoms: S_8  and  N_11
REMARK    4  A    between atoms: N_11  and  C_12
REMARK    5  A    between atoms: C_12  and  C_14
REMARK    6  A    between atoms: C_12  and  C_20
REMARK    7  A    between atoms: C_20  and  O_22
REMARK    8  A    between atoms: O_22  and  C_23
REMARK    9  A    between atoms: C_30  and  C_35
REMARK                            x       y       z     vdW  Elec       q    Type
REMARK                         _______ _______ _______ _____ _____    ______ ____
ROOT
ATOM      1  C   UNL     1       1.208   3.527  -0.012  0.00  0.00    +0.215 C 
ENDROOT
BRANCH   1   2
ATOM      2  C   UNL     1       1.132   2.022  -0.034  0.00  0.00    -0.018 A 
ATOM      3  C   UNL     1      -0.098   1.392   0.004  0.00  0.00    +0.006 A 
ATOM      4  C   UNL     1      -0.168   0.011  -0.017  0.00  0.00    +0.000 A 
ATOM      5  C   UNL     1       0.992  -0.738  -0.075  0.00  0.00    +0.000 A 
ATOM      6  C   UNL     1       2.222  -0.108  -0.112  0.00  0.00    +0.000 A 
ATOM      7  C   UNL     1       2.291   1.273  -0.091  0.00  0.00    +0.006 A 
ENDBRANCH   1   2
BRANCH   1   8
ATOM      8  N   UNL     1       2.322   3.948   0.841  0.00  0.00    -0.172 NA
ATOM      9  H   UNL     1       3.219   4.000   0.475  0.00  0.00    +0.149 HD
BRANCH   8  10
ATOM     10  S   UNL     1       2.051   4.333   2.428  0.00  0.00    +0.059 S 
ATOM     11  O   UNL     1       3.314   4.670   2.986  0.00  0.00    -0.153 OA
ATOM     12  O   UNL     1       0.947   5.228   2.446  0.00  0.00    -0.153 OA
BRANCH  10  17
ATOM     13  C   UNL     1       0.231  -0.707   5.202  0.00  0.00    +0.044 C 
ATOM     14  C   UNL     1       0.686   0.552   4.509  0.00  0.00    -0.050 A 
ATOM     15  C   UNL     1       2.032   0.861   4.450  0.00  0.00    +0.005 A 
ATOM     16  C   UNL     1       2.449   2.015   3.815  0.00  0.00    +0.029 A 
ATOM     17  C   UNL     1       1.520   2.861   3.238  0.00  0.00    +0.105 A 
ATOM     18  C   UNL     1       0.173   2.554   3.301  0.00  0.00    +0.029 A 
ATOM     19  C   UNL     1      -0.243   1.397   3.933  0.00  0.00    +0.005 A 
ENDBRANCH  10  17
ENDBRANCH   8  10
ENDBRANCH   1   8
BRANCH   1  20
ATOM     20  C   UNL     1       1.425   4.040  -1.412  0.00  0.00    +0.336 C 
ATOM     21  O   UNL     1       2.410   4.689  -1.671  0.00  0.00    -0.248 OA
BRANCH  20  22
ATOM     22  O   UNL     1       0.524   3.774  -2.372  0.00  0.00    -0.423 OA
BRANCH  22  23
ATOM     23  C   UNL     1       0.726   4.353  -3.584  0.00  0.00    +0.153 A 
ATOM     24  C   UNL     1       0.110   5.557  -3.881  0.00  0.00    +0.094 A 
ATOM     25  C   UNL     1       0.319   6.152  -5.117  0.00  0.00    +0.143 A 
ATOM     26  C   UNL     1       1.148   5.515  -6.059  0.00  0.00    +0.022 A 
ATOM     27  C   UNL     1       1.758   4.295  -5.744  0.00  0.00    +0.035 A 
ATOM     28  C   UNL     1       1.546   3.726  -4.521  0.00  0.00    +0.084 A 
ATOM     29 CL   UNL     1       2.303   2.213  -4.131  0.00  0.00    -0.080 Cl
ATOM     30  C   UNL     1       1.358   6.149  -7.363  0.00  0.00    -0.033 A 
ATOM     31  C   UNL     1       0.739   7.332  -7.608  0.00  0.00    +0.096 A 
ATOM     32  C   UNL     1      -0.079   7.914  -6.617  0.00  0.00    +0.337 A 
ATOM     33  O   UNL     1      -0.628   8.976  -6.850  0.00  0.00    -0.245 OA
ATOM     34  O   UNL     1      -0.267   7.328  -5.424  0.00  0.00    -0.422 OA
ATOM     35  C   UNL     1       2.238   5.505  -8.403  0.00  0.00    +0.045 C 
ENDBRANCH  22  23
ENDBRANCH  20  22
ENDBRANCH   1  20
TORSDOF 7
