REMARK  Name = ZINC09517254
REMARK  9 active torsions:
REMARK  status: ('A' for Active; 'I' for Inactive)
REMARK    1  A    between atoms: C_1  and  C_2
REMARK    2  A    between atoms: C_2  and  O_3
REMARK    3  A    between atoms: O_3  and  C_4
REMARK    4  A    between atoms: C_4  and  C_6
REMARK    5  A    between atoms: C_12  and  C_14
REMARK    6  A    between atoms: C_12  and  C_21
REMARK    7  A    between atoms: C_12  and  N_52
REMARK    8  A    between atoms: C_22  and  O_30
REMARK    9  A    between atoms: C_27  and  C_29
REMARK                            x       y       z     vdW  Elec       q    Type
REMARK                         _______ _______ _______ _____ _____    ______ ____
ROOT
ATOM      1  C   UNL     1      -2.776   7.455   5.022  0.00  0.00    +0.007 C 
ENDROOT
BRANCH   1   2
ATOM      2  C   UNL     1      -4.258   7.225   5.177  0.00  0.00    +0.045 A 
ATOM      3  C   UNL     1      -4.944   6.840   6.259  0.00  0.00    +0.225 A 
ATOM      4  N   UNL     1      -6.309   6.686   6.204  0.00  0.00    -0.173 N 
ATOM      5  C   UNL     1      -6.916   6.930   5.011  0.00  0.00    +0.199 A 
ATOM      6  S   UNL     1      -5.557   7.387   3.962  0.00  0.00    -0.050 S 
ATOM      7  N   UNL     1      -8.202   6.735   5.126  0.00  0.00    -0.205 NA
ATOM      8  C   UNL     1      -8.480   6.363   6.373  0.00  0.00    +0.150 A 
ATOM      9  N   UNL     1      -7.374   6.317   7.066  0.00  0.00    -0.147 NA
ATOM     10  C   UNL     1      -9.855   6.045   6.902  0.00  0.00    +0.090 C 
BRANCH   3  11
ATOM     11  O   UNL     1      -4.286   6.603   7.426  0.00  0.00    -0.492 OA
ATOM     12  H   UNL     1      -4.203   7.380   7.995  0.00  0.00    +0.294 HD
ENDBRANCH   3  11
ENDBRANCH   1   2
BRANCH   1  18
ATOM     13  C   UNL     1      -0.344   6.071   2.502  0.00  0.00    +0.081 C 
ATOM     14  C   UNL     1      -0.762   4.599   2.558  0.00  0.00    +0.011 C 
ATOM     15  C   UNL     1      -2.282   4.514   2.723  0.00  0.00    -0.018 C 
ATOM     16  C   UNL     1      -2.696   5.267   3.989  0.00  0.00    -0.077 C 
ATOM     17  C   UNL     1      -0.815   6.779   3.775  0.00  0.00    -0.063 C 
ATOM     18  N   UNL     1      -2.287   6.682   3.862  0.00  0.00    +0.388 N 
ATOM     19  H   UNL     1      -2.698   7.071   3.005  0.00  0.00    -0.080 HD
BRANCH  13  20
ATOM     20  C   UNL     1       1.156   6.164   2.399  0.00  0.00    +0.308 C 
ATOM     21  O   UNL     1       1.786   6.738   3.256  0.00  0.00    -0.251 OA
BRANCH  20  22
ATOM     22  O   UNL     1       1.793   5.610   1.356  0.00  0.00    -0.465 OA
BRANCH  22  24
ATOM     23  C   UNL     1       3.784   5.051   0.069  0.00  0.00    +0.048 C 
ATOM     24  C   UNL     1       3.239   5.739   1.323  0.00  0.00    +0.229 C 
ENDBRANCH  22  24
ENDBRANCH  20  22
ENDBRANCH  13  20
ENDBRANCH   1  18
BRANCH   1  25
ATOM     25  C   UNL     1      -2.518   8.918   4.774  0.00  0.00    -0.038 A 
ATOM     26  C   UNL     1      -2.446   9.398   3.479  0.00  0.00    +0.004 A 
ATOM     27  C   UNL     1      -2.214  10.741   3.252  0.00  0.00    +0.000 A 
ATOM     28  C   UNL     1      -2.044  11.605   4.318  0.00  0.00    +0.001 A 
ATOM     29  C   UNL     1      -2.111  11.126   5.613  0.00  0.00    +0.020 A 
ATOM     30  C   UNL     1      -2.349   9.782   5.841  0.00  0.00    +0.043 A 
ATOM     31 CL   UNL     1      -2.434   9.180   7.467  0.00  0.00    -0.083 Cl
ENDBRANCH   1  25
TORSDOF 7
