REMARK  Name = ZINC39750610
REMARK  14 active torsions:
REMARK  status: ('A' for Active; 'I' for Inactive)
REMARK    1  A    between atoms: C_1  and  C_2
REMARK    2  A    between atoms: C_2  and  O_3
REMARK    3  A    between atoms: O_3  and  C_4
REMARK    4  A    between atoms: C_7  and  C_13
REMARK    5  A    between atoms: C_9  and  N_10
REMARK    6  A    between atoms: C_13  and  C_15
REMARK    7  A    between atoms: C_15  and  S_16
REMARK    8  A    between atoms: S_16  and  C_17
REMARK    9  A    between atoms: C_20  and  C_25
REMARK   10  A    between atoms: N_21  and  C_22
REMARK   11  A    between atoms: C_22  and  C_23
REMARK   12  A    between atoms: C_22  and  C_24
REMARK   13  A    between atoms: C_25  and  C_26
REMARK   14  A    between atoms: N_28  and  C_29
REMARK                            x       y       z     vdW  Elec       q    Type
REMARK                         _______ _______ _______ _____ _____    ______ ____
ROOT
ATOM      1  C   UNL     1       0.082  -9.585   0.029  0.00  0.00    +0.192 A 
ATOM      2  N   UNL     1      -0.543  -9.115   1.083  0.00  0.00    -0.122 NA
ATOM      3  N   UNL     1      -0.953 -10.088   1.817  0.00  0.00    -0.133 NA
ATOM      4  C   UNL     1      -0.617 -11.226   1.279  0.00  0.00    +0.143 A 
ATOM      5  N   UNL     1       0.049 -10.947   0.118  0.00  0.00    -0.303 N 
ENDROOT
BRANCH   5   6
ATOM      6  C   UNL     1       0.614 -11.909  -0.831  0.00  0.00    +0.085 C 
ATOM      7  C   UNL     1      -0.037 -11.715  -2.202  0.00  0.00    +0.030 C 
ATOM      8  C   UNL     1       2.123 -11.686  -0.947  0.00  0.00    +0.030 C 
ENDBRANCH   5   6
BRANCH   1   9
ATOM      9  S   UNL     1       0.818  -8.637  -1.261  0.00  0.00    -0.078 S 
BRANCH   9  10
ATOM     10  C   UNL     1       0.511  -6.917  -0.772  0.00  0.00    +0.157 C 
BRANCH  10  11
ATOM     11  C   UNL     1       1.097  -5.989  -1.804  0.00  0.00    +0.173 C 
ATOM     12  O   UNL     1       1.667  -6.443  -2.774  0.00  0.00    -0.291 OA
BRANCH  11  16
ATOM     13  C   UNL     1       0.755  -1.796  -1.312  0.00  0.00    +0.151 A 
ATOM     14  C   UNL     1       0.214  -2.655  -0.362  0.00  0.00    +0.048 A 
ATOM     15  C   UNL     1       0.323  -4.008  -0.517  0.00  0.00    +0.015 A 
ATOM     16  C   UNL     1       0.980  -4.535  -1.636  0.00  0.00    +0.021 A 
ATOM     17  C   UNL     1       1.524  -3.670  -2.593  0.00  0.00    +0.047 A 
ATOM     18  C   UNL     1       1.405  -2.308  -2.430  0.00  0.00    +0.168 A 
BRANCH  18  19
ATOM     19  N   UNL     1       1.973  -1.389  -3.442  0.00  0.00    +0.060 N 
ATOM     20  O   UNL     1       2.537  -1.835  -4.414  0.00  0.00    -0.126 OA
ATOM     21  O   UNL     1       1.872  -0.193  -3.297  0.00  0.00    -0.126 OA
ENDBRANCH  18  19
BRANCH  13  22
ATOM     22  O   UNL     1       0.644  -0.454  -1.151  0.00  0.00    -0.490 OA
BRANCH  22  24
ATOM     23  C   UNL     1      -0.061   1.535   0.028  0.00  0.00    +0.048 C 
ATOM     24  C   UNL     1      -0.035   0.005   0.019  0.00  0.00    +0.226 C 
ENDBRANCH  22  24
ENDBRANCH  13  22
ENDBRANCH  11  16
ENDBRANCH  10  11
ENDBRANCH   9  10
ENDBRANCH   1   9
BRANCH   4  25
ATOM     25  C   UNL     1      -0.914 -12.597   1.831  0.00  0.00    +0.172 C 
BRANCH  25  26
ATOM     26  C   UNL     1      -2.239 -13.077   1.298  0.00  0.00    +0.225 C 
ATOM     27  O   UNL     1      -2.879 -12.376   0.543  0.00  0.00    -0.275 OA
ATOM     28  N   UNL     1      -2.712 -14.286   1.659  0.00  0.00    -0.283 N 
ATOM     29  H   UNL     1      -2.165 -14.880   2.196  0.00  0.00    +0.155 HD
BRANCH  28  30
ATOM     30  C   UNL     1      -3.993 -14.685   1.258  0.00  0.00    +0.069 A 
ATOM     31  C   UNL     1      -4.957 -13.732   0.960  0.00  0.00    +0.026 A 
ATOM     32  C   UNL     1      -6.220 -14.128   0.564  0.00  0.00    +0.002 A 
ATOM     33  C   UNL     1      -6.526 -15.473   0.464  0.00  0.00    +0.003 A 
ATOM     34  C   UNL     1      -5.569 -16.426   0.760  0.00  0.00    +0.040 A 
ATOM     35  C   UNL     1      -4.301 -16.037   1.151  0.00  0.00    +0.144 A 
ATOM     36  F   UNL     1      -3.364 -16.968   1.434  0.00  0.00    -0.204 F 
ENDBRANCH  28  30
ENDBRANCH  25  26
ENDBRANCH   4  25
TORSDOF 11
