REMARK  Name = ZINC08788776
REMARK  17 active torsions:
REMARK  status: ('A' for Active; 'I' for Inactive)
REMARK    1  A    between atoms: C_1  and  C_2
REMARK    2  A    between atoms: C_5  and  N_8
REMARK    3  A    between atoms: C_9  and  C_11
REMARK    4  A    between atoms: C_11  and  C_13
REMARK    5  A    between atoms: C_11  and  N_14
REMARK    6  A    between atoms: C_15  and  C_17
REMARK    7  A    between atoms: C_23  and  C_25
REMARK    8  A    between atoms: C_25  and  C_27
REMARK    9  A    between atoms: C_25  and  N_31
REMARK   10  A    between atoms: C_27  and  C_28
REMARK   11  A    between atoms: C_28  and  C_29
REMARK   12  A    between atoms: C_28  and  C_30
REMARK   13  A    between atoms: C_32  and  O_34
REMARK   14  A    between atoms: O_34  and  C_35
REMARK   15  A    between atoms: C_35  and  C_36
REMARK   16  A    between atoms: C_35  and  C_37
REMARK   17  A    between atoms: C_35  and  C_38
REMARK                            x       y       z     vdW  Elec       q    Type
REMARK                         _______ _______ _______ _____ _____    ______ ____
ROOT
ATOM      1  C   UNL     1       1.955  -8.540   3.474  0.00  0.00    +0.078 C 
ATOM      2  C   UNL     1       2.460  -7.532   4.509  0.00  0.00    +0.032 C 
ATOM      3  C   UNL     1       2.175  -8.066   5.917  0.00  0.00    +0.108 C 
ATOM      4  N   UNL     1       2.764  -9.407   6.042  0.00  0.00    -0.300 N 
ATOM      5  C   UNL     1       2.416 -10.427   5.043  0.00  0.00    +0.108 C 
ATOM      6  C   UNL     1       2.698  -9.867   3.646  0.00  0.00    +0.032 C 
ATOM      7  C   UNL     1       3.608  -9.694   7.053  0.00  0.00    +0.236 C 
ATOM      8  O   UNL     1       3.809  -8.877   7.925  0.00  0.00    -0.274 OA
ENDROOT
BRANCH   1  10
ATOM      9  N   UNL     1       1.645  -6.835   1.708  0.00  0.00    -0.304 N 
ATOM     10  C   UNL     1       2.203  -8.002   2.088  0.00  0.00    +0.217 C 
ATOM     11  O   UNL     1       2.904  -8.619   1.314  0.00  0.00    -0.275 OA
ATOM     12  H   UNL     1       1.084  -6.342   2.326  0.00  0.00    +0.149 HD
BRANCH   9  13
ATOM     13  C   UNL     1       1.886  -6.313   0.361  0.00  0.00    +0.156 C 
ATOM     14  C   UNL     1       0.888  -6.939  -0.615  0.00  0.00    +0.038 C 
BRANCH  13  16
ATOM     15  N   UNL     1       1.886  -4.114  -0.773  0.00  0.00    -0.284 N 
ATOM     16  C   UNL     1       1.713  -4.816   0.364  0.00  0.00    +0.237 C 
ATOM     17  O   UNL     1       1.417  -4.242   1.391  0.00  0.00    -0.273 OA
ATOM     18  H   UNL     1       2.055  -4.579  -1.608  0.00  0.00    +0.155 HD
BRANCH  15  23
ATOM     19  C   UNL     1       1.632   1.552  -0.681  0.00  0.00    +0.044 C 
ATOM     20  C   UNL     1       1.700   0.047  -0.706  0.00  0.00    -0.050 A 
ATOM     21  C   UNL     1       2.200  -0.639   0.386  0.00  0.00    +0.005 A 
ATOM     22  C   UNL     1       2.263  -2.019   0.366  0.00  0.00    +0.023 A 
ATOM     23  C   UNL     1       1.823  -2.717  -0.750  0.00  0.00    +0.033 A 
ATOM     24  C   UNL     1       1.321  -2.025  -1.845  0.00  0.00    +0.023 A 
ATOM     25  C   UNL     1       1.256  -0.645  -1.817  0.00  0.00    +0.005 A 
ENDBRANCH  15  23
ENDBRANCH  13  16
ENDBRANCH   9  13
ENDBRANCH   1  10
BRANCH   7  26
ATOM     26  C   UNL     1       4.301 -11.032   7.098  0.00  0.00    +0.162 C 
BRANCH  26  27
ATOM     27  N   UNL     1       5.441 -10.960   8.015  0.00  0.00    -0.270 N 
ATOM     28  C   UNL     1       6.482 -11.803   7.864  0.00  0.00    +0.401 C 
ATOM     29  O   UNL     1       6.474 -12.622   6.966  0.00  0.00    -0.226 OA
ATOM     30  H   UNL     1       5.447 -10.306   8.731  0.00  0.00    +0.153 HD
BRANCH  28  31
ATOM     31  O   UNL     1       7.529 -11.737   8.706  0.00  0.00    -0.445 OA
BRANCH  31  32
ATOM     32  C   UNL     1       8.598 -12.661   8.487  0.00  0.00    +0.107 C 
ATOM     33  C   UNL     1       9.180 -12.444   7.089  0.00  0.00    +0.055 C 
ATOM     34  C   UNL     1       9.690 -12.436   9.535  0.00  0.00    +0.055 C 
ATOM     35  C   UNL     1       8.067 -14.091   8.602  0.00  0.00    +0.055 C 
ENDBRANCH  31  32
ENDBRANCH  28  31
ENDBRANCH  26  27
BRANCH  26  36
ATOM     36  C   UNL     1       3.319 -12.098   7.588  0.00  0.00    +0.035 C 
BRANCH  36  37
ATOM     37  C   UNL     1       3.973 -13.478   7.486  0.00  0.00    -0.015 C 
ATOM     38  C   UNL     1       3.040 -14.530   8.091  0.00  0.00    +0.007 C 
ATOM     39  C   UNL     1       4.233 -13.812   6.016  0.00  0.00    +0.007 C 
ENDBRANCH  36  37
ENDBRANCH  26  36
ENDBRANCH   7  26
TORSDOF 10
