REMARK  Name = ZINC12008559
REMARK  6 active torsions:
REMARK  status: ('A' for Active; 'I' for Inactive)
REMARK    1  A    between atoms: C_1  and  C_2
REMARK    2  A    between atoms: C_2  and  C_3
REMARK    3  A    between atoms: C_4  and  C_34
REMARK    4  A    between atoms: C_12  and  N_21
REMARK    5  A    between atoms: C_14  and  C_16
REMARK    6  A    between atoms: C_22  and  C_24
REMARK                            x       y       z     vdW  Elec       q    Type
REMARK                         _______ _______ _______ _____ _____    ______ ____
ROOT
ATOM      1  C   UNL     1      -4.633   6.697  -5.253  0.00  0.00    +0.038 A 
ATOM      2  C   UNL     1      -4.096   5.821  -4.356  0.00  0.00    +0.050 A 
ATOM      3  N   UNL     1      -3.466   6.276  -3.274  0.00  0.00    -0.217 NA
ATOM      4  C   UNL     1      -3.355   7.565  -3.036  0.00  0.00    +0.234 A 
ATOM      5  N   UNL     1      -3.870   8.486  -3.893  0.00  0.00    -0.291 N 
ATOM      6  H   UNL     1      -3.776   9.433  -3.705  0.00  0.00    +0.172 HD
ATOM      7  C   UNL     1      -4.514   8.078  -5.008  0.00  0.00    +0.256 A 
ATOM      8  O   UNL     1      -4.982   8.891  -5.788  0.00  0.00    -0.267 OA
ATOM      9  N   UNL     1      -2.698   7.991  -1.898  0.00  0.00    -0.184 N 
ATOM     10  C   UNL     1      -2.131   7.187  -0.950  0.00  0.00    +0.132 A 
ATOM     11  C   UNL     1      -1.585   7.990  -0.002  0.00  0.00    +0.077 A 
ATOM     12  C   UNL     1      -1.829   9.328  -0.377  0.00  0.00    +0.130 A 
ATOM     13  N   UNL     1      -2.499   9.322  -1.512  0.00  0.00    -0.159 NA
ATOM     14  C   UNL     1      -4.208   4.337  -4.593  0.00  0.00    +0.066 C 
ENDROOT
BRANCH  12  15
ATOM     15  C   UNL     1      -1.407  10.529   0.373  0.00  0.00    +0.155 A 
ATOM     16  C   UNL     1      -1.637  11.819   0.010  0.00  0.00    +0.051 A 
ATOM     17  C   UNL     1      -1.066  12.631   1.011  0.00  0.00    +0.042 A 
ATOM     18  C   UNL     1      -0.514  11.805   1.921  0.00  0.00    +0.196 A 
ATOM     19  O   UNL     1      -0.722  10.536   1.533  0.00  0.00    -0.461 OA
ENDBRANCH  12  15
BRANCH  10  20
ATOM     20  N   UNL     1      -2.112   5.794  -0.958  0.00  0.00    -0.270 N 
ATOM     21  C   UNL     1      -1.510   5.123   0.044  0.00  0.00    +0.224 C 
ATOM     22  O   UNL     1      -0.984   5.731   0.952  0.00  0.00    -0.275 OA
ATOM     23  H   UNL     1      -2.533   5.307  -1.684  0.00  0.00    +0.156 HD
BRANCH  21  24
ATOM     24  C   UNL     1      -1.490   3.616   0.036  0.00  0.00    +0.048 C 
ATOM     25  C   UNL     1      -0.773   3.123  -1.223  0.00  0.00    +0.019 C 
ATOM     26  C   UNL     1      -0.753   1.593  -1.232  0.00  0.00    -0.009 C 
ATOM     27  C   UNL     1      -0.013   1.086   0.008  0.00  0.00    +0.007 C 
ATOM     28  C   UNL     1      -0.729   1.579   1.267  0.00  0.00    -0.009 C 
ATOM     29  C   UNL     1      -0.750   3.109   1.275  0.00  0.00    +0.019 C 
ATOM     30  C   UNL     1      -2.164   1.050   1.278  0.00  0.00    +0.007 C 
ATOM     31  C   UNL     1      -2.904   1.556   0.038  0.00  0.00    -0.009 C 
ATOM     32  C   UNL     1      -2.188   1.063  -1.221  0.00  0.00    +0.007 C 
ATOM     33  C   UNL     1      -2.925   3.086   0.047  0.00  0.00    +0.019 C 
ENDBRANCH  21  24
ENDBRANCH  10  20
BRANCH   1  35
ATOM     34  C   UNL     1      -6.847   6.123  -6.210  0.00  0.00    +0.009 C 
ATOM     35  C   UNL     1      -5.344   6.195  -6.483  0.00  0.00    +0.039 C 
ENDBRANCH   1  35
TORSDOF 4
