REMARK  Name = ZINC65036474
REMARK  11 active torsions:
REMARK  status: ('A' for Active; 'I' for Inactive)
REMARK    1  A    between atoms: C_1  and  C_2
REMARK    2  A    between atoms: C_3  and  C_27
REMARK    3  A    between atoms: C_5  and  C_7
REMARK    4  A    between atoms: C_9  and  S_14
REMARK    5  A    between atoms: C_10  and  C_13
REMARK    6  A    between atoms: N_11  and  C_12
REMARK    7  A    between atoms: S_14  and  N_17
REMARK    8  A    between atoms: N_17  and  C_18
REMARK    9  A    between atoms: C_21  and  C_24
REMARK   10  A    between atoms: C_24  and  C_25
REMARK   11  A    between atoms: C_24  and  C_26
REMARK                            x       y       z     vdW  Elec       q    Type
REMARK                         _______ _______ _______ _____ _____    ______ ____
ROOT
ATOM      1  C   UNL     1       0.055  -2.913   2.295  0.00  0.00    +0.076 A 
ATOM      2  C   UNL     1       0.079  -4.279   2.241  0.00  0.00    +0.059 A 
ATOM      3  C   UNL     1       0.091  -4.747   3.561  0.00  0.00    +0.131 A 
ATOM      4  C   UNL     1       0.074  -3.671   4.381  0.00  0.00    +0.043 A 
ATOM      5  N   UNL     1       0.056  -2.545   3.619  0.00  0.00    -0.344 N 
ATOM      6  C   UNL     1       0.039  -1.170   4.124  0.00  0.00    +0.149 C 
ATOM      7  C   UNL     1       0.078  -3.713   5.888  0.00  0.00    +0.065 C 
ENDROOT
BRANCH   1  12
ATOM      8  C   UNL     1      -0.018   1.503   0.010  0.00  0.00    +0.067 C 
ATOM      9  C   UNL     1       0.002  -0.004   0.002  0.00  0.00    +0.058 A 
ATOM     10  C   UNL     1       0.005  -0.700  -1.200  0.00  0.00    +0.097 A 
ATOM     11  S   UNL     1       0.032  -2.386  -0.604  0.00  0.00    -0.061 S 
ATOM     12  C   UNL     1       0.036  -2.001   1.142  0.00  0.00    +0.126 A 
ATOM     13  N   UNL     1       0.022  -0.669   1.122  0.00  0.00    -0.242 NA
BRANCH  10  14
ATOM     14  C   UNL     1      -0.009  -0.195  -2.574  0.00  0.00    +0.255 C 
ATOM     15  O   UNL     1      -0.027   1.005  -2.781  0.00  0.00    -0.269 OA
ATOM     16  N   UNL     1      -0.003  -1.057  -3.610  0.00  0.00    -0.297 N 
ATOM     17  C   UNL     1       0.013  -2.523  -3.504  0.00  0.00    +0.108 C 
ATOM     18  C   UNL     1       0.042  -3.086  -4.941  0.00  0.00    +0.020 C 
ATOM     19  C   UNL     1       0.613  -1.903  -5.766  0.00  0.00    +0.020 C 
ATOM     20  C   UNL     1      -0.015  -0.686  -5.037  0.00  0.00    +0.108 C 
ENDBRANCH  10  14
ENDBRANCH   1  12
BRANCH   3  21
ATOM     21  S   UNL     1       0.123  -6.436   4.064  0.00  0.00    +0.093 S 
ATOM     22  O   UNL     1      -0.898  -6.588   5.041  0.00  0.00    -0.148 OA
ATOM     23  O   UNL     1       0.162  -7.213   2.875  0.00  0.00    -0.148 OA
BRANCH  21  24
ATOM     24  N   UNL     1       1.563  -6.688   4.842  0.00  0.00    -0.098 NA
BRANCH  24  25
ATOM     25  C   UNL     1       1.868  -7.950   5.355  0.00  0.00    +0.074 A 
ATOM     26  C   UNL     1       0.967  -8.997   5.210  0.00  0.00    +0.027 A 
ATOM     27  C   UNL     1       1.272 -10.244   5.718  0.00  0.00    +0.006 A 
ATOM     28  C   UNL     1       2.472 -10.452   6.372  0.00  0.00    -0.045 A 
ATOM     29  C   UNL     1       3.372  -9.412   6.519  0.00  0.00    +0.006 A 
ATOM     30  C   UNL     1       3.076  -8.163   6.008  0.00  0.00    +0.027 A 
BRANCH  28  31
ATOM     31  C   UNL     1       2.801 -11.814   6.926  0.00  0.00    +0.013 C 
ATOM     32  C   UNL     1       4.081 -12.336   6.271  0.00  0.00    +0.012 C 
ATOM     33  C   UNL     1       3.007 -11.713   8.439  0.00  0.00    +0.012 C 
ENDBRANCH  28  31
ENDBRANCH  24  25
ENDBRANCH  21  24
ENDBRANCH   3  21
TORSDOF 6
