REMARK  Name = ZINC09315239
REMARK  6 active torsions:
REMARK  status: ('A' for Active; 'I' for Inactive)
REMARK    1  A    between atoms: C_1  and  C_2
REMARK    2  A    between atoms: C_5  and  C_8
REMARK    3  A    between atoms: C_8  and  C_27
REMARK    4  A    between atoms: N_11  and  C_15
REMARK    5  A    between atoms: C_15  and  C_16
REMARK    6  A    between atoms: C_19  and  C_21
REMARK                            x       y       z     vdW  Elec       q    Type
REMARK                         _______ _______ _______ _____ _____    ______ ____
ROOT
ATOM      1  C   UNL     1       0.058  -4.275  -0.021  0.00  0.00    +0.135 C 
ATOM      2  C   UNL     1       0.763  -4.793  -1.260  0.00  0.00    +0.251 C 
ATOM      3  O   UNL     1       0.439  -4.616  -2.415  0.00  0.00    -0.272 OA
ATOM      4  N   UNL     1       1.825  -5.490  -0.810  0.00  0.00    -0.215 N 
ATOM      5  C   UNL     1       1.889  -5.485   0.526  0.00  0.00    +0.310 C 
ATOM      6  O   UNL     1       2.758  -6.046   1.163  0.00  0.00    -0.252 OA
ATOM      7  N   UNL     1       0.883  -4.789   1.086  0.00  0.00    -0.281 N 
ATOM      8  C   UNL     1      -1.365  -4.831   0.060  0.00  0.00    +0.047 C 
ATOM      9  H   UNL     1       0.730  -4.652   2.034  0.00  0.00    +0.152 HD
ENDROOT
BRANCH   1  14
ATOM     10  C   UNL     1      -0.018   1.503   0.010  0.00  0.00    +0.044 C 
ATOM     11  C   UNL     1       0.002  -0.004   0.002  0.00  0.00    -0.050 A 
ATOM     12  C   UNL     1      -0.006  -0.689  -1.199  0.00  0.00    +0.004 A 
ATOM     13  C   UNL     1       0.018  -2.071  -1.206  0.00  0.00    +0.006 A 
ATOM     14  C   UNL     1       0.039  -2.768  -0.013  0.00  0.00    -0.015 A 
ATOM     15  C   UNL     1       0.041  -2.084   1.188  0.00  0.00    +0.006 A 
ATOM     16  C   UNL     1       0.023  -0.702   1.195  0.00  0.00    +0.004 A 
ENDBRANCH   1  14
BRANCH   4  17
ATOM     17  C   UNL     1       2.790  -6.170  -1.678  0.00  0.00    +0.215 C 
BRANCH  17  18
ATOM     18  C   UNL     1       3.913  -5.224  -2.018  0.00  0.00    +0.235 A 
ATOM     19  N   UNL     1       5.018  -5.067  -1.345  0.00  0.00    -0.110 NA
ATOM     20  N   UNL     1       5.750  -4.179  -1.921  0.00  0.00    -0.107 NA
ATOM     21  C   UNL     1       5.132  -3.735  -2.989  0.00  0.00    +0.248 A 
ATOM     22  O   UNL     1       3.958  -4.394  -3.074  0.00  0.00    -0.419 OA
BRANCH  21  23
ATOM     23  C   UNL     1       5.631  -2.709  -3.929  0.00  0.00    +0.038 A 
ATOM     24  C   UNL     1       4.864  -2.337  -5.034  0.00  0.00    +0.013 A 
ATOM     25  C   UNL     1       5.334  -1.376  -5.904  0.00  0.00    +0.001 A 
ATOM     26  C   UNL     1       6.568  -0.788  -5.690  0.00  0.00    +0.000 A 
ATOM     27  C   UNL     1       7.336  -1.156  -4.599  0.00  0.00    +0.001 A 
ATOM     28  C   UNL     1       6.875  -2.112  -3.718  0.00  0.00    +0.013 A 
ENDBRANCH  21  23
ENDBRANCH  17  18
ENDBRANCH   4  17
TORSDOF 4
