REMARK  Name = ZINC08770113
REMARK  11 active torsions:
REMARK  status: ('A' for Active; 'I' for Inactive)
REMARK    1  A    between atoms: C_7  and  C_11
REMARK    2  A    between atoms: C_11  and  C_12
REMARK    3  A    between atoms: C_12  and  N_60
REMARK    4  A    between atoms: C_13  and  C_14
REMARK    5  A    between atoms: C_13  and  N_60
REMARK    6  A    between atoms: C_14  and  C_16
REMARK    7  A    between atoms: C_14  and  O_35
REMARK    8  A    between atoms: C_16  and  N_17
REMARK    9  A    between atoms: C_19  and  C_26
REMARK   10  A    between atoms: C_27  and  C_28
REMARK   11  A    between atoms: C_28  and  C_30
REMARK                            x       y       z     vdW  Elec       q    Type
REMARK                         _______ _______ _______ _____ _____    ______ ____
ROOT
ATOM      1  C   UNL     1      -4.581  -3.154  -2.732  0.00  0.00    +0.117 C 
ENDROOT
BRANCH   1   2
ATOM      2  O   UNL     1      -4.200  -4.407  -2.161  0.00  0.00    -0.392 OA
ATOM      3  H   UNL     1      -3.506  -4.868  -2.652  0.00  0.00    +0.210 HD
ENDBRANCH   1   2
BRANCH   1   4
ATOM      4  C   UNL     1      -3.367  -2.224  -2.780  0.00  0.00    -0.049 C 
BRANCH   4   5
ATOM      5  N   UNL     1      -2.866  -2.012  -1.409  0.00  0.00    +0.381 N 
ATOM      6  H   UNL     1      -3.608  -1.588  -0.839  0.00  0.00    -0.086 HD
ATOM      7  H   UNL     1      -2.598  -2.916  -1.003  0.00  0.00    -0.086 HD
BRANCH   5   8
ATOM      8  C   UNL     1      -1.693  -1.118  -1.424  0.00  0.00    -0.078 C 
BRANCH   8   9
ATOM      9  C   UNL     1      -1.197  -0.917   0.009  0.00  0.00    +0.018 C 
BRANCH   9  16
ATOM     10  C   UNL     1      -0.716   3.746   0.030  0.00  0.00    +0.001 A 
ATOM     11  C   UNL     1       0.611   4.153   0.019  0.00  0.00    +0.002 A 
ATOM     12  C   UNL     1       1.630   3.226   0.004  0.00  0.00    +0.026 A 
ATOM     13  C   UNL     1       1.329   1.868  -0.001  0.00  0.00    +0.047 A 
ATOM     14  C   UNL     1      -0.018   1.461   0.010  0.00  0.00    +0.003 A 
ATOM     15  C   UNL     1      -1.035   2.417   0.030  0.00  0.00    +0.010 A 
ATOM     16  C   UNL     1       0.002  -0.004   0.002  0.00  0.00    -0.024 A 
ATOM     17  C   UNL     1       1.291  -0.379  -0.012  0.00  0.00    +0.087 A 
ATOM     18  N   UNL     1       2.098   0.726  -0.014  0.00  0.00    -0.360 N 
ATOM     19  H   UNL     1       3.068   0.708  -0.024  0.00  0.00    +0.165 HD
ENDBRANCH   9  16
ENDBRANCH   8   9
ENDBRANCH   5   8
ENDBRANCH   4   5
ENDBRANCH   1   4
BRANCH   1  20
ATOM     20  C   UNL     1      -5.107  -3.379  -4.151  0.00  0.00    +0.151 C 
BRANCH  20  21
ATOM     21  N   UNL     1      -6.338  -4.171  -4.096  0.00  0.00    -0.344 N 
ATOM     22  C   UNL     1      -6.399  -5.518  -4.242  0.00  0.00    +0.094 A 
ATOM     23  C   UNL     1      -7.697  -5.935  -4.132  0.00  0.00    +0.000 A 
ATOM     24  C   UNL     1      -8.507  -4.722  -3.906  0.00  0.00    +0.007 A 
ATOM     25  C   UNL     1      -7.600  -3.650  -3.893  0.00  0.00    +0.050 A 
ATOM     26  C   UNL     1      -8.076  -2.358  -3.698  0.00  0.00    +0.026 A 
ATOM     27  C   UNL     1      -9.425  -2.141  -3.519  0.00  0.00    +0.002 A 
ATOM     28  C   UNL     1     -10.319  -3.201  -3.532  0.00  0.00    +0.001 A 
ATOM     29  C   UNL     1      -9.867  -4.489  -3.725  0.00  0.00    +0.010 A 
BRANCH  23  30
ATOM     30  C   UNL     1      -8.186  -7.311  -4.226  0.00  0.00    +0.014 C 
ATOM     31  C   UNL     1      -7.314  -8.327  -4.437  0.00  0.00    +0.052 C 
BRANCH  31  32
ATOM     32  C   UNL     1      -7.788  -9.658  -4.528  0.00  0.00    +0.193 C 
ATOM     33  O   UNL     1      -8.980  -9.891  -4.416  0.00  0.00    -0.287 OA
BRANCH  32  34
ATOM     34  C   UNL     1      -6.844 -10.759  -4.757  0.00  0.00    +0.059 A 
ATOM     35  C   UNL     1      -7.097 -12.117  -4.876  0.00  0.00    +0.019 A 
ATOM     36  C   UNL     1      -6.017 -12.937  -5.091  0.00  0.00    +0.008 A 
ATOM     37  C   UNL     1      -4.776 -12.392  -5.175  0.00  0.00    +0.046 A 
ATOM     38  S   UNL     1      -5.073 -10.697  -4.963  0.00  0.00    -0.093 S 
ENDBRANCH  32  34
ENDBRANCH  31  32
ENDBRANCH  23  30
ENDBRANCH  20  21
ENDBRANCH   1  20
TORSDOF 11
