REMARK  Name = ZINC23640366
REMARK  8 active torsions:
REMARK  status: ('A' for Active; 'I' for Inactive)
REMARK    1  A    between atoms: C_1  and  C_2
REMARK    2  A    between atoms: C_2  and  C_3
REMARK    3  A    between atoms: C_2  and  C_4
REMARK    4  A    between atoms: C_4  and  C_5
REMARK    5  A    between atoms: C_5  and  C_7
REMARK    6  A    between atoms: C_5  and  N_22
REMARK    7  A    between atoms: N_12  and  C_15
REMARK    8  A    between atoms: C_15  and  C_16
REMARK                            x       y       z     vdW  Elec       q    Type
REMARK                         _______ _______ _______ _____ _____    ______ ____
ROOT
ATOM      1  C   UNL     1       5.044   4.936   5.013  0.00  0.00    +0.170 C 
ENDROOT
BRANCH   1   2
ATOM      2  N   UNL     1       6.001   5.955   5.452  0.00  0.00    -0.230 N 
ATOM      3  C   UNL     1       7.052   5.687   6.270  0.00  0.00    +0.227 C 
ATOM      4  O   UNL     1       7.475   4.593   6.575  0.00  0.00    -0.275 OA
ATOM      5  C   UNL     1       7.586   7.012   6.717  0.00  0.00    +0.091 C 
ATOM      6  C   UNL     1       9.081   7.160   6.907  0.00  0.00    +0.040 C 
ATOM      7  C   UNL     1       9.367   8.643   7.012  0.00  0.00    -0.030 C 
ATOM      8  C   UNL     1       8.553   9.576   6.618  0.00  0.00    -0.030 C 
ATOM      9  C   UNL     1       7.208   9.320   5.971  0.00  0.00    +0.040 C 
ATOM     10  C   UNL     1       7.222   7.889   5.479  0.00  0.00    +0.091 C 
ATOM     11  C   UNL     1       5.918   7.261   5.087  0.00  0.00    +0.227 C 
ATOM     12  O   UNL     1       4.979   7.809   4.550  0.00  0.00    -0.275 OA
ENDBRANCH   1   2
BRANCH   1  13
ATOM     13  C   UNL     1       5.742   3.946   4.116  0.00  0.00    +0.237 C 
ATOM     14  O   UNL     1       6.953   3.888   4.103  0.00  0.00    -0.274 OA
ATOM     15  N   UNL     1       5.020   3.125   3.328  0.00  0.00    -0.298 N 
ATOM     16  C   UNL     1       5.679   2.228   2.367  0.00  0.00    +0.123 C 
ATOM     17  C   UNL     1       5.030   2.425   0.993  0.00  0.00    +0.104 C 
ATOM     18  N   UNL     1       3.577   2.247   1.112  0.00  0.00    -0.295 NA
ATOM     19  C   UNL     1       2.986   3.264   1.992  0.00  0.00    +0.104 C 
ATOM     20  C   UNL     1       3.551   3.102   3.407  0.00  0.00    +0.123 C 
BRANCH  18  21
ATOM     21  C   UNL     1       2.935   2.257  -0.210  0.00  0.00    +0.127 C 
BRANCH  21  22
ATOM     22  C   UNL     1       1.496   1.831  -0.073  0.00  0.00    +0.005 A 
ATOM     23  C   UNL     1       0.398   2.594   0.150  0.00  0.00    +0.014 A 
ATOM     24  C   UNL     1      -0.837   1.980   0.241  0.00  0.00    +0.028 A 
ATOM     25  C   UNL     1      -0.913   0.632   0.104  0.00  0.00    +0.078 A 
ATOM     26  S   UNL     1       0.796   0.191  -0.161  0.00  0.00    -0.080 S 
ATOM     27 CL   UNL     1      -2.310  -0.397   0.171  0.00  0.00    -0.076 Cl
ENDBRANCH  21  22
ENDBRANCH  18  21
ENDBRANCH   1  13
BRANCH   1  28
ATOM     28  C   UNL     1       4.478   4.208   6.233  0.00  0.00    +0.035 C 
BRANCH  28  30
ATOM     29  C   UNL     1       2.893   4.406   8.155  0.00  0.00    +0.007 C 
ATOM     30  C   UNL     1       3.628   5.178   7.056  0.00  0.00    -0.015 C 
ATOM     31  C   UNL     1       4.532   6.234   7.693  0.00  0.00    +0.007 C 
ENDBRANCH  28  30
ENDBRANCH   1  28
TORSDOF 6
