REMARK  Name = ZINC01781245
REMARK  12 active torsions:
REMARK  status: ('A' for Active; 'I' for Inactive)
REMARK    1  A    between atoms: C_4  and  C_7
REMARK    2  A    between atoms: C_7  and  N_71
REMARK    3  A    between atoms: C_8  and  C_9
REMARK    4  A    between atoms: C_8  and  N_71
REMARK    5  A    between atoms: C_15  and  C_16
REMARK    6  A    between atoms: C_15  and  N_71
REMARK    7  A    between atoms: C_16  and  C_18
REMARK    8  A    between atoms: C_16  and  O_39
REMARK    9  A    between atoms: C_18  and  N_19
REMARK   10  A    between atoms: N_19  and  C_20
REMARK   11  A    between atoms: N_19  and  S_30
REMARK   12  A    between atoms: S_30  and  C_33
REMARK                            x       y       z     vdW  Elec       q    Type
REMARK                         _______ _______ _______ _____ _____    ______ ____
ROOT
ATOM      1  C   UNL     1       5.584   0.196  -0.774  0.00  0.00    +0.161 C 
ENDROOT
BRANCH   1   2
ATOM      2  C   UNL     1       6.855  -0.404  -1.379  0.00  0.00    +0.117 C 
BRANCH   2   3
ATOM      3  O   UNL     1       6.515  -1.542  -2.172  0.00  0.00    -0.392 OA
ATOM      4  H   UNL     1       5.831  -1.370  -2.834  0.00  0.00    +0.210 HD
ENDBRANCH   2   3
BRANCH   2   5
ATOM      5  C   UNL     1       7.545   0.642  -2.257  0.00  0.00    -0.045 C 
BRANCH   5   6
ATOM      6  N   UNL     1       8.760   0.039  -2.843  0.00  0.00    +0.387 N 
ATOM      7  H   UNL     1       9.194  -0.580  -2.148  0.00  0.00    -0.081 HD
BRANCH   6   8
ATOM      8  C   UNL     1       8.404  -0.755  -4.038  0.00  0.00    -0.042 C 
BRANCH   8  12
ATOM      9  C   UNL     1       6.277   1.648  -6.856  0.00  0.00    +0.000 A 
ATOM     10  C   UNL     1       7.650   1.525  -6.951  0.00  0.00    +0.000 A 
ATOM     11  C   UNL     1       8.339   0.747  -6.038  0.00  0.00    +0.002 A 
ATOM     12  C   UNL     1       7.654   0.092  -5.032  0.00  0.00    -0.064 A 
ATOM     13  C   UNL     1       6.280   0.211  -4.941  0.00  0.00    +0.002 A 
ATOM     14  C   UNL     1       5.592   0.993  -5.850  0.00  0.00    +0.000 A 
ENDBRANCH   8  12
ENDBRANCH   6   8
BRANCH   6  15
ATOM     15  C   UNL     1       9.723   1.099  -3.210  0.00  0.00    -0.042 C 
BRANCH  15  16
ATOM     16  C   UNL     1      11.086   0.477  -3.374  0.00  0.00    -0.064 A 
ATOM     17  C   UNL     1      11.881   0.251  -2.266  0.00  0.00    +0.002 A 
ATOM     18  C   UNL     1      13.129  -0.325  -2.417  0.00  0.00    +0.000 A 
ATOM     19  C   UNL     1      13.586  -0.664  -3.676  0.00  0.00    +0.000 A 
ATOM     20  C   UNL     1      12.794  -0.432  -4.785  0.00  0.00    +0.000 A 
ATOM     21  C   UNL     1      11.544   0.138  -4.634  0.00  0.00    +0.002 A 
ENDBRANCH  15  16
ENDBRANCH   6  15
ENDBRANCH   5   6
ENDBRANCH   2   5
ENDBRANCH   1   2
BRANCH   1  22
ATOM     22  N   UNL     1       4.988  -0.762   0.160  0.00  0.00    -0.200 N 
BRANCH  22  23
ATOM     23  C   UNL     1       4.134  -1.757  -0.313  0.00  0.00    +0.059 A 
ATOM     24  C   UNL     1       4.647  -2.942  -0.797  0.00  0.00    +0.025 A 
ATOM     25  C   UNL     1       3.803  -3.941  -1.272  0.00  0.00    +0.002 A 
ATOM     26  C   UNL     1       2.451  -3.778  -1.271  0.00  0.00    +0.008 A 
ATOM     27  C   UNL     1       1.888  -2.586  -0.786  0.00  0.00    -0.016 A 
ATOM     28  C   UNL     1       2.736  -1.563  -0.295  0.00  0.00    +0.005 A 
ATOM     29  C   UNL     1       2.173  -0.370   0.184  0.00  0.00    +0.010 A 
ATOM     30  C   UNL     1       0.820  -0.214   0.180  0.00  0.00    +0.001 A 
ATOM     31  C   UNL     1      -0.016  -1.222  -0.298  0.00  0.00    +0.001 A 
ATOM     32  C   UNL     1       0.496  -2.389  -0.774  0.00  0.00    +0.008 A 
ENDBRANCH  22  23
BRANCH  22  33
ATOM     33  S   UNL     1       5.329  -0.664   1.777  0.00  0.00    +0.075 S 
ATOM     34  O   UNL     1       6.576   0.008   1.889  0.00  0.00    -0.150 OA
ATOM     35  O   UNL     1       5.110  -1.960   2.318  0.00  0.00    -0.150 OA
BRANCH  33  36
ATOM     36  C   UNL     1       4.121   0.395   2.501  0.00  0.00    +0.109 A 
ATOM     37  C   UNL     1       2.942  -0.136   2.991  0.00  0.00    +0.029 A 
ATOM     38  C   UNL     1       1.994   0.695   3.558  0.00  0.00    +0.002 A 
ATOM     39  C   UNL     1       2.224   2.056   3.636  0.00  0.00    +0.000 A 
ATOM     40  C   UNL     1       3.403   2.586   3.146  0.00  0.00    +0.002 A 
ATOM     41  C   UNL     1       4.351   1.755   2.578  0.00  0.00    +0.029 A 
ENDBRANCH  33  36
ENDBRANCH  22  33
ENDBRANCH   1  22
TORSDOF 12
