REMARK  Name = ZINC30928026
REMARK  10 active torsions:
REMARK  status: ('A' for Active; 'I' for Inactive)
REMARK    1  A    between atoms: C_4  and  C_7
REMARK    2  A    between atoms: C_7  and  C_8
REMARK    3  A    between atoms: C_8  and  C_10
REMARK    4  A    between atoms: C_8  and  N_25
REMARK    5  A    between atoms: C_10  and  N_12
REMARK    6  A    between atoms: C_15  and  C_18
REMARK    7  A    between atoms: C_18  and  N_19
REMARK    8  A    between atoms: C_26  and  O_28
REMARK    9  A    between atoms: O_28  and  C_29
REMARK   10  A    between atoms: C_29  and  C_30
REMARK                            x       y       z     vdW  Elec       q    Type
REMARK                         _______ _______ _______ _____ _____    ______ ____
ROOT
ATOM      1  C   UNL     1       4.171  -0.963   1.399  0.00  0.00    +0.168 C 
ENDROOT
BRANCH   1   2
ATOM      2  N   UNL     1       3.229  -1.870   2.059  0.00  0.00    -0.269 N 
ATOM      3  C   UNL     1       2.116  -1.379   2.640  0.00  0.00    +0.401 C 
ATOM      4  O   UNL     1       1.895  -0.184   2.616  0.00  0.00    -0.226 OA
ATOM      5  H   UNL     1       3.406  -2.823   2.078  0.00  0.00    +0.153 HD
BRANCH   3   6
ATOM      6  O   UNL     1       1.250  -2.212   3.247  0.00  0.00    -0.446 OA
BRANCH   6   7
ATOM      7  C   UNL     1       0.092  -1.623   3.842  0.00  0.00    +0.269 C 
BRANCH   7   8
ATOM      8  C   UNL     1      -0.754  -2.701   4.469  0.00  0.00    -0.010 A 
ATOM      9  C   UNL     1      -1.734  -3.331   3.724  0.00  0.00    +0.007 A 
ATOM     10  C   UNL     1      -2.511  -4.320   4.299  0.00  0.00    +0.000 A 
ATOM     11  C   UNL     1      -2.306  -4.679   5.618  0.00  0.00    +0.000 A 
ATOM     12  C   UNL     1      -1.326  -4.051   6.362  0.00  0.00    +0.000 A 
ATOM     13  C   UNL     1      -0.546  -3.065   5.786  0.00  0.00    +0.007 A 
ENDBRANCH   7   8
ENDBRANCH   6   7
ENDBRANCH   3   6
ENDBRANCH   1   2
BRANCH   1  14
ATOM     14  C   UNL     1       5.543  -1.588   1.383  0.00  0.00    +0.259 C 
ATOM     15  O   UNL     1       5.716  -2.687   1.877  0.00  0.00    -0.272 OA
BRANCH  14  16
ATOM     16  N   UNL     1       6.561  -0.941   0.831  0.00  0.00    -0.155 NA
ATOM     17  C   UNL     1       7.775  -1.495   0.817  0.00  0.00    +0.163 A 
ATOM     18  N   UNL     1       8.929  -0.987   0.308  0.00  0.00    -0.341 N 
ATOM     19  C   UNL     1      10.068  -1.725   0.401  0.00  0.00    +0.008 A 
ATOM     20  C   UNL     1       9.978  -2.919   0.996  0.00  0.00    +0.067 A 
ATOM     21  S   UNL     1       8.250  -2.986   1.432  0.00  0.00    -0.061 S 
ATOM     22  H   UNL     1       8.940  -0.114  -0.115  0.00  0.00    +0.167 HD
BRANCH  19  23
ATOM     23  C   UNL     1      11.377  -1.217  -0.145  0.00  0.00    -0.024 C 
BRANCH  23  24
ATOM     24  N   UNL     1      11.284  -1.093  -1.606  0.00  0.00    +0.383 N 
ATOM     25  C   UNL     1      11.097  -2.423  -2.197  0.00  0.00    -0.078 C 
ATOM     26  C   UNL     1      10.918  -2.292  -3.711  0.00  0.00    -0.019 C 
ATOM     27  C   UNL     1      12.164  -1.635  -4.312  0.00  0.00    -0.004 C 
ATOM     28  C   UNL     1      12.392  -0.281  -3.635  0.00  0.00    -0.019 C 
ATOM     29  C   UNL     1      12.517  -0.487  -2.124  0.00  0.00    -0.078 C 
ATOM     30  H   UNL     1      10.497  -0.508  -1.843  0.00  0.00    -0.081 HD
ENDBRANCH  23  24
ENDBRANCH  19  23
ENDBRANCH  14  16
ENDBRANCH   1  14
BRANCH   1  31
ATOM     31  C   UNL     1       3.711  -0.707  -0.038  0.00  0.00    +0.067 C 
BRANCH  31  35
ATOM     32  C   UNL     1      -0.017   1.378   0.010  0.00  0.00    +0.000 A 
ATOM     33  C   UNL     1       1.171   2.086   0.002  0.00  0.00    +0.000 A 
ATOM     34  C   UNL     1       2.377   1.411  -0.013  0.00  0.00    +0.004 A 
ATOM     35  C   UNL     1       2.396   0.029  -0.020  0.00  0.00    -0.045 A 
ATOM     36  C   UNL     1       1.208  -0.679  -0.012  0.00  0.00    +0.004 A 
ATOM     37  C   UNL     1       0.002  -0.004   0.002  0.00  0.00    +0.000 A 
ENDBRANCH  31  35
ENDBRANCH   1  31
TORSDOF 10
