REMARK  Name = ZINC39791842
REMARK  3 active torsions:
REMARK  status: ('A' for Active; 'I' for Inactive)
REMARK    1  A    between atoms: C_1  and  C_2
REMARK    2  A    between atoms: C_2  and  C_3
REMARK    3  A    between atoms: C_5  and  C_17
REMARK                            x       y       z     vdW  Elec       q    Type
REMARK                         _______ _______ _______ _____ _____    ______ ____
ROOT
ATOM      1  C   UNL     1       0.730  -0.396   1.282  0.00  0.00    +0.119 C 
ATOM      2  C   UNL     1       0.831  -1.930   1.409  0.00  0.00    +0.167 C 
ATOM      3  C   UNL     1       2.320  -2.192   1.426  0.00  0.00    +0.120 C 
ATOM      4  N   UNL     1       2.951  -1.094   1.333  0.00  0.00    -0.190 NA
ATOM      5  N   UNL     1       2.136   0.037   1.244  0.00  0.00    -0.202 N 
ATOM      6  C   UNL     1       2.578   1.353   1.135  0.00  0.00    +0.164 A 
ATOM      7  C   UNL     1       3.939   1.625   0.991  0.00  0.00    +0.052 A 
ATOM      8  C   UNL     1       4.329   2.950   0.886  0.00  0.00    +0.077 A 
ATOM      9  C   UNL     1       3.337   3.929   0.932  0.00  0.00    +0.289 A 
ATOM     10  O   UNL     1       3.672   5.241   0.833  0.00  0.00    -0.264 OA
ATOM     11  N   UNL     1       2.071   3.577   1.071  0.00  0.00    -0.105 NA
ATOM     12  N   UNL     1       1.707   2.350   1.162  0.00  0.00    -0.129 NA
ENDROOT
BRANCH   2  13
ATOM     13  C   UNL     1       0.193  -2.398   2.691  0.00  0.00    +0.366 C 
ATOM     14  O   UNL     1      -0.475  -3.418   2.703  0.00  0.00    -0.246 OA
ATOM     15  O   UNL     1       0.344  -1.756   3.717  0.00  0.00    -0.246 OA
ENDBRANCH   2  13
BRANCH   1  17
ATOM     16  C   UNL     1      -1.477  -0.347   0.111  0.00  0.00    +0.006 C 
ATOM     17  C   UNL     1       0.010  -0.008  -0.011  0.00  0.00    +0.022 C 
ENDBRANCH   1  17
TORSDOF 2
