REMARK  Name = ZINC13029981
REMARK  12 active torsions:
REMARK  status: ('A' for Active; 'I' for Inactive)
REMARK    1  A    between atoms: C_1  and  C_2
REMARK    2  A    between atoms: C_2  and  O_3
REMARK    3  A    between atoms: O_3  and  C_4
REMARK    4  A    between atoms: C_9  and  C_10
REMARK    5  A    between atoms: C_10  and  C_12
REMARK    6  A    between atoms: C_10  and  N_20
REMARK    7  A    between atoms: N_14  and  C_15
REMARK    8  A    between atoms: N_20  and  C_21
REMARK    9  A    between atoms: C_26  and  O_27
REMARK   10  A    between atoms: O_27  and  C_28
REMARK   11  A    between atoms: C_29  and  C_31
REMARK   12  A    between atoms: C_31  and  N_32
REMARK                            x       y       z     vdW  Elec       q    Type
REMARK                         _______ _______ _______ _____ _____    ______ ____
ROOT
ATOM      1  N   UNL     1      -4.771   3.957  -2.806  0.00  0.00    -0.250 N 
ATOM      2  C   UNL     1      -3.638   3.235  -2.703  0.00  0.00    +0.242 C 
ATOM      3  O   UNL     1      -3.661   2.039  -2.905  0.00  0.00    -0.273 OA
ENDROOT
BRANCH   1   4
ATOM      4  C   UNL     1      -4.745   5.339  -2.573  0.00  0.00    +0.079 A 
ATOM      5  C   UNL     1      -4.639   6.222  -3.637  0.00  0.00    +0.027 A 
ATOM      6  C   UNL     1      -4.614   7.584  -3.405  0.00  0.00    +0.002 A 
ATOM      7  C   UNL     1      -4.693   8.070  -2.113  0.00  0.00    +0.004 A 
ATOM      8  C   UNL     1      -4.799   7.196  -1.047  0.00  0.00    +0.047 A 
ATOM      9  C   UNL     1      -4.830   5.829  -1.272  0.00  0.00    +0.141 A 
BRANCH   9  10
ATOM     10  O   UNL     1      -4.939   4.969  -0.225  0.00  0.00    -0.493 OA
ATOM     11  C   UNL     1      -5.115   5.544   1.072  0.00  0.00    +0.277 C 
ENDBRANCH   9  10
ENDBRANCH   1   4
BRANCH   1  12
ATOM     12  C   UNL     1      -6.030   3.298  -3.160  0.00  0.00    +0.201 C 
BRANCH  12  18
ATOM     13  C   UNL     1      -6.974   1.017  -2.723  0.00  0.00    +0.126 A 
ATOM     14  C   UNL     1      -7.165  -0.083  -1.899  0.00  0.00    +0.046 A 
ATOM     15  C   UNL     1      -6.625  -0.095  -0.628  0.00  0.00    +0.004 A 
ATOM     16  C   UNL     1      -5.893   0.988  -0.177  0.00  0.00    +0.001 A 
ATOM     17  C   UNL     1      -5.697   2.083  -0.998  0.00  0.00    +0.009 A 
ATOM     18  C   UNL     1      -6.240   2.102  -2.268  0.00  0.00    +0.024 A 
BRANCH  13  19
ATOM     19  O   UNL     1      -7.506   1.031  -3.974  0.00  0.00    -0.492 OA
BRANCH  19  21
ATOM     20  C   UNL     1      -8.766   0.077  -5.802  0.00  0.00    +0.048 C 
ATOM     21  C   UNL     1      -8.250  -0.121  -4.376  0.00  0.00    +0.225 C 
ENDBRANCH  19  21
ENDBRANCH  13  19
ENDBRANCH  12  18
BRANCH  12  22
ATOM     22  C   UNL     1      -7.172   4.266  -2.980  0.00  0.00    +0.239 C 
ATOM     23  O   UNL     1      -7.227   4.961  -1.988  0.00  0.00    -0.273 OA
ATOM     24  N   UNL     1      -8.131   4.359  -3.922  0.00  0.00    -0.311 N 
ATOM     25  H   UNL     1      -8.087   3.803  -4.716  0.00  0.00    +0.149 HD
BRANCH  24  26
ATOM     26  C   UNL     1      -9.241   5.299  -3.748  0.00  0.00    +0.073 C 
ATOM     27  C   UNL     1     -10.384   4.627  -2.959  0.00  0.00    +0.022 C 
ATOM     28  C   UNL     1     -11.674   5.183  -3.613  0.00  0.00    +0.002 C 
ATOM     29  C   UNL     1     -11.298   5.242  -5.115  0.00  0.00    +0.002 C 
ATOM     30  C   UNL     1      -9.822   5.690  -5.118  0.00  0.00    +0.022 C 
ENDBRANCH  24  26
ENDBRANCH  12  22
ENDBRANCH   1  12
BRANCH   2  31
ATOM     31  C   UNL     1      -2.342   3.913  -2.338  0.00  0.00    +0.242 C 
BRANCH  31  32
ATOM     32  N   UNL     1      -1.267   2.919  -2.292  0.00  0.00    -0.235 N 
ATOM     33  C   UNL     1      -0.873   2.184  -1.199  0.00  0.00    +0.090 A 
ATOM     34  C   UNL     1      -1.300   2.112   0.122  0.00  0.00    +0.029 A 
ATOM     35  C   UNL     1      -0.681   1.258   0.991  0.00  0.00    +0.002 A 
ATOM     36  C   UNL     1       0.367   0.452   0.564  0.00  0.00    +0.002 A 
ATOM     37  C   UNL     1       0.801   0.500  -0.729  0.00  0.00    +0.032 A 
ATOM     38  C   UNL     1       0.187   1.371  -1.638  0.00  0.00    +0.113 A 
ATOM     39  N   UNL     1       0.391   1.634  -2.944  0.00  0.00    -0.129 NA
ATOM     40  N   UNL     1      -0.438   2.529  -3.354  0.00  0.00    -0.064 NA
ENDBRANCH  31  32
ENDBRANCH   2  31
TORSDOF 10
