REMARK  Name = ZINC02446424
REMARK  11 active torsions:
REMARK  status: ('A' for Active; 'I' for Inactive)
REMARK    1  A    between atoms: C_1  and  C_2
REMARK    2  A    between atoms: C_2  and  C_3
REMARK    3  A    between atoms: C_2  and  C_4
REMARK    4  A    between atoms: C_2  and  C_5
REMARK    5  A    between atoms: C_8  and  C_11
REMARK    6  A    between atoms: C_14  and  S_22
REMARK    7  A    between atoms: N_15  and  C_16
REMARK    8  A    between atoms: C_16  and  C_17
REMARK    9  A    between atoms: S_22  and  C_23
REMARK   10  A    between atoms: C_23  and  C_24
REMARK   11  A    between atoms: N_26  and  C_27
REMARK                            x       y       z     vdW  Elec       q    Type
REMARK                         _______ _______ _______ _____ _____    ______ ____
ROOT
ATOM      1  C   UNL     1      10.203  -3.795   6.247  0.00  0.00    +0.165 A 
ATOM      2  N   UNL     1      10.432  -2.553   5.889  0.00  0.00    -0.128 NA
ATOM      3  N   UNL     1       9.553  -2.175   5.032  0.00  0.00    -0.122 NA
ATOM      4  C   UNL     1       8.704  -3.149   4.795  0.00  0.00    +0.193 A 
ATOM      5  N   UNL     1       9.089  -4.215   5.557  0.00  0.00    -0.295 N 
ENDROOT
BRANCH   1   9
ATOM      6  C   UNL     1      12.475  -6.086   9.010  0.00  0.00    -0.042 A 
ATOM      7  C   UNL     1      12.606  -4.709   8.985  0.00  0.00    +0.005 A 
ATOM      8  C   UNL     1      11.871  -3.959   8.090  0.00  0.00    +0.012 A 
ATOM      9  C   UNL     1      10.994  -4.593   7.208  0.00  0.00    +0.019 A 
ATOM     10  C   UNL     1      10.862  -5.982   7.243  0.00  0.00    +0.012 A 
ATOM     11  C   UNL     1      11.607  -6.720   8.139  0.00  0.00    +0.005 A 
BRANCH   6  13
ATOM     12  C   UNL     1      12.935  -6.467  11.417  0.00  0.00    +0.015 C 
ATOM     13  C   UNL     1      13.281  -6.899   9.990  0.00  0.00    -0.013 C 
ATOM     14  C   UNL     1      12.953  -8.383   9.813  0.00  0.00    +0.015 C 
ATOM     15  C   UNL     1      14.772  -6.672   9.736  0.00  0.00    +0.015 C 
ENDBRANCH   6  13
ENDBRANCH   1   9
BRANCH   5  16
ATOM     16  C   UNL     1       8.450  -5.532   5.626  0.00  0.00    +0.200 C 
BRANCH  16  17
ATOM     17  C   UNL     1       8.935  -6.386   4.483  0.00  0.00    +0.125 A 
ATOM     18  C   UNL     1      10.072  -7.104   4.465  0.00  0.00    +0.046 A 
ATOM     19  C   UNL     1      10.130  -7.749   3.208  0.00  0.00    +0.041 A 
ATOM     20  C   UNL     1       9.028  -7.381   2.530  0.00  0.00    +0.195 A 
ATOM     21  O   UNL     1       8.308  -6.555   3.307  0.00  0.00    -0.466 OA
ENDBRANCH  16  17
ENDBRANCH   5  16
BRANCH   4  22
ATOM     22  S   UNL     1       7.328  -3.094   3.696  0.00  0.00    -0.077 S 
BRANCH  22  23
ATOM     23  C   UNL     1       7.483  -1.397   3.084  0.00  0.00    +0.173 C 
BRANCH  23  24
ATOM     24  C   UNL     1       6.378  -1.116   2.099  0.00  0.00    +0.227 C 
ATOM     25  O   UNL     1       5.566  -1.978   1.835  0.00  0.00    -0.275 OA
ATOM     26  N   UNL     1       6.293   0.093   1.510  0.00  0.00    -0.285 N 
ATOM     27  H   UNL     1       7.077   0.845   1.681  0.00  0.00    +0.155 HD
BRANCH  26  28
ATOM     28  C   UNL     1       5.205   0.393   0.680  0.00  0.00    +0.037 A 
ATOM     29  C   UNL     1       3.955  -0.148   0.951  0.00  0.00    +0.027 A 
ATOM     30  C   UNL     1       2.881   0.146   0.133  0.00  0.00    +0.051 A 
ATOM     31  C   UNL     1       3.047   0.982  -0.959  0.00  0.00    +0.166 A 
ATOM     32  C   UNL     1       4.299   1.526  -1.234  0.00  0.00    +0.168 A 
ATOM     33  C   UNL     1       5.375   1.230  -0.414  0.00  0.00    +0.072 A 
ATOM     34  O   UNL     1       4.201   2.306  -2.350  0.00  0.00    -0.453 OA
ATOM     35  C   UNL     1       2.794   2.561  -2.518  0.00  0.00    +0.466 C 
ATOM     36  O   UNL     1       2.164   1.421  -1.904  0.00  0.00    -0.453 OA
ENDBRANCH  26  28
ENDBRANCH  23  24
ENDBRANCH  22  23
ENDBRANCH   4  22
TORSDOF 8
