REMARK  Name = ZINC21315695
REMARK  8 active torsions:
REMARK  status: ('A' for Active; 'I' for Inactive)
REMARK    1  A    between atoms: C_4  and  N_8
REMARK    2  A    between atoms: C_9  and  C_11
REMARK    3  A    between atoms: C_11  and  S_12
REMARK    4  A    between atoms: S_12  and  C_13
REMARK    5  A    between atoms: N_17  and  N_18
REMARK    6  A    between atoms: N_19  and  N_20
REMARK    7  A    between atoms: C_21  and  C_22
REMARK    8  A    between atoms: C_25  and  O_28
REMARK                            x       y       z     vdW  Elec       q    Type
REMARK                         _______ _______ _______ _____ _____    ______ ____
ROOT
ATOM      1  C   UNL     1       2.899   1.896  -1.737  0.00  0.00    +0.210 A 
ATOM      2  N   UNL     1       2.835   0.607  -1.975  0.00  0.00    -0.119 NA
ATOM      3  N   UNL     1       3.599   0.340  -3.118  0.00  0.00    -0.109 NA
ATOM      4  C   UNL     1       4.112   1.472  -3.537  0.00  0.00    +0.254 A 
ATOM      5  N   UNL     1       3.692   2.463  -2.694  0.00  0.00    -0.211 N 
ATOM      6  N   UNL     1       4.936   1.635  -4.641  0.00  0.00    -0.204 N 
ATOM      7  H   UNL     1       5.313   2.635  -4.903  0.00  0.00    +0.177 HD
ENDROOT
BRANCH   5   8
ATOM      8  N   UNL     1       4.010   3.788  -2.791  0.00  0.00    -0.294 N 
ATOM      9  H   UNL     1       4.660   4.139  -3.605  0.00  0.00    +0.163 HD
ATOM     10  H   UNL     1       3.615   4.504  -2.055  0.00  0.00    +0.163 HD
ENDBRANCH   5   8
BRANCH   6  11
ATOM     11  N   UNL     1       5.289   0.527  -5.421  0.00  0.00    -0.188 NA
ATOM     12  C   UNL     1       6.061   0.680  -6.455  0.00  0.00    +0.138 C 
BRANCH  12  13
ATOM     13  C   UNL     1       6.432  -0.486  -7.276  0.00  0.00    -0.005 A 
ATOM     14  C   UNL     1       5.960  -1.758  -6.942  0.00  0.00    +0.013 A 
ATOM     15  C   UNL     1       6.307  -2.845  -7.715  0.00  0.00    +0.046 A 
ATOM     16  C   UNL     1       7.132  -2.679  -8.820  0.00  0.00    +0.117 A 
ATOM     17  C   UNL     1       7.607  -1.418  -9.153  0.00  0.00    +0.046 A 
ATOM     18  C   UNL     1       7.263  -0.324  -8.389  0.00  0.00    +0.013 A 
BRANCH  16  19
ATOM     19  O   UNL     1       7.475  -3.754  -9.576  0.00  0.00    -0.507 OA
ATOM     20  H   UNL     1       8.128  -3.625 -10.452  0.00  0.00    +0.292 HD
ENDBRANCH  16  19
ENDBRANCH  12  13
ENDBRANCH   6  11
BRANCH   1  21
ATOM     21  S   UNL     1       2.106   2.744  -0.412  0.00  0.00    -0.075 S 
BRANCH  21  22
ATOM     22  C   UNL     1       1.220   1.436   0.480  0.00  0.00    +0.173 C 
BRANCH  22  24
ATOM     23  N   UNL     1      -0.242   1.246   2.466  0.00  0.00    -0.280 N 
ATOM     24  C   UNL     1       0.489   2.035   1.654  0.00  0.00    +0.228 C 
ATOM     25  O   UNL     1       0.559   3.227   1.868  0.00  0.00    -0.275 OA
ATOM     26  H   UNL     1      -0.373   0.181   2.225  0.00  0.00    +0.155 HD
BRANCH  23  30
ATOM     27  C   UNL     1      -2.006   2.844   5.891  0.00  0.00    +0.006 A 
ATOM     28  C   UNL     1      -2.707   2.825   4.700  0.00  0.00    +0.040 A 
ATOM     29  C   UNL     1      -2.125   2.296   3.562  0.00  0.00    +0.147 A 
ATOM     30  C   UNL     1      -0.834   1.783   3.617  0.00  0.00    +0.105 A 
ATOM     31  C   UNL     1      -0.135   1.798   4.818  0.00  0.00    +0.147 A 
ATOM     32  C   UNL     1      -0.722   2.334   5.951  0.00  0.00    +0.040 A 
ATOM     33  F   UNL     1       1.117   1.296   4.878  0.00  0.00    -0.203 F 
ATOM     34  F   UNL     1      -2.811   2.277   2.398  0.00  0.00    -0.203 F 
ENDBRANCH  23  30
ENDBRANCH  22  24
ENDBRANCH  21  22
ENDBRANCH   1  21
TORSDOF 8
