REMARK  Name = ZINC39889891
REMARK  6 active torsions:
REMARK  status: ('A' for Active; 'I' for Inactive)
REMARK    1  A    between atoms: C_1  and  C_2
REMARK    2  A    between atoms: C_2  and  C_3
REMARK    3  A    between atoms: C_3  and  N_4
REMARK    4  A    between atoms: C_31  and  C_33
REMARK    5  A    between atoms: C_33  and  C_34
REMARK    6  A    between atoms: C_33  and  C_35
REMARK                            x       y       z     vdW  Elec       q    Type
REMARK                         _______ _______ _______ _____ _____    ______ ____
ROOT
ATOM      1  N   UNL     1      -1.413  -1.998   0.005  0.00  0.00    -0.269 N 
ATOM      2  C   UNL     1      -1.409  -2.766  -1.147  0.00  0.00    +0.042 A 
ATOM      3  C   UNL     1      -1.422  -2.359  -2.482  0.00  0.00    +0.024 A 
ATOM      4  C   UNL     1      -1.413  -3.353  -3.448  0.00  0.00    +0.002 A 
ATOM      5  C   UNL     1      -1.390  -4.693  -3.117  0.00  0.00    +0.000 A 
ATOM      6  C   UNL     1      -1.377  -5.111  -1.791  0.00  0.00    +0.008 A 
ATOM      7  C   UNL     1      -1.387  -4.129  -0.824  0.00  0.00    +0.011 A 
ATOM      8  C   UNL     1      -1.381  -4.203   0.669  0.00  0.00    +0.180 C 
ATOM      9  C   UNL     1      -1.392  -2.759   1.120  0.00  0.00    +0.253 C 
ATOM     10  O   UNL     1      -1.386  -2.360   2.265  0.00  0.00    -0.272 OA
ATOM     11  C   UNL     1      -0.196  -4.928   1.205  0.00  0.00    +0.085 A 
ATOM     12  C   UNL     1       1.242  -4.701   1.036  0.00  0.00    +0.199 A 
ATOM     13  O   UNL     1       1.702  -3.706   0.505  0.00  0.00    -0.287 OA
ATOM     14  C   UNL     1       2.087  -5.798   1.573  0.00  0.00    +0.066 A 
ATOM     15  C   UNL     1       3.458  -5.820   1.321  0.00  0.00    +0.035 A 
ATOM     16  C   UNL     1       4.227  -6.848   1.824  0.00  0.00    +0.042 A 
ATOM     17  C   UNL     1       3.635  -7.855   2.575  0.00  0.00    +0.023 A 
ATOM     18  C   UNL     1       2.283  -7.843   2.831  0.00  0.00    +0.048 A 
ATOM     19  C   UNL     1       1.484  -6.811   2.336  0.00  0.00    +0.140 A 
ATOM     20  O   UNL     1       0.160  -6.817   2.612  0.00  0.00    -0.450 OA
ATOM     21  C   UNL     1      -0.660  -5.964   1.969  0.00  0.00    +0.200 A 
ATOM     22  C   UNL     1      -2.132  -5.939   1.937  0.00  0.00    +0.290 C 
ATOM     23  O   UNL     1      -2.855  -6.729   2.512  0.00  0.00    -0.266 OA
ATOM     24  N   UNL     1      -2.562  -4.910   1.176  0.00  0.00    -0.219 N 
ATOM     25  C   UNL     1      -3.887  -4.579   0.920  0.00  0.00    +0.192 A 
ATOM     26  N   UNL     1      -4.394  -3.598   0.186  0.00  0.00    -0.125 NA
ATOM     27  N   UNL     1      -5.639  -3.439   0.057  0.00  0.00    -0.144 NA
ATOM     28  C   UNL     1      -6.512  -4.235   0.642  0.00  0.00    +0.106 A 
ATOM     29  S   UNL     1      -5.398  -5.359   1.478  0.00  0.00    -0.035 S 
ATOM     30 CL   UNL     1       5.935  -6.884   1.516  0.00  0.00    -0.084 Cl
ENDROOT
BRANCH  28  31
ATOM     31  C   UNL     1      -8.019  -4.209   0.610  0.00  0.00    +0.040 C 
ATOM     32  C   UNL     1      -8.518  -2.877   1.171  0.00  0.00    +0.014 C 
ATOM     33  C   UNL     1      -8.501  -4.368  -0.833  0.00  0.00    +0.014 C 
ENDBRANCH  28  31
BRANCH   1  34
ATOM     34  C   UNL     1      -1.433  -0.534   0.013  0.00  0.00    +0.113 C 
BRANCH  34  36
ATOM     35  C   UNL     1      -0.019   1.526   0.010  0.00  0.00    +0.005 C 
ATOM     36  C   UNL     1       0.002  -0.004   0.002  0.00  0.00    +0.016 C 
ENDBRANCH  34  36
ENDBRANCH   1  34
TORSDOF 3
