REMARK  Name = ZINC35477281
REMARK  3 active torsions:
REMARK  status: ('A' for Active; 'I' for Inactive)
REMARK    1  A    between atoms: C_6  and  N_7
REMARK    2  A    between atoms: N_7  and  C_8
REMARK    3  A    between atoms: C_9  and  C_17
REMARK                            x       y       z     vdW  Elec       q    Type
REMARK                         _______ _______ _______ _____ _____    ______ ____
ROOT
ATOM      1  C   UNL     1      -1.127  -2.108  -0.090  0.00  0.00    +0.135 A 
ATOM      2  C   UNL     1      -2.194  -2.983  -0.194  0.00  0.00    +0.112 A 
ATOM      3  N   UNL     1      -1.704  -4.230  -0.269  0.00  0.00    -0.224 NA
ATOM      4  C   UNL     1      -0.384  -4.184  -0.217  0.00  0.00    +0.158 A 
ATOM      5  N   UNL     1       0.004  -2.864  -0.111  0.00  0.00    -0.285 N 
ATOM      6  C   UNL     1       1.341  -2.565  -0.047  0.00  0.00    +0.114 A 
ATOM      7  C   UNL     1       2.251  -3.559  -0.092  0.00  0.00    +0.129 A 
ATOM      8  N   UNL     1       1.877  -4.838  -0.199  0.00  0.00    -0.258 NA
ATOM      9  C   UNL     1       0.612  -5.180  -0.255  0.00  0.00    +0.157 A 
ENDROOT
BRANCH   2  10
ATOM     10  C   UNL     1      -3.628  -2.609  -0.218  0.00  0.00    +0.007 A 
ATOM     11  C   UNL     1      -4.080  -1.526   0.536  0.00  0.00    +0.014 A 
ATOM     12  C   UNL     1      -5.415  -1.179   0.512  0.00  0.00    +0.050 A 
ATOM     13  C   UNL     1      -6.311  -1.902  -0.260  0.00  0.00    +0.166 A 
ATOM     14  C   UNL     1      -5.865  -2.985  -1.016  0.00  0.00    +0.167 A 
ATOM     15  C   UNL     1      -4.527  -3.334  -0.999  0.00  0.00    +0.059 A 
ATOM     16  O   UNL     1      -6.931  -3.523  -1.679  0.00  0.00    -0.453 OA
ATOM     17  C   UNL     1      -8.098  -3.016  -1.006  0.00  0.00    +0.466 C 
ATOM     18  O   UNL     1      -7.656  -1.763  -0.451  0.00  0.00    -0.453 OA
ENDBRANCH   2  10
BRANCH   1  19
ATOM     19  N   UNL     1      -1.197  -0.720   0.010  0.00  0.00    -0.299 N 
ATOM     20  H   UNL     1      -1.457  -0.191  -0.760  0.00  0.00    +0.154 HD
BRANCH  19  26
ATOM     21  C   UNL     1      -0.919   1.295   1.309  0.00  0.00    +0.024 A 
ATOM     22  C   UNL     1      -0.619   1.914   2.507  0.00  0.00    +0.017 A 
ATOM     23  C   UNL     1      -0.291   1.155   3.616  0.00  0.00    +0.018 A 
ATOM     24  C   UNL     1      -0.264  -0.226   3.530  0.00  0.00    +0.017 A 
ATOM     25  C   UNL     1      -0.564  -0.851   2.336  0.00  0.00    +0.024 A 
ATOM     26  C   UNL     1      -0.893  -0.091   1.220  0.00  0.00    +0.032 A 
ATOM     27 BR   UNL     1       0.121   2.006   5.254  0.00  0.00    -0.050 Br
ENDBRANCH  19  26
ENDBRANCH   1  19
TORSDOF 3
