REMARK  Name = ZINC16158246
REMARK  8 active torsions:
REMARK  status: ('A' for Active; 'I' for Inactive)
REMARK    1  A    between atoms: C_4  and  C_7
REMARK    2  A    between atoms: C_7  and  O_8
REMARK    3  A    between atoms: O_8  and  C_9
REMARK    4  A    between atoms: C_15  and  C_19
REMARK    5  A    between atoms: N_20  and  N_21
REMARK    6  A    between atoms: C_22  and  C_24
REMARK    7  A    between atoms: C_24  and  S_25
REMARK    8  A    between atoms: S_25  and  C_26
REMARK                            x       y       z     vdW  Elec       q    Type
REMARK                         _______ _______ _______ _____ _____    ______ ____
ROOT
ATOM      1  C   UNL     1      -6.679  -7.138   0.031  0.00  0.00    +0.122 A 
ATOM      2  C   UNL     1      -7.246  -8.409   0.031  0.00  0.00    +0.048 A 
ATOM      3  C   UNL     1      -6.449  -9.532   0.016  0.00  0.00    +0.030 A 
ATOM      4  C   UNL     1      -5.064  -9.401   0.003  0.00  0.00    +0.047 A 
ATOM      5  C   UNL     1      -4.490  -8.120   0.009  0.00  0.00    +0.012 A 
ATOM      6  C   UNL     1      -5.306  -6.989   0.017  0.00  0.00    +0.056 A 
ATOM      7  C   UNL     1      -3.031  -8.326  -0.013  0.00  0.00    +0.020 A 
ATOM      8  C   UNL     1      -2.830  -9.672  -0.021  0.00  0.00    +0.093 A 
ATOM      9  N   UNL     1      -4.030 -10.317  -0.012  0.00  0.00    -0.360 N 
ATOM     10  H   UNL     1      -4.143 -11.280  -0.016  0.00  0.00    +0.165 HD
ENDROOT
BRANCH   7  11
ATOM     11  C   UNL     1      -1.995  -7.282  -0.017  0.00  0.00    +0.140 C 
ATOM     12  N   UNL     1      -2.336  -6.029  -0.007  0.00  0.00    -0.188 NA
BRANCH  12  13
ATOM     13  N   UNL     1      -1.349  -5.034  -0.012  0.00  0.00    -0.206 N 
ATOM     14  C   UNL     1      -1.703  -3.733  -0.001  0.00  0.00    +0.243 C 
ATOM     15  O   UNL     1      -2.876  -3.424   0.012  0.00  0.00    -0.273 OA
ATOM     16  H   UNL     1      -0.411  -5.281  -0.022  0.00  0.00    +0.177 HD
BRANCH  14  17
ATOM     17  C   UNL     1      -0.642  -2.664  -0.006  0.00  0.00    +0.176 C 
BRANCH  17  18
ATOM     18  S   UNL     1      -1.428  -1.034   0.011  0.00  0.00    -0.058 S 
BRANCH  18  19
ATOM     19  C   UNL     1       0.002  -0.004   0.002  0.00  0.00    +0.258 A 
ATOM     20  N   UNL     1       1.238  -0.436  -0.012  0.00  0.00    -0.203 NA
ATOM     21  C   UNL     1       2.075   0.637  -0.014  0.00  0.00    +0.110 A 
ATOM     22  C   UNL     1       3.464   0.775  -0.027  0.00  0.00    +0.031 A 
ATOM     23  C   UNL     1       4.026   2.033  -0.025  0.00  0.00    +0.002 A 
ATOM     24  C   UNL     1       3.219   3.161  -0.012  0.00  0.00    +0.004 A 
ATOM     25  C   UNL     1       1.845   3.038   0.001  0.00  0.00    +0.048 A 
ATOM     26  C   UNL     1       1.263   1.781  -0.000  0.00  0.00    +0.156 A 
ATOM     27  O   UNL     1      -0.016   1.341   0.009  0.00  0.00    -0.431 OA
ENDBRANCH  18  19
ENDBRANCH  17  18
ENDBRANCH  14  17
ENDBRANCH  12  13
ENDBRANCH   7  11
BRANCH   1  28
ATOM     28  O   UNL     1      -7.479  -6.038   0.045  0.00  0.00    -0.487 OA
BRANCH  28  29
ATOM     29  C   UNL     1      -8.891  -6.263   0.059  0.00  0.00    +0.264 C 
BRANCH  29  33
ATOM     30  C   UNL     1     -10.931  -2.511   0.100  0.00  0.00    +0.000 A 
ATOM     31  C   UNL     1     -10.614  -3.112  -1.104  0.00  0.00    +0.000 A 
ATOM     32  C   UNL     1      -9.954  -4.327  -1.117  0.00  0.00    +0.007 A 
ATOM     33  C   UNL     1      -9.610  -4.940   0.073  0.00  0.00    -0.010 A 
ATOM     34  C   UNL     1      -9.932  -4.341   1.277  0.00  0.00    +0.007 A 
ATOM     35  C   UNL     1     -10.588  -3.124   1.290  0.00  0.00    +0.000 A 
ENDBRANCH  29  33
ENDBRANCH  28  29
ENDBRANCH   1  28
TORSDOF 8
