REMARK  Name = ZINC09478524
REMARK  4 active torsions:
REMARK  status: ('A' for Active; 'I' for Inactive)
REMARK    1  A    between atoms: N_13  and  C_17
REMARK    2  A    between atoms: C_17  and  C_18
REMARK    3  A    between atoms: N_20  and  C_21
REMARK    4  A    between atoms: N_20  and  C_29
REMARK                            x       y       z     vdW  Elec       q    Type
REMARK                         _______ _______ _______ _____ _____    ______ ____
ROOT
ATOM      1  C   UNL     1      -0.015   1.381   0.015  0.00  0.00    +0.000 A 
ATOM      2  C   UNL     1       1.177   2.082   0.007  0.00  0.00    +0.000 A 
ATOM      3  C   UNL     1       2.374   1.397  -0.013  0.00  0.00    +0.006 A 
ATOM      4  C   UNL     1       2.393   0.008  -0.024  0.00  0.00    -0.012 A 
ATOM      5  C   UNL     1       1.206  -0.689  -0.012  0.00  0.00    -0.042 A 
ATOM      6  C   UNL     1       0.002   0.002   0.005  0.00  0.00    +0.004 A 
ATOM      7  C   UNL     1       1.153  -2.195  -0.010  0.00  0.00    +0.035 C 
ATOM      8  C   UNL     1       2.483  -2.781  -0.481  0.00  0.00    +0.008 C 
ATOM      9  C   UNL     1       3.612  -2.146   0.340  0.00  0.00    +0.040 C 
ATOM     10  C   UNL     1       3.729  -0.679  -0.054  0.00  0.00    +0.138 C 
ATOM     11  C   UNL     1       4.352  -0.552  -1.426  0.00  0.00    +0.251 C 
ATOM     12  O   UNL     1       3.914  -0.979  -2.473  0.00  0.00    -0.272 OA
ATOM     13  N   UNL     1       5.497   0.137  -1.241  0.00  0.00    -0.215 N 
ATOM     14  C   UNL     1       5.678   0.456   0.047  0.00  0.00    +0.310 C 
ATOM     15  O   UNL     1       6.637   1.076   0.461  0.00  0.00    -0.252 OA
ATOM     16  N   UNL     1       4.677   0.013   0.831  0.00  0.00    -0.281 N 
ATOM     17  H   UNL     1       4.597   0.129   1.791  0.00  0.00    +0.152 HD
ENDROOT
BRANCH  13  18
ATOM     18  C   UNL     1       6.428   0.490  -2.315  0.00  0.00    +0.213 C 
BRANCH  18  19
ATOM     19  C   UNL     1       6.048   1.831  -2.888  0.00  0.00    +0.234 C 
ATOM     20  O   UNL     1       5.041   2.390  -2.507  0.00  0.00    -0.274 OA
ATOM     21  N   UNL     1       6.826   2.409  -3.825  0.00  0.00    -0.292 N 
BRANCH  21  22
ATOM     22  C   UNL     1       6.515   3.758  -4.305  0.00  0.00    +0.099 C 
ATOM     23  C   UNL     1       5.106   3.769  -4.919  0.00  0.00    +0.046 C 
ATOM     24  C   UNL     1       4.681   5.251  -5.129  0.00  0.00    +0.168 C 
ATOM     25  S   UNL     1       5.319   6.008  -3.575  0.00  0.00    -0.029 S 
ATOM     26  O   UNL     1       4.287   5.999  -2.599  0.00  0.00    -0.174 OA
ATOM     27  O   UNL     1       5.972   7.230  -3.891  0.00  0.00    -0.174 OA
ATOM     28  C   UNL     1       6.582   4.753  -3.121  0.00  0.00    +0.188 C 
ENDBRANCH  21  22
BRANCH  21  29
ATOM     29  C   UNL     1       7.982   1.688  -4.363  0.00  0.00    +0.076 C 
ATOM     30  C   UNL     1       9.281   2.453  -4.036  0.00  0.00    +0.022 C 
ATOM     31  C   UNL     1      10.164   2.258  -5.293  0.00  0.00    +0.002 C 
ATOM     32  C   UNL     1       9.136   2.337  -6.449  0.00  0.00    +0.002 C 
ATOM     33  C   UNL     1       7.890   1.614  -5.897  0.00  0.00    +0.022 C 
ENDBRANCH  21  29
ENDBRANCH  18  19
ENDBRANCH  13  18
TORSDOF 4
