REMARK  Name = ZINC52094458
REMARK  5 active torsions:
REMARK  status: ('A' for Active; 'I' for Inactive)
REMARK    1  A    between atoms: C_1  and  C_2
REMARK    2  A    between atoms: C_5  and  C_7
REMARK    3  A    between atoms: C_7  and  C_9
REMARK    4  A    between atoms: C_7  and  N_22
REMARK    5  A    between atoms: N_22  and  C_23
REMARK                            x       y       z     vdW  Elec       q    Type
REMARK                         _______ _______ _______ _____ _____    ______ ____
ROOT
ATOM      1  C   UNL     1       1.589  -4.488   1.316  0.00  0.00    -0.010 A 
ATOM      2  C   UNL     1       2.923  -4.287   1.612  0.00  0.00    +0.034 A 
ATOM      3  C   UNL     1       3.424  -4.678   2.844  0.00  0.00    +0.067 A 
ATOM      4  C   UNL     1       2.577  -5.275   3.781  0.00  0.00    +0.068 A 
ATOM      5  C   UNL     1       1.240  -5.474   3.475  0.00  0.00    +0.043 A 
ATOM      6  C   UNL     1       0.748  -5.075   2.246  0.00  0.00    +0.025 A 
ATOM      7 BR   UNL     1      -1.078  -5.338   1.832  0.00  0.00    -0.050 Br
ATOM      8  N   UNL     1       3.353  -5.555   4.904  0.00  0.00    -0.306 N 
ATOM      9  H   UNL     1       3.038  -5.972   5.721  0.00  0.00    +0.170 HD
ATOM     10  C   UNL     1       4.612  -5.146   4.661  0.00  0.00    +0.325 A 
ATOM     11  O   UNL     1       5.543  -5.245   5.440  0.00  0.00    -0.247 OA
ATOM     12  N   UNL     1       4.687  -4.614   3.427  0.00  0.00    -0.306 N 
ATOM     13  H   UNL     1       5.485  -4.247   3.014  0.00  0.00    +0.170 HD
ENDROOT
BRANCH   1  14
ATOM     14  C   UNL     1       1.046  -4.062  -0.024  0.00  0.00    +0.122 C 
BRANCH  14  19
ATOM     15  C   UNL     1      -0.169   1.453   0.423  0.00  0.00    +0.051 C 
ATOM     16  C   UNL     1      -0.107  -0.048   0.299  0.00  0.00    -0.013 A 
ATOM     17  C   UNL     1      -1.124  -0.940   0.213  0.00  0.00    +0.011 A 
ATOM     18  C   UNL     1      -0.828  -2.286   0.104  0.00  0.00    +0.013 A 
ATOM     19  C   UNL     1       0.471  -2.673   0.086  0.00  0.00    +0.011 A 
ATOM     20  S   UNL     1       1.325  -1.111   0.219  0.00  0.00    -0.097 S 
ENDBRANCH  14  19
BRANCH  14  21
ATOM     21  N   UNL     1       2.129  -4.067  -1.016  0.00  0.00    -0.308 NA
ATOM     22  C   UNL     1       2.290  -5.400  -1.613  0.00  0.00    +0.102 C 
ATOM     23  H   UNL     1       1.970  -3.370  -1.728  0.00  0.00    +0.123 HD
ENDBRANCH  14  21
ENDBRANCH   1  14
TORSDOF 3
