REMARK  Name = ZINC03905109
REMARK  9 active torsions:
REMARK  status: ('A' for Active; 'I' for Inactive)
REMARK    1  A    between atoms: C_1  and  C_2
REMARK    2  A    between atoms: C_2  and  C_3
REMARK    3  A    between atoms: C_2  and  C_4
REMARK    4  A    between atoms: C_4  and  C_5
REMARK    5  A    between atoms: C_5  and  C_6
REMARK    6  A    between atoms: C_9  and  C_11
REMARK    7  A    between atoms: C_9  and  O_15
REMARK    8  A    between atoms: C_16  and  C_18
REMARK    9  A    between atoms: C_23  and  O_24
REMARK                            x       y       z     vdW  Elec       q    Type
REMARK                         _______ _______ _______ _____ _____    ______ ____
ROOT
ATOM      1  C   UNL     1       4.664  -3.018  -0.279  0.00  0.00    +0.042 C 
ATOM      2  N   UNL     1       3.696  -2.204  -0.165  0.00  0.00    -0.183 NA
ATOM      3  N   UNL     1       2.438  -2.804  -0.139  0.00  0.00    -0.148 N 
ATOM      4  C   UNL     1       2.607  -4.261  -0.265  0.00  0.00    +0.257 C 
ATOM      5  C   UNL     1       4.136  -4.432  -0.363  0.00  0.00    +0.118 C 
ATOM      6  C   UNL     1       1.262  -2.156  -0.022  0.00  0.00    +0.272 C 
ATOM      7  O   UNL     1       0.228  -2.788   0.087  0.00  0.00    -0.268 OA
ENDROOT
BRANCH   6   8
ATOM      8  C   UNL     1       1.228  -0.682  -0.027  0.00  0.00    +0.080 A 
ATOM      9  C   UNL     1       2.419   0.049  -0.033  0.00  0.00    +0.017 A 
ATOM     10  C   UNL     1       2.380   1.426  -0.038  0.00  0.00    +0.001 A 
ATOM     11  C   UNL     1       1.165   2.091  -0.036  0.00  0.00    +0.004 A 
ATOM     12  C   UNL     1      -0.020   1.382  -0.030  0.00  0.00    +0.046 A 
ATOM     13  C   UNL     1       0.000  -0.005  -0.025  0.00  0.00    +0.129 A 
BRANCH  13  14
ATOM     14  O   UNL     1      -1.163  -0.703  -0.019  0.00  0.00    -0.506 OA
ATOM     15  H   UNL     1      -1.503  -0.909  -0.901  0.00  0.00    +0.292 HD
ENDBRANCH  13  14
ENDBRANCH   6   8
BRANCH   4  16
ATOM     16  C   UNL     1       1.923  -4.775  -1.534  0.00  0.00    +0.438 C 
ATOM     17  F   UNL     1       2.466  -4.131  -2.650  0.00  0.00    -0.166 F 
ATOM     18  F   UNL     1       2.127  -6.155  -1.646  0.00  0.00    -0.166 F 
ATOM     19  F   UNL     1       0.551  -4.511  -1.464  0.00  0.00    -0.166 F 
ENDBRANCH   4  16
BRANCH   4  20
ATOM     20  O   UNL     1       2.098  -4.930   0.890  0.00  0.00    -0.363 OA
ATOM     21  H   UNL     1       1.152  -4.793   1.039  0.00  0.00    +0.212 HD
ENDBRANCH   4  20
BRANCH   1  22
ATOM     22  C   UNL     1       6.120  -2.631  -0.328  0.00  0.00    +0.053 C 
BRANCH  22  23
ATOM     23  C   UNL     1       6.248  -1.111  -0.213  0.00  0.00    +0.009 C 
BRANCH  23  25
ATOM     24  C   UNL     1       8.300  -1.070  -1.637  0.00  0.00    +0.007 C 
ATOM     25  C   UNL     1       7.726  -0.718  -0.263  0.00  0.00    -0.017 C 
ATOM     26  C   UNL     1       7.862   0.787  -0.023  0.00  0.00    +0.007 C 
ENDBRANCH  23  25
ENDBRANCH  22  23
ENDBRANCH   1  22
TORSDOF 7
