REMARK  Name = ZINC28239951
REMARK  6 active torsions:
REMARK  status: ('A' for Active; 'I' for Inactive)
REMARK    1  A    between atoms: C_1  and  C_2
REMARK    2  A    between atoms: C_5  and  S_9
REMARK    3  A    between atoms: S_9  and  N_12
REMARK    4  A    between atoms: N_12  and  C_13
REMARK    5  A    between atoms: C_16  and  N_22
REMARK    6  A    between atoms: C_17  and  N_19
REMARK                            x       y       z     vdW  Elec       q    Type
REMARK                         _______ _______ _______ _____ _____    ______ ____
ROOT
ATOM      1  N   UNL     1       3.477   1.511  -0.892  0.00  0.00    -0.216 N 
ATOM      2  H   UNL     1       3.384   0.685  -1.611  0.00  0.00    +0.174 HD
ENDROOT
BRANCH   1   3
ATOM      3  C   UNL     1       3.856   2.785  -1.333  0.00  0.00    +0.050 A 
ATOM      4  C   UNL     1       3.158   3.905  -0.902  0.00  0.00    +0.026 A 
ATOM      5  C   UNL     1       3.534   5.162  -1.334  0.00  0.00    +0.027 A 
ATOM      6  C   UNL     1       4.606   5.304  -2.207  0.00  0.00    +0.055 A 
ATOM      7  C   UNL     1       5.300   4.183  -2.641  0.00  0.00    +0.148 A 
ATOM      8  C   UNL     1       4.926   2.927  -2.206  0.00  0.00    +0.059 A 
BRANCH   7   9
ATOM      9  N   UNL     1       6.441   4.335  -3.571  0.00  0.00    +0.058 N 
ATOM     10  O   UNL     1       6.978   3.348  -4.043  0.00  0.00    -0.126 OA
ATOM     11  O   UNL     1       6.845   5.446  -3.865  0.00  0.00    -0.126 OA
ENDBRANCH   7   9
BRANCH   6  12
ATOM     12  N   UNL     1       4.984   6.577  -2.648  0.00  0.00    -0.356 N 
ATOM     13  H   UNL     1       5.833   6.690  -3.339  0.00  0.00    +0.142 HD
ATOM     14  H   UNL     1       4.434   7.465  -2.304  0.00  0.00    +0.142 HD
ENDBRANCH   6  12
ENDBRANCH   1   3
BRANCH   1  15
ATOM     15  S   UNL     1       3.168   1.249   0.714  0.00  0.00    +0.073 S 
ATOM     16  O   UNL     1       2.892  -0.138   0.854  0.00  0.00    -0.150 OA
ATOM     17  O   UNL     1       2.248   2.254   1.120  0.00  0.00    -0.150 OA
BRANCH  15  22
ATOM     18  C   UNL     1       8.299   2.298   3.711  0.00  0.00    +0.044 C 
ATOM     19  C   UNL     1       7.018   2.035   2.963  0.00  0.00    -0.049 A 
ATOM     20  C   UNL     1       5.922   2.855   3.160  0.00  0.00    +0.005 A 
ATOM     21  C   UNL     1       4.745   2.612   2.477  0.00  0.00    +0.030 A 
ATOM     22  C   UNL     1       4.666   1.555   1.589  0.00  0.00    +0.122 A 
ATOM     23  C   UNL     1       5.764   0.738   1.388  0.00  0.00    +0.045 A 
ATOM     24  C   UNL     1       6.940   0.979   2.076  0.00  0.00    +0.020 A 
ATOM     25 BR   UNL     1       5.656  -0.708   0.175  0.00  0.00    -0.048 Br
ENDBRANCH  15  22
ENDBRANCH   1  15
TORSDOF 5
