REMARK  Name = ZINC11813590
REMARK  4 active torsions:
REMARK  status: ('A' for Active; 'I' for Inactive)
REMARK    1  A    between atoms: C_2  and  C_25
REMARK    2  A    between atoms: N_5  and  C_6
REMARK    3  A    between atoms: C_9  and  N_12
REMARK    4  A    between atoms: C_13  and  C_15
REMARK                            x       y       z     vdW  Elec       q    Type
REMARK                         _______ _______ _______ _____ _____    ______ ____
ROOT
ATOM      1  C   UNL     1      -1.205   2.255   0.020  0.00  0.00    +0.109 C 
ATOM      2  C   UNL     1      -0.891   3.570  -0.696  0.00  0.00    +0.028 C 
ATOM      3  C   UNL     1       0.257   4.281   0.023  0.00  0.00    +0.024 C 
ATOM      4  C   UNL     1      -0.149   4.572   1.469  0.00  0.00    +0.073 C 
ATOM      5  C   UNL     1      -0.463   3.257   2.185  0.00  0.00    +0.024 C 
ATOM      6  C   UNL     1      -1.611   2.546   1.466  0.00  0.00    +0.028 C 
ENDROOT
BRANCH   1  11
ATOM      7  C   UNL     1       0.893   1.298  -0.980  0.00  0.00    +0.143 A 
ATOM      8  C   UNL     1       1.822   0.383  -0.572  0.00  0.00    +0.167 A 
ATOM      9  N   UNL     1       1.475  -0.061   0.648  0.00  0.00    -0.125 NA
ATOM     10  N   UNL     1       0.389   0.519   1.024  0.00  0.00    -0.065 NA
ATOM     11  N   UNL     1      -0.017   1.398   0.010  0.00  0.00    -0.248 N 
BRANCH   8  12
ATOM     12  C   UNL     1       3.006  -0.044  -1.341  0.00  0.00    +0.268 C 
ATOM     13  O   UNL     1       3.221   0.428  -2.440  0.00  0.00    -0.268 OA
ATOM     14  N   UNL     1       3.851  -0.959  -0.824  0.00  0.00    -0.296 N 
ATOM     15  C   UNL     1       3.716  -1.604   0.490  0.00  0.00    +0.108 C 
ATOM     16  C   UNL     1       4.920  -2.554   0.660  0.00  0.00    +0.020 C 
ATOM     17  C   UNL     1       5.968  -1.962  -0.319  0.00  0.00    +0.020 C 
ATOM     18  C   UNL     1       5.066  -1.474  -1.480  0.00  0.00    +0.108 C 
ENDBRANCH   8  12
ENDBRANCH   1  11
BRANCH   4  19
ATOM     19  N   UNL     1       0.951   5.253   2.157  0.00  0.00    -0.312 N 
ATOM     20  C   UNL     1       1.081   6.591   2.061  0.00  0.00    +0.219 C 
ATOM     21  O   UNL     1       0.288   7.231   1.404  0.00  0.00    -0.275 OA
ATOM     22  H   UNL     1       1.585   4.741   2.683  0.00  0.00    +0.149 HD
BRANCH  20  23
ATOM     23  C   UNL     1       2.212   7.291   2.769  0.00  0.00    +0.048 C 
ATOM     24  C   UNL     1       3.548   6.752   2.254  0.00  0.00    +0.019 C 
ATOM     25  C   UNL     1       4.696   7.463   2.973  0.00  0.00    -0.009 C 
ATOM     26  C   UNL     1       4.615   8.966   2.701  0.00  0.00    +0.007 C 
ATOM     27  C   UNL     1       3.279   9.506   3.217  0.00  0.00    -0.009 C 
ATOM     28  C   UNL     1       2.130   8.795   2.498  0.00  0.00    +0.019 C 
ATOM     29  C   UNL     1       3.173   9.252   4.722  0.00  0.00    +0.007 C 
ATOM     30  C   UNL     1       3.254   7.749   4.993  0.00  0.00    -0.009 C 
ATOM     31  C   UNL     1       4.590   7.209   4.478  0.00  0.00    +0.007 C 
ATOM     32  C   UNL     1       2.106   7.038   4.274  0.00  0.00    +0.019 C 
ENDBRANCH  20  23
ENDBRANCH   4  19
TORSDOF 4
