REMARK  Name = ZINC02404718
REMARK  5 active torsions:
REMARK  status: ('A' for Active; 'I' for Inactive)
REMARK    1  A    between atoms: C_1  and  O_2
REMARK    2  A    between atoms: O_2  and  C_3
REMARK    3  A    between atoms: C_3  and  C_5
REMARK    4  A    between atoms: C_8  and  C_11
REMARK    5  A    between atoms: C_28  and  C_30
REMARK                            x       y       z     vdW  Elec       q    Type
REMARK                         _______ _______ _______ _____ _____    ______ ____
ROOT
ATOM      1  C   UNL     1       0.849  -6.316   1.342  0.00  0.00    +0.234 C 
ATOM      2  C   UNL     1      -0.236  -6.847   2.232  0.00  0.00    +0.027 C 
ATOM      3  C   UNL     1      -0.019  -7.025   3.551  0.00  0.00    +0.083 C 
ATOM      4  C   UNL     1       1.329  -6.686   4.074  0.00  0.00    +0.042 A 
ATOM      5  C   UNL     1       1.560  -6.521   5.432  0.00  0.00    +0.013 A 
ATOM      6  C   UNL     1       2.830  -6.204   5.875  0.00  0.00    +0.001 A 
ATOM      7  C   UNL     1       3.866  -6.052   4.970  0.00  0.00    +0.004 A 
ATOM      8  C   UNL     1       3.644  -6.217   3.615  0.00  0.00    +0.046 A 
ATOM      9  C   UNL     1       2.378  -6.535   3.158  0.00  0.00    +0.131 A 
ATOM     10  O   UNL     1       2.131  -6.706   1.838  0.00  0.00    -0.479 OA
ATOM     11  N   UNL     1      -0.989  -7.496   4.372  0.00  0.00    -0.213 NA
ATOM     12  C   UNL     1      -2.197  -7.824   3.978  0.00  0.00    +0.237 C 
ATOM     13  N   UNL     1      -3.267  -8.304   4.651  0.00  0.00    -0.205 NA
ATOM     14  C   UNL     1      -4.269  -8.489   3.838  0.00  0.00    +0.203 C 
ATOM     15  N   UNL     1      -3.902  -8.135   2.575  0.00  0.00    -0.251 N 
ATOM     16  N   UNL     1      -2.575  -7.706   2.656  0.00  0.00    -0.208 N 
ATOM     17  C   UNL     1      -1.601  -7.198   1.682  0.00  0.00    +0.159 C 
ATOM     18  H   UNL     1      -4.452  -8.173   1.778  0.00  0.00    +0.171 HD
ENDROOT
BRANCH  17  19
ATOM     19  C   UNL     1      -2.180  -5.966   1.036  0.00  0.00    -0.020 A 
ATOM     20  C   UNL     1      -2.630  -4.921   1.822  0.00  0.00    +0.006 A 
ATOM     21  C   UNL     1      -3.160  -3.790   1.230  0.00  0.00    +0.002 A 
ATOM     22  C   UNL     1      -3.242  -3.703  -0.147  0.00  0.00    +0.020 A 
ATOM     23  C   UNL     1      -2.792  -4.748  -0.933  0.00  0.00    +0.041 A 
ATOM     24  C   UNL     1      -2.255  -5.878  -0.341  0.00  0.00    +0.025 A 
ATOM     25 CL   UNL     1      -2.894  -4.640  -2.663  0.00  0.00    -0.084 Cl
ENDBRANCH  17  19
BRANCH   1  29
ATOM     26  C   UNL     1       0.618  -2.047   1.225  0.00  0.00    +0.059 A 
ATOM     27  C   UNL     1       0.234  -2.801   0.114  0.00  0.00    +0.015 A 
ATOM     28  C   UNL     1       0.312  -4.178   0.158  0.00  0.00    +0.008 A 
ATOM     29  C   UNL     1       0.767  -4.811   1.301  0.00  0.00    -0.003 A 
ATOM     30  C   UNL     1       1.148  -4.070   2.405  0.00  0.00    +0.008 A 
ATOM     31  C   UNL     1       1.082  -2.693   2.372  0.00  0.00    +0.015 A 
BRANCH  26  32
ATOM     32  C   UNL     1       0.537  -0.573   1.184  0.00  0.00    +0.339 C 
ATOM     33  O   UNL     1       0.876   0.081   2.150  0.00  0.00    -0.245 OA
BRANCH  32  35
ATOM     34  C   UNL     1       0.038   1.475   0.106  0.00  0.00    +0.280 C 
ATOM     35  O   UNL     1       0.089   0.047   0.075  0.00  0.00    -0.464 OA
ENDBRANCH  32  35
ENDBRANCH  26  32
ENDBRANCH   1  29
TORSDOF 4
