REMARK  Name = ZINC49843631
REMARK  5 active torsions:
REMARK  status: ('A' for Active; 'I' for Inactive)
REMARK    1  A    between atoms: C_1  and  C_2
REMARK    2  A    between atoms: C_2  and  C_4
REMARK    3  A    between atoms: C_2  and  N_8
REMARK    4  A    between atoms: C_4  and  C_5
REMARK    5  A    between atoms: C_9  and  C_11
REMARK                            x       y       z     vdW  Elec       q    Type
REMARK                         _______ _______ _______ _____ _____    ______ ____
ROOT
ATOM      1  C   UNL     1      -3.465  -1.164  -1.134  0.00  0.00    +0.171 C 
ATOM      2  C   UNL     1      -4.402  -0.053  -0.741  0.00  0.00    -0.018 A 
ATOM      3  C   UNL     1      -4.028   0.793   0.293  0.00  0.00    +0.006 A 
ATOM      4  C   UNL     1      -4.858   1.822   0.689  0.00  0.00    +0.000 A 
ATOM      5  C   UNL     1      -6.070   2.012   0.052  0.00  0.00    +0.000 A 
ATOM      6  C   UNL     1      -6.444   1.172  -0.978  0.00  0.00    +0.004 A 
ATOM      7  C   UNL     1      -5.610   0.139  -1.378  0.00  0.00    -0.041 A 
ATOM      8  C   UNL     1      -6.054  -0.745  -2.514  0.00  0.00    +0.050 C 
ATOM      9  C   UNL     1      -5.229  -2.032  -2.528  0.00  0.00    +0.086 C 
ATOM     10  N   UNL     1      -3.805  -1.670  -2.468  0.00  0.00    -0.302 NA
ATOM     11  H   UNL     1      -3.570  -0.996  -3.181  0.00  0.00    +0.123 HD
ENDROOT
BRANCH   1  13
ATOM     12  N   UNL     1      -1.372  -0.511   0.012  0.00  0.00    -0.311 N 
ATOM     13  C   UNL     1      -2.051  -0.643  -1.145  0.00  0.00    +0.235 C 
ATOM     14  O   UNL     1      -1.524  -0.341  -2.194  0.00  0.00    -0.274 OA
ATOM     15  H   UNL     1      -1.794  -0.752   0.852  0.00  0.00    +0.149 HD
BRANCH  12  17
ATOM     16  C   UNL     1      -0.019   1.526   0.010  0.00  0.00    +0.028 C 
ATOM     17  C   UNL     1       0.002  -0.004   0.002  0.00  0.00    +0.081 C 
BRANCH  17  18
ATOM     18  C   UNL     1       0.742  -0.511   1.242  0.00  0.00    +0.147 C 
BRANCH  18  19
ATOM     19  C   UNL     1       0.870  -2.011   1.172  0.00  0.00    +0.358 C 
ATOM     20  O   UNL     1       0.412  -2.618   0.219  0.00  0.00    -0.246 OA
ATOM     21  O   UNL     1       1.432  -2.617   2.068  0.00  0.00    -0.246 OA
ENDBRANCH  18  19
ENDBRANCH  17  18
ENDBRANCH  12  17
ENDBRANCH   1  13
TORSDOF 4
