REMARK  Name = ZINC40083946
REMARK  9 active torsions:
REMARK  status: ('A' for Active; 'I' for Inactive)
REMARK    1  A    between atoms: C_1  and  C_2
REMARK    2  A    between atoms: C_4  and  C_40
REMARK    3  A    between atoms: C_8  and  C_12
REMARK    4  A    between atoms: C_12  and  C_14
REMARK    5  A    between atoms: C_12  and  O_15
REMARK    6  A    between atoms: O_15  and  C_16
REMARK    7  A    between atoms: C_16  and  C_18
REMARK    8  A    between atoms: C_31  and  C_32
REMARK    9  A    between atoms: C_35  and  O_38
REMARK                            x       y       z     vdW  Elec       q    Type
REMARK                         _______ _______ _______ _____ _____    ______ ____
ROOT
ATOM      1  C   UNL     1       8.292  -2.400   2.293  0.00  0.00    +0.073 A 
ATOM      2  C   UNL     1       8.084  -1.517   3.441  0.00  0.00    +0.015 A 
ATOM      3  C   UNL     1       6.873  -1.494   4.139  0.00  0.00    +0.011 A 
ATOM      4  C   UNL     1       6.725  -0.655   5.204  0.00  0.00    +0.001 A 
ATOM      5  C   UNL     1       7.766   0.179   5.605  0.00  0.00    +0.002 A 
ATOM      6  C   UNL     1       8.958   0.181   4.948  0.00  0.00    +0.028 A 
ATOM      7  C   UNL     1       9.149  -0.671   3.844  0.00  0.00    +0.072 A 
ATOM      8  N   UNL     1      10.303  -0.692   3.182  0.00  0.00    -0.247 NA
ATOM      9  C   UNL     1      10.523  -1.482   2.136  0.00  0.00    +0.072 A 
ATOM     10  C   UNL     1       9.530  -2.358   1.667  0.00  0.00    -0.007 A 
ATOM     11  C   UNL     1      10.051  -3.134   0.483  0.00  0.00    +0.043 C 
ATOM     12  C   UNL     1      11.491  -2.655   0.256  0.00  0.00    +0.042 C 
ATOM     13  C   UNL     1      11.741  -1.609   1.313  0.00  0.00    -0.021 C 
ATOM     14  C   UNL     1      12.884  -0.921   1.486  0.00  0.00    +0.013 C 
ENDROOT
BRANCH  14  15
ATOM     15  C   UNL     1      14.070  -1.249   0.678  0.00  0.00    -0.024 A 
ATOM     16  C   UNL     1      15.304  -0.662   0.974  0.00  0.00    +0.011 A 
ATOM     17  C   UNL     1      16.411  -0.972   0.215  0.00  0.00    +0.046 A 
ATOM     18  C   UNL     1      16.303  -1.866  -0.843  0.00  0.00    +0.117 A 
ATOM     19  C   UNL     1      15.079  -2.452  -1.141  0.00  0.00    +0.046 A 
ATOM     20  C   UNL     1      13.967  -2.153  -0.384  0.00  0.00    +0.011 A 
BRANCH  18  21
ATOM     21  O   UNL     1      17.397  -2.168  -1.589  0.00  0.00    -0.507 OA
ATOM     22  H   UNL     1      17.901  -2.924  -1.259  0.00  0.00    +0.292 HD
ENDBRANCH  18  21
ENDBRANCH  14  15
BRANCH   1  23
ATOM     23  C   UNL     1       7.224  -3.306   1.820  0.00  0.00    +0.341 C 
ATOM     24  O   UNL     1       7.138  -4.430   2.273  0.00  0.00    -0.245 OA
BRANCH  23  25
ATOM     25  O   UNL     1       6.348  -2.886   0.888  0.00  0.00    -0.450 OA
BRANCH  25  26
ATOM     26  C   UNL     1       5.342  -3.814   0.478  0.00  0.00    +0.238 C 
ATOM     27  C   UNL     1       5.856  -4.632  -0.709  0.00  0.00    +0.060 C 
BRANCH  26  34
ATOM     28  C   UNL     1      -0.126   1.056   0.275  0.00  0.00    +0.024 C 
ATOM     29  C   UNL     1      -0.054  -0.472   0.301  0.00  0.00    +0.076 C 
ATOM     30  C   UNL     1       0.702  -0.999  -0.898  0.00  0.00    -0.045 C 
ATOM     31  C   UNL     1       1.831  -1.688  -0.671  0.00  0.00    +0.071 C 
ATOM     32  C   UNL     1       2.247  -1.879   0.735  0.00  0.00    +0.112 C 
ATOM     33  N   UNL     1       3.341  -2.545   1.022  0.00  0.00    -0.224 NA
ATOM     34  C   UNL     1       4.101  -3.063   0.070  0.00  0.00    +0.164 C 
ATOM     35  N   UNL     1       3.831  -2.958  -1.209  0.00  0.00    -0.158 NA
ATOM     36  C   UNL     1       2.755  -2.311  -1.671  0.00  0.00    +0.271 C 
ATOM     37  O   UNL     1       2.534  -2.231  -2.867  0.00  0.00    -0.268 OA
ATOM     38  S   UNL     1       0.997  -1.058   1.692  0.00  0.00    -0.098 S 
ATOM     39  C   UNL     1       0.205  -0.759  -2.300  0.00  0.00    +0.041 C 
ENDBRANCH  26  34
ENDBRANCH  25  26
ENDBRANCH  23  25
ENDBRANCH   1  23
TORSDOF 6
