REMARK  Name = ZINC39232749
REMARK  8 active torsions:
REMARK  status: ('A' for Active; 'I' for Inactive)
REMARK    1  A    between atoms: C_1  and  C_2
REMARK    2  A    between atoms: C_2  and  C_3
REMARK    3  A    between atoms: C_3  and  C_4
REMARK    4  A    between atoms: C_4  and  C_5
REMARK    5  A    between atoms: C_8  and  C_11
REMARK    6  A    between atoms: N_13  and  C_14
REMARK    7  A    between atoms: C_14  and  C_16
REMARK    8  A    between atoms: C_14  and  C_17
REMARK                            x       y       z     vdW  Elec       q    Type
REMARK                         _______ _______ _______ _____ _____    ______ ____
ROOT
ATOM      1  C   UNL     1      -9.605  -4.400  -2.336  0.00  0.00    +0.236 C 
ATOM      2  O   UNL     1      -9.024  -4.186  -3.378  0.00  0.00    -0.274 OA
ATOM      3  N   UNL     1     -10.946  -4.284  -2.275  0.00  0.00    -0.300 N 
ATOM      4  C   UNL     1     -11.653  -4.426  -0.995  0.00  0.00    +0.106 C 
ATOM      5  C   UNL     1     -12.530  -3.189  -0.776  0.00  0.00    +0.009 C 
ATOM      6  C   UNL     1     -13.447  -2.998  -1.985  0.00  0.00    -0.037 C 
ATOM      7  C   UNL     1     -12.606  -2.781  -3.244  0.00  0.00    +0.009 C 
ATOM      8  C   UNL     1     -11.729  -4.007  -3.487  0.00  0.00    +0.106 C 
ATOM      9  C   UNL     1     -14.354  -1.788  -1.756  0.00  0.00    +0.140 C 
ATOM     10  C   UNL     1     -15.239  -2.156  -0.568  0.00  0.00    +0.042 C 
ATOM     11  N   UNL     1     -15.067  -1.236   0.299  0.00  0.00    -0.243 NA
ATOM     12  C   UNL     1     -14.122  -0.347  -0.093  0.00  0.00    +0.216 C 
ATOM     13  N   UNL     1     -13.627  -0.608  -1.285  0.00  0.00    -0.264 NA
ATOM     14  C   UNL     1     -16.001  -3.456  -0.529  0.00  0.00    +0.034 C 
ATOM     15  C   UNL     1     -14.990  -4.551  -0.918  0.00  0.00    -0.076 C 
ATOM     16  N   UNL     1     -14.293  -4.187  -2.155  0.00  0.00    +0.385 N 
ATOM     17  H   UNL     1     -14.977  -4.003  -2.873  0.00  0.00    -0.085 HD
ATOM     18  H   UNL     1     -13.716  -4.962  -2.446  0.00  0.00    -0.085 HD
ENDROOT
BRANCH   1  19
ATOM     19  C   UNL     1      -8.827  -4.796  -1.107  0.00  0.00    +0.156 C 
ATOM     20  C   UNL     1      -8.951  -6.306  -0.890  0.00  0.00    +0.038 C 
BRANCH  19  23
ATOM     21  C   UNL     1      -6.634  -4.223  -0.213  0.00  0.00    +0.245 C 
ATOM     22  O   UNL     1      -7.099  -4.316   0.906  0.00  0.00    -0.270 OA
ATOM     23  N   UNL     1      -7.416  -4.444  -1.288  0.00  0.00    -0.300 N 
ATOM     24  H   UNL     1      -7.045  -4.369  -2.181  0.00  0.00    +0.150 HD
BRANCH  21  28
ATOM     25  C   UNL     1      -2.544  -3.202  -0.736  0.00  0.00    -0.047 A 
ATOM     26  C   UNL     1      -3.070  -3.307   0.539  0.00  0.00    +0.004 A 
ATOM     27  C   UNL     1      -4.398  -3.638   0.716  0.00  0.00    +0.013 A 
ATOM     28  C   UNL     1      -5.211  -3.867  -0.395  0.00  0.00    +0.037 A 
ATOM     29  C   UNL     1      -4.674  -3.760  -1.679  0.00  0.00    +0.013 A 
ATOM     30  C   UNL     1      -3.346  -3.422  -1.842  0.00  0.00    +0.004 A 
BRANCH  25  31
ATOM     31  C   UNL     1      -1.093  -2.839  -0.922  0.00  0.00    +0.035 C 
BRANCH  31  32
ATOM     32  C   UNL     1      -0.954  -1.318  -1.008  0.00  0.00    +0.004 C 
BRANCH  32  34
ATOM     33  C   UNL     1       0.658   0.571  -1.283  0.00  0.00    +0.004 C 
ATOM     34  C   UNL     1       0.519  -0.950  -1.197  0.00  0.00    -0.003 C 
ENDBRANCH  32  34
ENDBRANCH  31  32
ENDBRANCH  25  31
ENDBRANCH  21  28
ENDBRANCH  19  23
ENDBRANCH   1  19
TORSDOF 6
