REMARK  Name = ZINC40962718
REMARK  9 active torsions:
REMARK  status: ('A' for Active; 'I' for Inactive)
REMARK    1  A    between atoms: C_1  and  C_2
REMARK    2  A    between atoms: C_5  and  C_8
REMARK    3  A    between atoms: C_8  and  O_9
REMARK    4  A    between atoms: O_9  and  C_10
REMARK    5  A    between atoms: C_15  and  C_16
REMARK    6  A    between atoms: C_18  and  C_27
REMARK    7  A    between atoms: C_19  and  C_26
REMARK    8  A    between atoms: N_29  and  C_30
REMARK    9  A    between atoms: C_33  and  C_36
REMARK                            x       y       z     vdW  Elec       q    Type
REMARK                         _______ _______ _______ _____ _____    ______ ____
ROOT
ATOM      1  C   UNL     1       3.562  -5.648  -0.117  0.00  0.00    +0.181 C 
ATOM      2  C   UNL     1       4.620  -5.614  -1.187  0.00  0.00    +0.060 C 
ATOM      3  C   UNL     1       5.858  -6.098  -1.009  0.00  0.00    +0.018 C 
ATOM      4  N   UNL     1       6.262  -6.656   0.179  0.00  0.00    -0.287 N 
ATOM      5  C   UNL     1       5.440  -6.472   1.283  0.00  0.00    +0.218 A 
ATOM      6  N   UNL     1       4.176  -5.997   1.162  0.00  0.00    -0.221 N 
ATOM      7  N   UNL     1       3.651  -5.933   2.452  0.00  0.00    -0.156 NA
ATOM      8  C   UNL     1       4.587  -6.361   3.262  0.00  0.00    +0.247 A 
ATOM      9  N   UNL     1       5.670  -6.689   2.549  0.00  0.00    -0.201 NA
ATOM     10  C   UNL     1       6.838  -6.027  -2.152  0.00  0.00    +0.061 C 
ATOM     11  H   UNL     1       7.089  -7.159   0.244  0.00  0.00    +0.155 HD
ENDROOT
BRANCH   1  17
ATOM     12  C   UNL     1       1.204  -6.293  -0.673  0.00  0.00    +0.127 A 
ATOM     13  C   UNL     1       0.248  -7.242  -1.005  0.00  0.00    +0.046 A 
ATOM     14  C   UNL     1       0.609  -8.570  -1.129  0.00  0.00    +0.004 A 
ATOM     15  C   UNL     1       1.922  -8.952  -0.922  0.00  0.00    +0.001 A 
ATOM     16  C   UNL     1       2.876  -8.008  -0.591  0.00  0.00    +0.009 A 
ATOM     17  C   UNL     1       2.521  -6.678  -0.472  0.00  0.00    +0.023 A 
BRANCH  12  18
ATOM     18  O   UNL     1       0.851  -4.986  -0.551  0.00  0.00    -0.487 OA
BRANCH  18  19
ATOM     19  C   UNL     1      -0.534  -4.670  -0.712  0.00  0.00    +0.264 C 
BRANCH  19  24
ATOM     20  C   UNL     1      -1.331   0.992   0.125  0.00  0.00    +0.044 C 
ATOM     21  C   UNL     1      -1.123  -0.484  -0.093  0.00  0.00    -0.050 A 
ATOM     22  C   UNL     1      -0.755  -0.954  -1.340  0.00  0.00    +0.004 A 
ATOM     23  C   UNL     1      -0.565  -2.308  -1.540  0.00  0.00    +0.007 A 
ATOM     24  C   UNL     1      -0.741  -3.193  -0.493  0.00  0.00    -0.010 A 
ATOM     25  C   UNL     1      -1.107  -2.724   0.754  0.00  0.00    +0.007 A 
ATOM     26  C   UNL     1      -1.294  -1.369   0.956  0.00  0.00    +0.004 A 
ENDBRANCH  19  24
ENDBRANCH  18  19
ENDBRANCH  12  18
ENDBRANCH   1  17
BRANCH   2  27
ATOM     27  C   UNL     1       4.292  -5.046  -2.441  0.00  0.00    +0.248 C 
ATOM     28  O   UNL     1       4.192  -3.837  -2.554  0.00  0.00    -0.270 OA
ATOM     29  N   UNL     1       4.090  -5.841  -3.510  0.00  0.00    -0.282 N 
ATOM     30  H   UNL     1       4.073  -6.805  -3.401  0.00  0.00    +0.155 HD
BRANCH  29  31
ATOM     31  C   UNL     1       3.906  -5.278  -4.776  0.00  0.00    +0.034 A 
ATOM     32  C   UNL     1       4.548  -4.093  -5.111  0.00  0.00    +0.023 A 
ATOM     33  C   UNL     1       4.364  -3.539  -6.362  0.00  0.00    +0.005 A 
ATOM     34  C   UNL     1       3.542  -4.163  -7.282  0.00  0.00    -0.050 A 
ATOM     35  C   UNL     1       2.900  -5.343  -6.952  0.00  0.00    +0.005 A 
ATOM     36  C   UNL     1       3.084  -5.905  -5.704  0.00  0.00    +0.023 A 
ATOM     37  C   UNL     1       3.343  -3.556  -8.647  0.00  0.00    +0.044 C 
ENDBRANCH  29  31
ENDBRANCH   2  27
TORSDOF 6
