REMARK  Name = ZINC39530412
REMARK  8 active torsions:
REMARK  status: ('A' for Active; 'I' for Inactive)
REMARK    1  A    between atoms: C_1  and  S_2
REMARK    2  A    between atoms: S_2  and  C_3
REMARK    3  A    between atoms: N_6  and  C_10
REMARK    4  A    between atoms: C_13  and  C_26
REMARK    5  A    between atoms: C_15  and  S_16
REMARK    6  A    between atoms: S_16  and  O_19
REMARK    7  A    between atoms: O_19  and  C_20
REMARK    8  A    between atoms: C_31  and  O_32
REMARK                            x       y       z     vdW  Elec       q    Type
REMARK                         _______ _______ _______ _____ _____    ______ ____
ROOT
ATOM      1  C   UNL     1      -4.022  -1.961  -2.236  0.00  0.00    +0.058 A 
ATOM      2  C   UNL     1      -4.049  -3.140  -2.972  0.00  0.00    +0.026 A 
ATOM      3  C   UNL     1      -5.170  -3.473  -3.701  0.00  0.00    +0.010 A 
ATOM      4  C   UNL     1      -6.278  -2.627  -3.701  0.00  0.00    -0.012 A 
ATOM      5  C   UNL     1      -6.249  -1.445  -2.962  0.00  0.00    +0.041 A 
ATOM      6  C   UNL     1      -5.128  -1.119  -2.229  0.00  0.00    +0.150 A 
ENDROOT
BRANCH   1   9
ATOM      7  C   UNL     1      -1.222   0.156  -1.490  0.00  0.00    +0.129 C 
ATOM      8  C   UNL     1      -1.667  -1.146  -2.165  0.00  0.00    +0.134 C 
ATOM      9  N   UNL     1      -2.886  -1.626  -1.497  0.00  0.00    -0.325 N 
ATOM     10  C   UNL     1      -2.876  -1.743  -0.031  0.00  0.00    +0.120 C 
ATOM     11  C   UNL     1      -2.385  -0.418   0.560  0.00  0.00    +0.101 C 
ATOM     12  N   UNL     1      -1.093  -0.065  -0.044  0.00  0.00    -0.302 NA
ATOM     13  H   UNL     1      -0.397  -0.769   0.153  0.00  0.00    +0.123 HD
BRANCH   7  15
ATOM     14  C   UNL     1       0.173   2.453  -2.466  0.00  0.00    +0.086 C 
ATOM     15  S   UNL     1       0.378   0.675  -2.169  0.00  0.00    -0.144 S 
ENDBRANCH   7  15
ENDBRANCH   1   9
BRANCH   4  16
ATOM     16  C   UNL     1      -7.485  -2.982  -4.485  0.00  0.00    +0.024 A 
ATOM     17  C   UNL     1      -8.744  -2.943  -3.889  0.00  0.00    +0.012 A 
ATOM     18  C   UNL     1      -9.864  -3.275  -4.624  0.00  0.00    +0.001 A 
ATOM     19  C   UNL     1      -9.742  -3.648  -5.951  0.00  0.00    +0.004 A 
ATOM     20  C   UNL     1      -8.498  -3.691  -6.551  0.00  0.00    +0.046 A 
ATOM     21  C   UNL     1      -7.366  -3.354  -5.828  0.00  0.00    +0.125 A 
BRANCH  21  22
ATOM     22  O   UNL     1      -6.143  -3.390  -6.419  0.00  0.00    -0.506 OA
ATOM     23  H   UNL     1      -5.697  -4.245  -6.348  0.00  0.00    +0.292 HD
ENDBRANCH  21  22
ENDBRANCH   4  16
BRANCH   6  24
ATOM     24  S   UNL     1      -5.093   0.371  -1.289  0.00  0.00    +0.153 S 
ATOM     25  O   UNL     1      -5.305   0.001   0.067  0.00  0.00    -0.131 OA
ATOM     26  O   UNL     1      -3.943   1.091  -1.711  0.00  0.00    -0.131 OA
BRANCH  24  27
ATOM     27  O   UNL     1      -6.302   1.196  -1.708  0.00  0.00    -0.342 OA
BRANCH  27  28
ATOM     28  C   UNL     1      -6.578   2.234  -0.876  0.00  0.00    +0.157 A 
ATOM     29  C   UNL     1      -7.510   2.081   0.140  0.00  0.00    +0.048 A 
ATOM     30  C   UNL     1      -7.789   3.138   0.985  0.00  0.00    +0.004 A 
ATOM     31  C   UNL     1      -7.140   4.347   0.819  0.00  0.00    +0.000 A 
ATOM     32  C   UNL     1      -6.211   4.503  -0.193  0.00  0.00    +0.004 A 
ATOM     33  C   UNL     1      -5.924   3.447  -1.037  0.00  0.00    +0.048 A 
ENDBRANCH  27  28
ENDBRANCH  24  27
ENDBRANCH   6  24
TORSDOF 7
