REMARK  Name = ZINC12181357
REMARK  6 active torsions:
REMARK  status: ('A' for Active; 'I' for Inactive)
REMARK    1  A    between atoms: C_1  and  C_2
REMARK    2  A    between atoms: C_2  and  C_4
REMARK    3  A    between atoms: C_2  and  N_17
REMARK    4  A    between atoms: N_6  and  C_7
REMARK    5  A    between atoms: C_20  and  N_29
REMARK    6  A    between atoms: C_22  and  C_24
REMARK                            x       y       z     vdW  Elec       q    Type
REMARK                         _______ _______ _______ _____ _____    ______ ____
ROOT
ATOM      1  C   UNL     1      -1.110  -4.914   1.234  0.00  0.00    +0.043 C 
ATOM      2  C   UNL     1      -1.915  -4.500   0.001  0.00  0.00    +0.194 C 
ENDROOT
BRANCH   2   3
ATOM      3  N   UNL     1      -2.114  -3.049   0.012  0.00  0.00    -0.216 N 
ATOM      4  C   UNL     1      -3.364  -2.544   0.036  0.00  0.00    +0.289 A 
ATOM      5  O   UNL     1      -4.329  -3.292   0.048  0.00  0.00    -0.264 OA
ATOM      6  C   UNL     1      -3.550  -1.138   0.046  0.00  0.00    +0.094 A 
ATOM      7  C   UNL     1      -2.458  -0.321   0.038  0.00  0.00    +0.061 A 
ATOM      8  C   UNL     1      -1.164  -0.886   0.008  0.00  0.00    +0.128 A 
ATOM      9  N   UNL     1      -1.007  -2.193  -0.001  0.00  0.00    -0.164 NA
BRANCH   8  10
ATOM     10  C   UNL     1       0.022  -0.005  -0.006  0.00  0.00    +0.155 A 
ATOM     11  C   UNL     1       1.319  -0.412  -0.030  0.00  0.00    +0.051 A 
ATOM     12  C   UNL     1       2.110   0.753  -0.037  0.00  0.00    +0.042 A 
ATOM     13  C   UNL     1       1.266   1.804  -0.018  0.00  0.00    +0.196 A 
ATOM     14  O   UNL     1       0.005   1.342   0.001  0.00  0.00    -0.461 OA
ENDBRANCH   8  10
BRANCH   6  15
ATOM     15  N   UNL     1      -4.836  -0.596   0.071  0.00  0.00    -0.354 N 
ATOM     16  H   UNL     1      -5.609  -1.182   0.081  0.00  0.00    +0.142 HD
ATOM     17  H   UNL     1      -4.956   0.366   0.078  0.00  0.00    +0.142 HD
ENDBRANCH   6  15
ENDBRANCH   2   3
BRANCH   2  18
ATOM     18  C   UNL     1      -1.163  -4.894  -1.245  0.00  0.00    +0.242 C 
ATOM     19  O   UNL     1      -0.827  -4.045  -2.044  0.00  0.00    -0.273 OA
ATOM     20  N   UNL     1      -0.864  -6.188  -1.470  0.00  0.00    -0.284 N 
ATOM     21  H   UNL     1      -1.074  -6.858  -0.801  0.00  0.00    +0.155 HD
BRANCH  20  22
ATOM     22  C   UNL     1      -0.250  -6.566  -2.670  0.00  0.00    +0.037 A 
ATOM     23  C   UNL     1       0.666  -5.717  -3.272  0.00  0.00    +0.023 A 
ATOM     24  C   UNL     1       1.274  -6.095  -4.453  0.00  0.00    +0.002 A 
ATOM     25  C   UNL     1       0.956  -7.306  -5.033  0.00  0.00    +0.004 A 
ATOM     26  C   UNL     1       0.033  -8.157  -4.438  0.00  0.00    -0.042 A 
ATOM     27  C   UNL     1      -0.569  -7.791  -3.256  0.00  0.00    -0.023 A 
ATOM     28  C   UNL     1      -1.565  -8.670  -2.547  0.00  0.00    +0.037 C 
ATOM     29  C   UNL     1      -2.116  -9.732  -3.496  0.00  0.00    +0.005 C 
ATOM     30  C   UNL     1      -0.933 -10.440  -4.168  0.00  0.00    +0.005 C 
ATOM     31  C   UNL     1      -0.270  -9.459  -5.132  0.00  0.00    +0.035 C 
ENDBRANCH  20  22
ENDBRANCH   2  18
TORSDOF 5
