REMARK  Name = ZINC19500696
REMARK  15 active torsions:
REMARK  status: ('A' for Active; 'I' for Inactive)
REMARK    1  A    between atoms: C_1  and  C_2
REMARK    2  A    between atoms: C_2  and  C_3
REMARK    3  A    between atoms: C_3  and  C_35
REMARK    4  A    between atoms: C_8  and  C_11
REMARK    5  A    between atoms: C_13  and  O_21
REMARK    6  A    between atoms: C_14  and  O_19
REMARK    7  A    between atoms: C_15  and  O_17
REMARK    8  A    between atoms: O_17  and  C_18
REMARK    9  A    between atoms: O_19  and  C_20
REMARK   10  A    between atoms: O_21  and  C_22
REMARK   11  A    between atoms: N_25  and  C_28
REMARK   12  A    between atoms: C_31  and  C_34
REMARK   13  A    between atoms: C_35  and  O_37
REMARK   14  A    between atoms: O_37  and  C_38
REMARK   15  A    between atoms: C_38  and  C_39
REMARK                            x       y       z     vdW  Elec       q    Type
REMARK                         _______ _______ _______ _____ _____    ______ ____
ROOT
ATOM      1  C   UNL     1      -1.433  -0.534   0.013  0.00  0.00    +0.129 C 
ATOM      2  C   UNL     1      -1.446  -2.055   0.126  0.00  0.00    +0.120 C 
ATOM      3  C   UNL     1      -1.067  -2.140   1.654  0.00  0.00    +0.111 C 
ATOM      4  C   UNL     1      -1.982  -1.182   2.287  0.00  0.00    +0.098 C 
ATOM      5  N   UNL     1      -2.151  -0.095   1.254  0.00  0.00    -0.293 NA
ATOM      6  C   UNL     1      -0.642  -3.514   1.780  0.00  0.00    +0.232 C 
ATOM      7  O   UNL     1      -0.776  -4.242   2.740  0.00  0.00    -0.274 OA
ATOM      8  N   UNL     1      -0.054  -3.815   0.577  0.00  0.00    -0.210 N 
ATOM      9  C   UNL     1      -0.314  -2.878  -0.402  0.00  0.00    +0.232 C 
ATOM     10  O   UNL     1       0.254  -2.740  -1.464  0.00  0.00    -0.274 OA
ATOM     11  H   UNL     1      -1.792   0.788   1.586  0.00  0.00    +0.124 HD
ENDROOT
BRANCH   8  12
ATOM     12  C   UNL     1       0.722  -4.962   0.358  0.00  0.00    +0.044 A 
ATOM     13  C   UNL     1       1.288  -5.191  -0.888  0.00  0.00    +0.024 A 
ATOM     14  C   UNL     1       2.052  -6.323  -1.100  0.00  0.00    +0.005 A 
ATOM     15  C   UNL     1       2.253  -7.226  -0.073  0.00  0.00    -0.050 A 
ATOM     16  C   UNL     1       1.689  -7.001   1.169  0.00  0.00    +0.005 A 
ATOM     17  C   UNL     1       0.930  -5.868   1.390  0.00  0.00    +0.024 A 
ATOM     18  C   UNL     1       3.086  -8.460  -0.308  0.00  0.00    +0.044 C 
ENDBRANCH   8  12
BRANCH   4  19
ATOM     19  C   UNL     1      -3.296  -1.843   2.609  0.00  0.00    -0.023 A 
ATOM     20  C   UNL     1      -4.239  -2.024   1.615  0.00  0.00    +0.054 A 
ATOM     21  C   UNL     1      -5.451  -2.632   1.907  0.00  0.00    +0.165 A 
ATOM     22  C   UNL     1      -5.716  -3.061   3.203  0.00  0.00    +0.204 A 
ATOM     23  C   UNL     1      -4.765  -2.878   4.200  0.00  0.00    +0.165 A 
ATOM     24  C   UNL     1      -3.554  -2.273   3.897  0.00  0.00    +0.054 A 
BRANCH  23  25
ATOM     25  O   UNL     1      -5.020  -3.295   5.468  0.00  0.00    -0.491 OA
ATOM     26  C   UNL     1      -3.997  -3.074   6.442  0.00  0.00    +0.277 C 
ENDBRANCH  23  25
BRANCH  22  27
ATOM     27  O   UNL     1      -6.904  -3.658   3.494  0.00  0.00    -0.488 OA
ATOM     28  C   UNL     1      -6.965  -5.079   3.360  0.00  0.00    +0.277 C 
ENDBRANCH  22  27
BRANCH  21  29
ATOM     29  O   UNL     1      -6.378  -2.809   0.928  0.00  0.00    -0.491 OA
ATOM     30  C   UNL     1      -6.038  -2.344  -0.379  0.00  0.00    +0.277 C 
ENDBRANCH  21  29
ENDBRANCH   4  19
BRANCH   1  32
ATOM     31  C   UNL     1      -0.019   1.526  -0.024  0.00  0.00    +0.006 C 
ATOM     32  C   UNL     1       0.002  -0.004   0.002  0.00  0.00    +0.031 C 
ENDBRANCH   1  32
BRANCH   1  33
ATOM     33  C   UNL     1      -2.175  -0.082  -1.219  0.00  0.00    +0.328 C 
ATOM     34  O   UNL     1      -2.245  -0.807  -2.182  0.00  0.00    -0.249 OA
BRANCH  33  35
ATOM     35  O   UNL     1      -2.758   1.127  -1.245  0.00  0.00    -0.464 OA
BRANCH  35  36
ATOM     36  C   UNL     1      -3.444   1.490  -2.445  0.00  0.00    +0.229 C 
ATOM     37  C   UNL     1      -4.039   2.891  -2.288  0.00  0.00    +0.048 C 
ENDBRANCH  35  36
ENDBRANCH  33  35
ENDBRANCH   1  33
TORSDOF 9
