REMARK  Name = ZINC15006544
REMARK  11 active torsions:
REMARK  status: ('A' for Active; 'I' for Inactive)
REMARK    1  A    between atoms: C_1  and  C_2
REMARK    2  A    between atoms: C_2  and  C_3
REMARK    3  A    between atoms: C_2  and  C_4
REMARK    4  A    between atoms: C_2  and  C_5
REMARK    5  A    between atoms: C_5  and  N_71
REMARK    6  A    between atoms: C_8  and  C_11
REMARK    7  A    between atoms: C_8  and  O_35
REMARK    8  A    between atoms: C_18  and  C_20
REMARK    9  A    between atoms: N_22  and  C_23
REMARK   10  A    between atoms: N_22  and  C_24
REMARK   11  A    between atoms: C_24  and  C_25
REMARK                            x       y       z     vdW  Elec       q    Type
REMARK                         _______ _______ _______ _____ _____    ______ ____
ROOT
ATOM      1  C   UNL     1      -1.759  -4.893   8.549  0.00  0.00    -0.015 A 
ATOM      2  C   UNL     1      -0.508  -5.082   7.978  0.00  0.00    +0.010 A 
ATOM      3  C   UNL     1      -0.186  -4.492   6.775  0.00  0.00    +0.047 A 
ATOM      4  C   UNL     1      -1.121  -3.698   6.122  0.00  0.00    +0.136 A 
ATOM      5  C   UNL     1      -2.388  -3.510   6.704  0.00  0.00    +0.021 A 
ATOM      6  C   UNL     1      -2.695  -4.118   7.924  0.00  0.00    +0.018 A 
ATOM      7  C   UNL     1      -3.123  -2.642   5.784  0.00  0.00    +0.063 A 
ATOM      8  C   UNL     1      -2.275  -2.381   4.756  0.00  0.00    +0.191 A 
ATOM      9  O   UNL     1      -1.101  -3.013   4.962  0.00  0.00    -0.450 OA
ENDROOT
BRANCH   1  12
ATOM     10  C   UNL     1      -1.594  -7.487  11.359  0.00  0.00    -0.076 C 
ATOM     11  C   UNL     1      -1.303  -6.857   9.996  0.00  0.00    +0.021 C 
ATOM     12  C   UNL     1      -2.088  -5.549   9.865  0.00  0.00    +0.088 C 
ATOM     13  C   UNL     1      -1.703  -4.613  11.013  0.00  0.00    +0.021 C 
ATOM     14  C   UNL     1      -1.982  -5.309  12.348  0.00  0.00    -0.076 C 
ATOM     15  N   UNL     1      -1.177  -6.547  12.421  0.00  0.00    +0.380 N 
ATOM     16  H   UNL     1      -0.188  -6.310  12.286  0.00  0.00    -0.082 HD
BRANCH  12  17
ATOM     17  O   UNL     1      -3.489  -5.826   9.924  0.00  0.00    -0.384 OA
ATOM     18  H   UNL     1      -4.049  -5.041   9.849  0.00  0.00    +0.211 HD
ENDBRANCH  12  17
BRANCH  15  19
ATOM     19  C   UNL     1      -1.343  -7.178  13.747  0.00  0.00    -0.073 C 
BRANCH  19  21
ATOM     20  C   UNL     1       1.129  -6.985  14.057  0.00  0.00    +0.009 C 
ATOM     21  C   UNL     1      -0.062  -7.945  14.084  0.00  0.00    -0.052 C 
ATOM     22  C   UNL     1      -0.188  -8.562  15.478  0.00  0.00    +0.009 C 
ATOM     23  C   UNL     1       0.154  -9.054  13.053  0.00  0.00    +0.009 C 
ENDBRANCH  19  21
ENDBRANCH  15  19
ENDBRANCH   1  12
BRANCH   8  24
ATOM     24  C   UNL     1      -2.592  -1.543   3.591  0.00  0.00    +0.282 C 
ATOM     25  O   UNL     1      -3.642  -0.929   3.550  0.00  0.00    -0.267 OA
ATOM     26  N   UNL     1      -1.720  -1.455   2.567  0.00  0.00    -0.294 N 
ATOM     27  C   UNL     1      -0.420  -2.124   2.652  0.00  0.00    +0.133 C 
BRANCH  26  28
ATOM     28  C   UNL     1      -2.073  -0.690   1.368  0.00  0.00    +0.145 C 
BRANCH  28  29
ATOM     29  C   UNL     1      -1.631   0.741   1.537  0.00  0.00    -0.004 A 
ATOM     30  C   UNL     1      -2.531   1.696   1.897  0.00  0.00    +0.007 A 
ATOM     31  C   UNL     1      -2.144   3.024   2.059  0.00  0.00    +0.001 A 
ATOM     32  C   UNL     1      -0.850   3.403   1.866  0.00  0.00    +0.010 A 
ATOM     33  C   UNL     1       0.104   2.446   1.488  0.00  0.00    +0.001 A 
ATOM     34  C   UNL     1      -0.287   1.094   1.323  0.00  0.00    +0.076 A 
ATOM     35  N   UNL     1       0.620   0.177   0.969  0.00  0.00    -0.255 NA
ATOM     36  C   UNL     1       1.874   0.501   0.769  0.00  0.00    +0.111 A 
ATOM     37  C   UNL     1       2.325   1.811   0.914  0.00  0.00    +0.020 A 
ATOM     38  C   UNL     1       1.451   2.797   1.273  0.00  0.00    +0.011 A 
ENDBRANCH  28  29
ENDBRANCH  26  28
ENDBRANCH   8  24
TORSDOF 7
