REMARK  Name = ZINC40919698
REMARK  10 active torsions:
REMARK  status: ('A' for Active; 'I' for Inactive)
REMARK    1  A    between atoms: C_1  and  C_2
REMARK    2  A    between atoms: C_2  and  O_3
REMARK    3  A    between atoms: O_3  and  C_4
REMARK    4  A    between atoms: C_6  and  C_19
REMARK    5  A    between atoms: C_9  and  O_10
REMARK    6  A    between atoms: O_10  and  C_11
REMARK    7  A    between atoms: C_11  and  C_12
REMARK    8  A    between atoms: C_21  and  C_30
REMARK    9  A    between atoms: C_22  and  C_29
REMARK   10  A    between atoms: C_30  and  C_32
REMARK                            x       y       z     vdW  Elec       q    Type
REMARK                         _______ _______ _______ _____ _____    ______ ____
ROOT
ATOM      1  C   UNL     1       1.195  -1.855  -1.177  0.00  0.00    +0.162 A 
ATOM      2  C   UNL     1       0.472  -2.685  -0.336  0.00  0.00    +0.055 A 
ATOM      3  C   UNL     1       0.561  -4.058  -0.476  0.00  0.00    -0.015 A 
ATOM      4  C   UNL     1       1.370  -4.605  -1.455  0.00  0.00    +0.010 A 
ATOM      5  C   UNL     1       2.094  -3.782  -2.297  0.00  0.00    +0.050 A 
ATOM      6  C   UNL     1       2.005  -2.405  -2.166  0.00  0.00    +0.162 A 
ENDROOT
BRANCH   3   7
ATOM      7  C   UNL     1      -0.226  -4.960   0.440  0.00  0.00    +0.177 C 
ATOM      8  C   UNL     1       0.719  -5.850   1.202  0.00  0.00    +0.040 C 
ATOM      9  C   UNL     1       0.846  -7.168   0.956  0.00  0.00    +0.016 C 
ATOM     10  N   UNL     1       0.110  -7.806  -0.007  0.00  0.00    -0.286 N 
ATOM     11  C   UNL     1      -0.961  -7.115  -0.555  0.00  0.00    +0.240 A 
ATOM     12  N   UNL     1      -1.135  -5.782  -0.350  0.00  0.00    -0.201 N 
ATOM     13  N   UNL     1      -2.301  -5.447  -1.035  0.00  0.00    -0.042 NA
ATOM     14  N   UNL     1      -2.731  -6.537  -1.584  0.00  0.00    -0.021 NA
ATOM     15  N   UNL     1      -1.944  -7.521  -1.306  0.00  0.00    -0.092 NA
ATOM     16  C   UNL     1       1.831  -7.969   1.768  0.00  0.00    +0.061 C 
ATOM     17  H   UNL     1       0.330  -8.706  -0.296  0.00  0.00    +0.155 HD
BRANCH   8  18
ATOM     18  C   UNL     1       1.505  -5.280   2.216  0.00  0.00    +0.160 C 
ATOM     19  O   UNL     1       2.712  -5.223   2.089  0.00  0.00    -0.293 OA
ATOM     20  C   UNL     1       0.851  -4.739   3.461  0.00  0.00    +0.091 C 
ENDBRANCH   8  18
ENDBRANCH   3   7
BRANCH   1  21
ATOM     21  O   UNL     1       1.109  -0.505  -1.040  0.00  0.00    -0.489 OA
BRANCH  21  23
ATOM     22  C   UNL     1       0.290   1.519  -0.004  0.00  0.00    +0.048 C 
ATOM     23  C   UNL     1       0.258  -0.010  -0.004  0.00  0.00    +0.226 C 
ENDBRANCH  21  23
ENDBRANCH   1  21
BRANCH   6  24
ATOM     24  O   UNL     1       2.712  -1.595  -2.997  0.00  0.00    -0.484 OA
BRANCH  24  25
ATOM     25  C   UNL     1       3.522  -2.229  -3.989  0.00  0.00    +0.266 C 
BRANCH  25  26
ATOM     26  C   UNL     1       4.226  -1.180  -4.810  0.00  0.00    +0.008 A 
ATOM     27  C   UNL     1       4.030   0.160  -4.533  0.00  0.00    +0.008 A 
ATOM     28  C   UNL     1       4.675   1.123  -5.287  0.00  0.00    +0.000 A 
ATOM     29  C   UNL     1       5.516   0.746  -6.318  0.00  0.00    +0.001 A 
ATOM     30  C   UNL     1       5.712  -0.594  -6.595  0.00  0.00    +0.020 A 
ATOM     31  C   UNL     1       5.071  -1.558  -5.838  0.00  0.00    +0.047 A 
ATOM     32 CL   UNL     1       5.322  -3.241  -6.182  0.00  0.00    -0.083 Cl
ENDBRANCH  25  26
ENDBRANCH  24  25
ENDBRANCH   6  24
TORSDOF 7
