REMARK  Name = ZINC33026150
REMARK  7 active torsions:
REMARK  status: ('A' for Active; 'I' for Inactive)
REMARK    1  A    between atoms: C_1  and  C_2
REMARK    2  A    between atoms: C_5  and  S_8
REMARK    3  A    between atoms: S_8  and  N_11
REMARK    4  A    between atoms: N_11  and  C_12
REMARK    5  A    between atoms: C_17  and  S_18
REMARK    6  A    between atoms: S_18  and  C_19
REMARK    7  A    between atoms: C_19  and  C_20
REMARK                            x       y       z     vdW  Elec       q    Type
REMARK                         _______ _______ _______ _____ _____    ______ ____
ROOT
ATOM      1  C   UNL     1      -7.210   5.857   2.702  0.00  0.00    +0.061 A 
ATOM      2  C   UNL     1      -8.451   6.440   2.501  0.00  0.00    +0.025 A 
ATOM      3  C   UNL     1      -9.115   6.257   1.302  0.00  0.00    +0.002 A 
ATOM      4  C   UNL     1      -8.543   5.497   0.298  0.00  0.00    +0.001 A 
ATOM      5  C   UNL     1      -7.303   4.915   0.488  0.00  0.00    +0.016 A 
ATOM      6  C   UNL     1      -6.630   5.094   1.688  0.00  0.00    +0.031 A 
ENDROOT
BRANCH   1   7
ATOM      7  N   UNL     1      -6.538   6.037   3.917  0.00  0.00    -0.215 N 
ATOM      8  H   UNL     1      -5.442   6.126   3.932  0.00  0.00    +0.174 HD
BRANCH   7   9
ATOM      9  S   UNL     1      -7.394   6.117   5.332  0.00  0.00    +0.072 S 
ATOM     10  O   UNL     1      -6.438   6.167   6.383  0.00  0.00    -0.150 OA
ATOM     11  O   UNL     1      -8.383   7.122   5.153  0.00  0.00    -0.150 OA
BRANCH   9  16
ATOM     12  C   UNL     1     -10.341   0.886   5.932  0.00  0.00    +0.044 C 
ATOM     13  C   UNL     1      -9.605   2.192   5.782  0.00  0.00    -0.050 A 
ATOM     14  C   UNL     1      -8.333   2.333   6.304  0.00  0.00    +0.005 A 
ATOM     15  C   UNL     1      -7.658   3.531   6.167  0.00  0.00    +0.029 A 
ATOM     16  C   UNL     1      -8.255   4.589   5.507  0.00  0.00    +0.109 A 
ATOM     17  C   UNL     1      -9.529   4.450   4.990  0.00  0.00    +0.029 A 
ATOM     18  C   UNL     1     -10.203   3.251   5.123  0.00  0.00    +0.005 A 
ENDBRANCH   9  16
ENDBRANCH   7   9
ENDBRANCH   1   7
BRANCH   6  19
ATOM     19  S   UNL     1      -5.050   4.353   1.934  0.00  0.00    -0.117 S 
BRANCH  19  20
ATOM     20  C   UNL     1      -4.729   3.478   0.378  0.00  0.00    +0.130 C 
BRANCH  20  21
ATOM     21  C   UNL     1      -3.390   2.791   0.454  0.00  0.00    +0.059 A 
ATOM     22  C   UNL     1      -3.325   1.422   0.629  0.00  0.00    +0.094 A 
ATOM     23  C   UNL     1      -2.070   0.807   0.697  0.00  0.00    +0.259 A 
ATOM     24  O   UNL     1      -1.979  -0.401   0.850  0.00  0.00    -0.267 OA
ATOM     25  N   UNL     1      -0.961   1.569   0.585  0.00  0.00    -0.267 N 
ATOM     26  C   UNL     1       0.268   0.985   0.655  0.00  0.00    +0.116 A 
ATOM     27  C   UNL     1       1.393   1.729   0.550  0.00  0.00    +0.058 A 
ATOM     28  C   UNL     1       1.305   3.118   0.373  0.00  0.00    +0.025 A 
ATOM     29  C   UNL     1       0.080   3.711   0.308  0.00  0.00    +0.048 A 
ATOM     30  C   UNL     1      -1.078   2.921   0.418  0.00  0.00    +0.141 A 
ATOM     31  N   UNL     1      -2.276   3.499   0.354  0.00  0.00    -0.233 NA
ATOM     32 CL   UNL     1       2.949   0.963   0.635  0.00  0.00    -0.082 Cl
ENDBRANCH  20  21
ENDBRANCH  19  20
ENDBRANCH   6  19
TORSDOF 6
