REMARK  Name = ZINC11784260
REMARK  9 active torsions:
REMARK  status: ('A' for Active; 'I' for Inactive)
REMARK    1  A    between atoms: C_1  and  C_2
REMARK    2  A    between atoms: C_6  and  C_7
REMARK    3  A    between atoms: C_7  and  N_61
REMARK    4  A    between atoms: C_9  and  N_18
REMARK    5  A    between atoms: C_12  and  C_14
REMARK    6  A    between atoms: C_14  and  O_16
REMARK    7  A    between atoms: O_16  and  C_17
REMARK    8  A    between atoms: C_19  and  C_21
REMARK    9  A    between atoms: C_22  and  C_32
REMARK                            x       y       z     vdW  Elec       q    Type
REMARK                         _______ _______ _______ _____ _____    ______ ____
ROOT
ATOM      1  N   UNL     1       0.545   2.242  -1.521  0.00  0.00    -0.309 N 
ATOM      2  C   UNL     1       0.464   2.267  -2.866  0.00  0.00    +0.261 C 
ATOM      3  O   UNL     1      -0.382   1.603  -3.436  0.00  0.00    -0.269 OA
ATOM      4  H   UNL     1       1.219   2.771  -1.066  0.00  0.00    +0.149 HD
ENDROOT
BRANCH   2   5
ATOM      5  C   UNL     1       1.394   3.094  -3.642  0.00  0.00    +0.111 A 
ATOM      6  C   UNL     1       1.412   3.204  -5.021  0.00  0.00    +0.020 A 
ATOM      7  C   UNL     1       2.500   4.132  -5.349  0.00  0.00    +0.010 A 
ATOM      8  C   UNL     1       3.006   4.637  -6.550  0.00  0.00    +0.030 A 
ATOM      9  C   UNL     1       4.057   5.510  -6.531  0.00  0.00    +0.042 A 
ATOM     10  C   UNL     1       4.627   5.901  -5.324  0.00  0.00    +0.022 A 
ATOM     11  C   UNL     1       4.143   5.417  -4.130  0.00  0.00    +0.027 A 
ATOM     12  C   UNL     1       3.072   4.525  -4.126  0.00  0.00    +0.048 A 
ATOM     13  N   UNL     1       2.387   3.892  -3.115  0.00  0.00    -0.350 N 
ATOM     14  H   UNL     1       2.577   3.991  -2.168  0.00  0.00    +0.166 HD
ATOM     15 CL   UNL     1       4.686   6.136  -8.023  0.00  0.00    -0.084 Cl
BRANCH   6  16
ATOM     16  C   UNL     1       0.512   2.520  -5.976  0.00  0.00    -0.015 A 
ATOM     17  C   UNL     1       1.026   1.588  -6.878  0.00  0.00    +0.008 A 
ATOM     18  C   UNL     1       0.180   0.950  -7.762  0.00  0.00    +0.001 A 
ATOM     19  C   UNL     1      -1.172   1.241  -7.763  0.00  0.00    +0.000 A 
ATOM     20  C   UNL     1      -1.687   2.169  -6.875  0.00  0.00    +0.001 A 
ATOM     21  C   UNL     1      -0.853   2.809  -5.982  0.00  0.00    +0.008 A 
ENDBRANCH   6  16
ENDBRANCH   2   5
BRANCH   1  23
ATOM     22  C   UNL     1      -1.655   2.220  -0.399  0.00  0.00    -0.055 C 
ATOM     23  C   UNL     1      -0.384   1.416  -0.746  0.00  0.00    +0.056 C 
ATOM     24  C   UNL     1       0.239   1.044   0.616  0.00  0.00    +0.016 C 
ATOM     25  C   UNL     1      -0.707   1.655   1.672  0.00  0.00    +0.045 C 
ATOM     26  N   UNL     1      -1.378   2.733   0.948  0.00  0.00    +0.393 N 
ATOM     27  H   UNL     1      -0.762   3.553   0.891  0.00  0.00    -0.080 HD
BRANCH  25  28
ATOM     28  C   UNL     1       0.083   2.188   2.839  0.00  0.00    +0.293 C 
ATOM     29  O   UNL     1       0.038   3.364   3.112  0.00  0.00    -0.253 OA
BRANCH  28  30
ATOM     30  O   UNL     1       0.837   1.357   3.576  0.00  0.00    -0.469 OA
ATOM     31  C   UNL     1       1.571   1.940   4.685  0.00  0.00    +0.280 C 
ENDBRANCH  28  30
ENDBRANCH  25  28
BRANCH  26  32
ATOM     32  C   UNL     1      -2.652   3.121   1.631  0.00  0.00    -0.034 C 
BRANCH  32  38
ATOM     33  C   UNL     1      -4.881   2.058  -0.196  0.00  0.00    +0.044 C 
ATOM     34  C   UNL     1      -4.468   1.367   1.078  0.00  0.00    -0.042 A 
ATOM     35  C   UNL     1      -5.092   0.199   1.476  0.00  0.00    +0.011 A 
ATOM     36  C   UNL     1      -4.701  -0.393   2.632  0.00  0.00    +0.045 A 
ATOM     37  S   UNL     1      -3.410   0.705   3.192  0.00  0.00    -0.103 S 
ATOM     38  C   UNL     1      -3.478   1.879   1.849  0.00  0.00    -0.024 A 
ENDBRANCH  32  38
ENDBRANCH  26  32
ENDBRANCH   1  23
TORSDOF 7
