REMARK  Name = ZINC39711346
REMARK  13 active torsions:
REMARK  status: ('A' for Active; 'I' for Inactive)
REMARK    1  A    between atoms: C_1  and  C_2
REMARK    2  A    between atoms: C_2  and  O_3
REMARK    3  A    between atoms: O_3  and  C_4
REMARK    4  A    between atoms: C_4  and  C_6
REMARK    5  A    between atoms: N_9  and  C_12
REMARK    6  A    between atoms: C_12  and  C_14
REMARK    7  A    between atoms: C_12  and  C_28
REMARK    8  A    between atoms: C_19  and  O_26
REMARK    9  A    between atoms: O_26  and  C_27
REMARK   10  A    between atoms: N_33  and  C_34
REMARK   11  A    between atoms: C_34  and  C_35
REMARK   12  A    between atoms: C_34  and  C_36
REMARK   13  A    between atoms: C_34  and  C_37
REMARK                            x       y       z     vdW  Elec       q    Type
REMARK                         _______ _______ _______ _____ _____    ______ ____
ROOT
ATOM      1  C   UNL     1       1.838  -4.699   6.029  0.00  0.00    -0.010 C 
ENDROOT
BRANCH   1   2
ATOM      2  C   UNL     1       1.750  -6.226   6.049  0.00  0.00    +0.088 C 
ATOM      3  C   UNL     1       0.314  -6.614   5.756  0.00  0.00    -0.006 C 
ATOM      4  C   UNL     1      -0.332  -7.369   6.689  0.00  0.00    -0.004 A 
ATOM      5  C   UNL     1      -1.720  -7.786   6.486  0.00  0.00    +0.055 A 
ATOM      6  C   UNL     1      -2.326  -8.539   7.445  0.00  0.00    +0.121 A 
ATOM      7  C   UNL     1      -1.647  -8.916   8.610  0.00  0.00    +0.047 A 
ATOM      8  C   UNL     1      -0.360  -8.559   8.854  0.00  0.00    +0.027 A 
ATOM      9  C   UNL     1       0.356  -7.780   7.926  0.00  0.00    +0.041 A 
ATOM     10  N   UNL     1       1.619  -7.437   8.178  0.00  0.00    -0.285 N 
ATOM     11  C   UNL     1       2.348  -6.708   7.352  0.00  0.00    +0.223 C 
ATOM     12  O   UNL     1       3.496  -6.426   7.638  0.00  0.00    -0.275 OA
ATOM     13  H   UNL     1       2.022  -7.737   9.009  0.00  0.00    +0.155 HD
BRANCH   6  14
ATOM     14  O   UNL     1      -3.615  -8.933   7.268  0.00  0.00    -0.495 OA
ATOM     15  C   UNL     1      -4.201  -9.721   8.306  0.00  0.00    +0.277 C 
ENDBRANCH   6  14
ENDBRANCH   1   2
BRANCH   1  19
ATOM     16  C   UNL     1       1.508  -2.913   2.174  0.00  0.00    +0.094 C 
ATOM     17  C   UNL     1       0.899  -2.204   3.387  0.00  0.00    -0.004 C 
ATOM     18  C   UNL     1       1.539  -2.750   4.665  0.00  0.00    -0.077 C 
ATOM     19  N   UNL     1       1.289  -4.193   4.763  0.00  0.00    +0.385 N 
ATOM     20  C   UNL     1       1.932  -4.888   3.641  0.00  0.00    -0.077 C 
ATOM     21  C   UNL     1       1.307  -4.424   2.324  0.00  0.00    -0.004 C 
ATOM     22  H   UNL     1       0.295  -4.364   4.738  0.00  0.00    -0.081 HD
BRANCH  16  23
ATOM     23  C   UNL     1       0.828  -2.437   0.917  0.00  0.00    +0.310 C 
ATOM     24  O   UNL     1       0.241  -3.223   0.212  0.00  0.00    -0.251 OA
BRANCH  23  25
ATOM     25  O   UNL     1       0.873  -1.138   0.580  0.00  0.00    -0.465 OA
BRANCH  25  27
ATOM     26  C   UNL     1       0.366   0.750  -0.841  0.00  0.00    +0.048 C 
ATOM     27  C   UNL     1       0.206  -0.756  -0.625  0.00  0.00    +0.229 C 
ENDBRANCH  25  27
ENDBRANCH  23  25
ENDBRANCH  16  23
ENDBRANCH   1  19
BRANCH   1  28
ATOM     28  C   UNL     1       1.033  -4.126   7.198  0.00  0.00    +0.205 C 
ATOM     29  N   UNL     1      -0.407  -4.268   6.947  0.00  0.00    -0.152 NA
ATOM     30  N   UNL     1      -0.919  -3.146   6.917  0.00  0.00    -0.070 NA
ATOM     31  N   UNL     1       0.005  -2.123   7.125  0.00  0.00    -0.179 N 
ATOM     32  N   UNL     1       1.252  -2.669   7.310  0.00  0.00    -0.183 NA
ATOM     33  H   UNL     1      -0.200  -1.175   7.137  0.00  0.00    +0.191 HD
BRANCH  32  34
ATOM     34  C   UNL     1       1.792  -2.317   8.630  0.00  0.00    +0.035 C 
ATOM     35  C   UNL     1       3.138  -3.017   8.832  0.00  0.00    +0.029 C 
ATOM     36  C   UNL     1       1.987  -0.802   8.714  0.00  0.00    +0.029 C 
ATOM     37  C   UNL     1       0.815  -2.767   9.717  0.00  0.00    +0.029 C 
ENDBRANCH  32  34
ENDBRANCH   1  28
TORSDOF 8
