REMARK  Name = ZINC39677328
REMARK  10 active torsions:
REMARK  status: ('A' for Active; 'I' for Inactive)
REMARK    1  A    between atoms: C_1  and  C_2
REMARK    2  A    between atoms: C_6  and  C_7
REMARK    3  A    between atoms: C_7  and  N_8
REMARK    4  A    between atoms: C_9  and  C_11
REMARK    5  A    between atoms: C_22  and  C_24
REMARK    6  A    between atoms: C_24  and  C_26
REMARK    7  A    between atoms: C_24  and  O_29
REMARK    8  A    between atoms: C_26  and  C_27
REMARK    9  A    between atoms: C_26  and  C_28
REMARK   10  A    between atoms: O_29  and  C_30
REMARK                            x       y       z     vdW  Elec       q    Type
REMARK                         _______ _______ _______ _____ _____    ______ ____
ROOT
ATOM      1  C   UNL     1      -3.224   0.214   4.895  0.00  0.00    +0.100 C 
ATOM      2  C   UNL     1      -3.827   1.377   4.076  0.00  0.00    +0.121 C 
ATOM      3  N   UNL     1      -4.622   2.153   5.057  0.00  0.00    -0.297 N 
ATOM      4  C   UNL     1      -3.797   2.144   6.290  0.00  0.00    +0.115 C 
ATOM      5  C   UNL     1      -3.205   0.721   6.347  0.00  0.00    -0.004 C 
ATOM      6  C   UNL     1      -1.773   0.767   6.872  0.00  0.00    -0.010 C 
ATOM      7  C   UNL     1      -1.785   1.218   8.335  0.00  0.00    -0.082 C 
ATOM      8  N   UNL     1      -2.590   0.284   9.131  0.00  0.00    +0.379 N 
ATOM      9  C   UNL     1      -3.986   0.316   8.680  0.00  0.00    -0.082 C 
ATOM     10  C   UNL     1      -4.068  -0.174   7.231  0.00  0.00    -0.010 C 
ATOM     11  C   UNL     1      -5.822   2.736   4.872  0.00  0.00    +0.257 C 
ATOM     12  O   UNL     1      -6.311   3.413   5.752  0.00  0.00    -0.272 OA
ATOM     13  H   UNL     1      -2.224  -0.650   9.023  0.00  0.00    -0.086 HD
ATOM     14  H   UNL     1      -2.546   0.549  10.104  0.00  0.00    -0.086 HD
ENDROOT
BRANCH   1  16
ATOM     15  N   UNL     1      -1.274  -1.292   4.678  0.00  0.00    -0.310 N 
ATOM     16  C   UNL     1      -1.824  -0.087   4.426  0.00  0.00    +0.218 C 
ATOM     17  O   UNL     1      -1.192   0.754   3.823  0.00  0.00    -0.275 OA
ATOM     18  H   UNL     1      -1.779  -1.964   5.160  0.00  0.00    +0.149 HD
BRANCH  15  19
ATOM     19  C   UNL     1       0.087  -1.585   4.222  0.00  0.00    +0.147 C 
BRANCH  19  25
ATOM     20  C   UNL     1      -0.355  -4.146   2.584  0.00  0.00    +0.044 C 
ATOM     21  C   UNL     1       0.291  -4.146   3.946  0.00  0.00    -0.039 A 
ATOM     22  C   UNL     1       0.723  -5.329   4.517  0.00  0.00    +0.011 A 
ATOM     23  C   UNL     1       1.299  -5.295   5.743  0.00  0.00    +0.046 A 
ATOM     24  S   UNL     1       1.245  -3.552   6.128  0.00  0.00    -0.100 S 
ATOM     25  C   UNL     1       0.462  -2.987   4.627  0.00  0.00    +0.010 A 
ENDBRANCH  19  25
ENDBRANCH  15  19
ENDBRANCH   1  16
BRANCH  11  26
ATOM     26  C   UNL     1      -6.559   2.547   3.571  0.00  0.00    +0.261 C 
BRANCH  26  27
ATOM     27  C   UNL     1      -6.118   3.621   2.574  0.00  0.00    +0.033 C 
ATOM     28  C   UNL     1      -4.596   3.580   2.420  0.00  0.00    +0.011 C 
ATOM     29  C   UNL     1      -6.775   3.359   1.218  0.00  0.00    +0.011 C 
ENDBRANCH  26  27
BRANCH  26  30
ATOM     30  O   UNL     1      -7.965   2.658   3.799  0.00  0.00    -0.479 OA
BRANCH  30  31
ATOM     31  C   UNL     1      -8.777   1.882   3.033  0.00  0.00    +0.122 A 
ATOM     32  C   UNL     1      -8.230   0.964   2.149  0.00  0.00    +0.045 A 
ATOM     33  C   UNL     1      -9.057   0.176   1.372  0.00  0.00    +0.004 A 
ATOM     34  C   UNL     1     -10.430   0.302   1.476  0.00  0.00    +0.000 A 
ATOM     35  C   UNL     1     -10.978   1.216   2.357  0.00  0.00    +0.004 A 
ATOM     36  C   UNL     1     -10.155   2.002   3.140  0.00  0.00    +0.045 A 
ENDBRANCH  30  31
ENDBRANCH  26  30
ENDBRANCH  11  26
TORSDOF 7
