REMARK  Name = ZINC09478698
REMARK  8 active torsions:
REMARK  status: ('A' for Active; 'I' for Inactive)
REMARK    1  A    between atoms: C_1  and  O_2
REMARK    2  A    between atoms: O_2  and  C_3
REMARK    3  A    between atoms: C_6  and  C_9
REMARK    4  A    between atoms: C_12  and  S_15
REMARK    5  A    between atoms: N_13  and  N_14
REMARK    6  A    between atoms: S_15  and  C_16
REMARK    7  A    between atoms: C_16  and  C_17
REMARK    8  A    between atoms: C_28  and  C_30
REMARK                            x       y       z     vdW  Elec       q    Type
REMARK                         _______ _______ _______ _____ _____    ______ ____
ROOT
ATOM      1  C   UNL     1      -1.075  -0.172  -1.490  0.00  0.00    +0.173 C 
ENDROOT
BRANCH   1   2
ATOM      2  C   UNL     1      -2.455   0.215  -1.026  0.00  0.00    +0.231 C 
ATOM      3  O   UNL     1      -3.417  -0.434  -1.378  0.00  0.00    -0.274 OA
ATOM      4  N   UNL     1      -2.621   1.282  -0.220  0.00  0.00    -0.261 N 
ATOM      5  C   UNL     1      -1.656   2.292  -0.241  0.00  0.00    +0.050 A 
ATOM      6  C   UNL     1      -0.797   2.356  -1.336  0.00  0.00    +0.024 A 
ATOM      7  C   UNL     1       0.191   3.318  -1.395  0.00  0.00    +0.002 A 
ATOM      8  C   UNL     1       0.339   4.228  -0.364  0.00  0.00    +0.001 A 
ATOM      9  C   UNL     1      -0.506   4.175   0.727  0.00  0.00    +0.016 A 
ATOM     10  C   UNL     1      -1.504   3.210   0.794  0.00  0.00    +0.029 A 
ATOM     11  S   UNL     1      -2.573   3.177   2.197  0.00  0.00    -0.121 S 
ATOM     12  C   UNL     1      -3.355   1.540   2.088  0.00  0.00    +0.102 C 
ATOM     13  C   UNL     1      -3.804   1.334   0.633  0.00  0.00    +0.122 C 
BRANCH  13  14
ATOM     14  C   UNL     1      -4.567   0.039   0.518  0.00  0.00    -0.026 A 
ATOM     15  C   UNL     1      -4.082  -1.105   1.123  0.00  0.00    +0.005 A 
ATOM     16  C   UNL     1      -4.784  -2.291   1.022  0.00  0.00    +0.000 A 
ATOM     17  C   UNL     1      -5.966  -2.336   0.307  0.00  0.00    +0.000 A 
ATOM     18  C   UNL     1      -6.449  -1.193  -0.302  0.00  0.00    +0.000 A 
ATOM     19  C   UNL     1      -5.749  -0.005  -0.197  0.00  0.00    +0.005 A 
ENDBRANCH  13  14
ENDBRANCH   1   2
BRANCH   1  20
ATOM     20  S   UNL     1      -1.052  -1.930  -1.918  0.00  0.00    -0.075 S 
BRANCH  20  24
ATOM     21  C   UNL     1       2.537  -2.904  -3.117  0.00  0.00    +0.182 A 
ATOM     22  N   UNL     1       2.660  -1.626  -2.844  0.00  0.00    -0.127 NA
ATOM     23  N   UNL     1       1.537  -1.154  -2.435  0.00  0.00    -0.121 NA
ATOM     24  C   UNL     1       0.630  -2.104  -2.412  0.00  0.00    +0.209 A 
ATOM     25  N   UNL     1       1.232  -3.250  -2.849  0.00  0.00    -0.224 N 
BRANCH  21  29
ATOM     26  C   UNL     1       5.588  -5.486  -4.558  0.00  0.00    +0.120 A 
ATOM     27  C   UNL     1       4.253  -5.837  -4.713  0.00  0.00    +0.046 A 
ATOM     28  C   UNL     1       3.260  -5.002  -4.247  0.00  0.00    +0.015 A 
ATOM     29  C   UNL     1       3.598  -3.803  -3.618  0.00  0.00    +0.021 A 
ATOM     30  C   UNL     1       4.941  -3.451  -3.469  0.00  0.00    +0.015 A 
ATOM     31  C   UNL     1       5.928  -4.294  -3.933  0.00  0.00    +0.046 A 
BRANCH  26  33
ATOM     32  C   UNL     1       7.915  -5.890  -4.825  0.00  0.00    +0.277 C 
ATOM     33  O   UNL     1       6.564  -6.312  -5.018  0.00  0.00    -0.495 OA
ENDBRANCH  26  33
ENDBRANCH  21  29
BRANCH  25  34
ATOM     34  N   UNL     1       0.659  -4.482  -2.989  0.00  0.00    -0.295 N 
ATOM     35  H   UNL     1       0.201  -4.568  -3.884  0.00  0.00    +0.163 HD
ATOM     36  H   UNL     1       1.341  -5.214  -2.860  0.00  0.00    +0.163 HD
ENDBRANCH  25  34
ENDBRANCH  20  24
ENDBRANCH   1  20
TORSDOF 7
