REMARK  Name = ZINC16040514
REMARK  7 active torsions:
REMARK  status: ('A' for Active; 'I' for Inactive)
REMARK    1  A    between atoms: C_1  and  C_2
REMARK    2  A    between atoms: C_2  and  C_3
REMARK    3  A    between atoms: C_3  and  C_4
REMARK    4  A    between atoms: C_4  and  O_5
REMARK    5  A    between atoms: O_5  and  C_6
REMARK    6  A    between atoms: C_11  and  N_12
REMARK    7  A    between atoms: C_13  and  C_15
REMARK                            x       y       z     vdW  Elec       q    Type
REMARK                         _______ _______ _______ _____ _____    ______ ____
ROOT
ATOM      1  C   UNL     1       1.185  -2.167  -0.236  0.00  0.00    +0.238 C 
ATOM      2  C   UNL     1       0.319  -2.575  -1.413  0.00  0.00    +0.191 C 
ATOM      3  C   UNL     1       0.794  -3.910  -2.045  0.00  0.00    +0.187 C 
ATOM      4  C   UNL     1       1.479  -4.674  -0.945  0.00  0.00    +0.209 C 
ATOM      5  C   UNL     1       2.800  -3.928  -0.612  0.00  0.00    +0.286 C 
ATOM      6  O   UNL     1       2.529  -2.618  -0.228  0.00  0.00    -0.333 OA
ATOM      7  O   UNL     1       3.325  -4.864   0.343  0.00  0.00    -0.317 OA
ATOM      8  C   UNL     1       3.151  -6.113  -0.376  0.00  0.00    +0.174 C 
ATOM      9  O   UNL     1       1.960  -5.989  -1.193  0.00  0.00    -0.338 OA
ATOM     10  C   UNL     1       2.971  -7.265   0.607  0.00  0.00    +0.065 C 
ATOM     11  C   UNL     1       4.234  -7.447   1.448  0.00  0.00    +0.005 C 
ATOM     12  C   UNL     1       5.433  -7.707   0.531  0.00  0.00    +0.000 C 
ATOM     13  C   UNL     1       5.614  -6.512  -0.409  0.00  0.00    +0.005 C 
ATOM     14  C   UNL     1       4.361  -6.361  -1.271  0.00  0.00    +0.065 C 
ATOM     15  O   UNL     1       1.702  -3.514  -3.078  0.00  0.00    -0.340 OA
ATOM     16  C   UNL     1       1.391  -2.158  -3.426  0.00  0.00    +0.171 C 
ATOM     17  O   UNL     1       0.419  -1.649  -2.509  0.00  0.00    -0.340 OA
ATOM     18  C   UNL     1       2.662  -1.309  -3.387  0.00  0.00    +0.065 C 
ATOM     19  C   UNL     1       2.346   0.127  -3.810  0.00  0.00    +0.005 C 
ATOM     20  C   UNL     1       1.764   0.139  -5.226  0.00  0.00    +0.000 C 
ATOM     21  C   UNL     1       0.486  -0.702  -5.253  0.00  0.00    +0.005 C 
ATOM     22  C   UNL     1       0.824  -2.137  -4.851  0.00  0.00    +0.065 C 
ENDROOT
BRANCH   1  24
ATOM     23  N   UNL     1       0.002  -0.004   0.002  0.00  0.00    -0.280 N 
ATOM     24  C   UNL     1       1.173  -0.661  -0.114  0.00  0.00    +0.249 C 
ATOM     25  O   UNL     1       2.217  -0.044  -0.121  0.00  0.00    -0.273 OA
ATOM     26  H   UNL     1      -0.828  -0.501   0.073  0.00  0.00    +0.155 HD
BRANCH  23  32
ATOM     27  C   UNL     1      -1.072   2.090  -0.565  0.00  0.00    +0.142 A 
ATOM     28  C   UNL     1      -1.088   3.475  -0.538  0.00  0.00    +0.047 A 
ATOM     29  C   UNL     1      -0.051   4.167   0.060  0.00  0.00    +0.004 A 
ATOM     30  C   UNL     1       1.002   3.479   0.637  0.00  0.00    +0.002 A 
ATOM     31  C   UNL     1       1.021   2.098   0.619  0.00  0.00    +0.027 A 
ATOM     32  C   UNL     1      -0.016   1.397   0.021  0.00  0.00    +0.076 A 
BRANCH  27  33
ATOM     33  O   UNL     1      -2.089   1.409  -1.158  0.00  0.00    -0.490 OA
BRANCH  33  34
ATOM     34  C   UNL     1      -3.139   2.185  -1.738  0.00  0.00    +0.229 C 
BRANCH  34  35
ATOM     35  C   UNL     1      -4.184   1.252  -2.352  0.00  0.00    +0.041 C 
BRANCH  35  37
ATOM     36  C   UNL     1      -6.353   1.149  -3.588  0.00  0.00    +0.004 C 
ATOM     37  C   UNL     1      -5.308   2.083  -2.974  0.00  0.00    -0.000 C 
ENDBRANCH  35  37
ENDBRANCH  34  35
ENDBRANCH  33  34
ENDBRANCH  27  33
ENDBRANCH  23  32
ENDBRANCH   1  24
TORSDOF 6
