REMARK  Name = ZINC12342217
REMARK  14 active torsions:
REMARK  status: ('A' for Active; 'I' for Inactive)
REMARK    1  A    between atoms: C_1  and  C_2
REMARK    2  A    between atoms: C_2  and  C_3
REMARK    3  A    between atoms: C_3  and  C_4
REMARK    4  A    between atoms: C_4  and  N_5
REMARK    5  A    between atoms: N_5  and  C_6
REMARK    6  A    between atoms: N_5  and  S_7
REMARK    7  A    between atoms: S_7  and  C_10
REMARK    8  A    between atoms: C_13  and  C_16
REMARK    9  A    between atoms: N_18  and  C_19
REMARK   10  A    between atoms: C_19  and  C_20
REMARK   11  A    between atoms: C_20  and  C_21
REMARK   12  A    between atoms: C_21  and  N_65
REMARK   13  A    between atoms: C_22  and  N_65
REMARK   14  A    between atoms: C_23  and  N_65
REMARK                            x       y       z     vdW  Elec       q    Type
REMARK                         _______ _______ _______ _____ _____    ______ ____
ROOT
ATOM      1  C   UNL     1      -2.925   2.967   5.050  0.00  0.00    +0.252 C 
ATOM      2  O   UNL     1      -3.816   2.240   5.443  0.00  0.00    -0.270 OA
ATOM      3  N   UNL     1      -2.847   4.238   5.493  0.00  0.00    -0.246 N 
ATOM      4  C   UNL     1      -3.697   4.675   6.494  0.00  0.00    +0.168 A 
ATOM      5  N   UNL     1      -4.562   3.985   7.199  0.00  0.00    -0.224 NA
ATOM      6  C   UNL     1      -5.333   4.547   8.155  0.00  0.00    +0.080 A 
ATOM      7  C   UNL     1      -6.296   3.922   8.980  0.00  0.00    +0.029 A 
ATOM      8  C   UNL     1      -6.998   4.645   9.909  0.00  0.00    +0.002 A 
ATOM      9  C   UNL     1      -6.792   6.007  10.074  0.00  0.00    +0.001 A 
ATOM     10  C   UNL     1      -5.858   6.652   9.284  0.00  0.00    +0.017 A 
ATOM     11  C   UNL     1      -5.150   5.935   8.351  0.00  0.00    +0.041 A 
ATOM     12  S   UNL     1      -3.889   6.322   7.161  0.00  0.00    -0.052 S 
ENDROOT
BRANCH   1  16
ATOM     13  C   UNL     1      -0.055   1.502   2.283  0.00  0.00    +0.106 A 
ATOM     14  C   UNL     1      -0.383   2.847   2.288  0.00  0.00    +0.029 A 
ATOM     15  C   UNL     1      -1.318   3.328   3.181  0.00  0.00    +0.015 A 
ATOM     16  C   UNL     1      -1.927   2.457   4.087  0.00  0.00    +0.037 A 
ATOM     17  C   UNL     1      -1.587   1.103   4.079  0.00  0.00    +0.015 A 
ATOM     18  C   UNL     1      -0.654   0.634   3.178  0.00  0.00    +0.029 A 
BRANCH  13  19
ATOM     19  S   UNL     1       1.135   0.895   1.135  0.00  0.00    +0.061 S 
ATOM     20  O   UNL     1       1.673  -0.294   1.698  0.00  0.00    -0.153 OA
ATOM     21  O   UNL     1       1.950   2.001   0.770  0.00  0.00    -0.153 OA
BRANCH  19  22
ATOM     22  N   UNL     1       0.314   0.443  -0.230  0.00  0.00    -0.180 NA
ATOM     23  C   UNL     1       0.091   1.412  -1.306  0.00  0.00    +0.131 C 
BRANCH  22  24
ATOM     24  C   UNL     1      -0.191  -0.926  -0.362  0.00  0.00    +0.109 C 
BRANCH  24  25
ATOM     25  C   UNL     1      -1.651  -0.977   0.093  0.00  0.00    +0.017 C 
BRANCH  25  27
ATOM     26  C   UNL     1      -3.638  -2.458   0.410  0.00  0.00    +0.004 C 
ATOM     27  C   UNL     1      -2.178  -2.407  -0.044  0.00  0.00    -0.002 C 
ENDBRANCH  25  27
ENDBRANCH  24  25
ENDBRANCH  22  24
ENDBRANCH  19  22
ENDBRANCH  13  19
ENDBRANCH   1  16
BRANCH   3  28
ATOM     28  C   UNL     1      -1.863   5.156   4.914  0.00  0.00    +0.114 C 
BRANCH  28  29
ATOM     29  C   UNL     1      -2.545   6.042   3.869  0.00  0.00    +0.001 C 
BRANCH  29  30
ATOM     30  C   UNL     1      -1.518   7.001   3.265  0.00  0.00    -0.078 C 
BRANCH  30  33
ATOM     31  C   UNL     1      -1.282   8.938   1.831  0.00  0.00    -0.097 C 
ATOM     32  C   UNL     1      -2.627   7.057   1.113  0.00  0.00    -0.097 C 
ATOM     33  N   UNL     1      -2.196   7.864   2.274  0.00  0.00    +0.376 N 
ATOM     34  H   UNL     1      -3.022   8.287   2.712  0.00  0.00    -0.083 HD
ENDBRANCH  30  33
ENDBRANCH  29  30
ENDBRANCH  28  29
ENDBRANCH   3  28
TORSDOF 10
