REMARK  Name = ZINC39660413
REMARK  11 active torsions:
REMARK  status: ('A' for Active; 'I' for Inactive)
REMARK    1  A    between atoms: C_1  and  C_2
REMARK    2  A    between atoms: C_2  and  C_3
REMARK    3  A    between atoms: C_3  and  C_4
REMARK    4  A    between atoms: C_4  and  C_5
REMARK    5  A    between atoms: C_5  and  C_6
REMARK    6  A    between atoms: C_6  and  N_7
REMARK    7  A    between atoms: C_8  and  C_10
REMARK    8  A    between atoms: C_21  and  C_23
REMARK    9  A    between atoms: C_29  and  O_31
REMARK   10  A    between atoms: O_31  and  C_32
REMARK   11  A    between atoms: C_32  and  C_33
REMARK                            x       y       z     vdW  Elec       q    Type
REMARK                         _______ _______ _______ _____ _____    ______ ____
ROOT
ATOM      1  C   UNL     1       3.006  -6.331  -5.199  0.00  0.00    +0.100 C 
ATOM      2  C   UNL     1       2.171  -6.002  -6.457  0.00  0.00    +0.121 C 
ATOM      3  N   UNL     1       2.360  -7.171  -7.348  0.00  0.00    -0.300 N 
ATOM      4  C   UNL     1       2.341  -8.338  -6.434  0.00  0.00    +0.115 C 
ATOM      5  C   UNL     1       3.115  -7.865  -5.187  0.00  0.00    -0.004 C 
ATOM      6  C   UNL     1       2.474  -8.430  -3.923  0.00  0.00    -0.010 C 
ATOM      7  C   UNL     1       2.646  -9.952  -3.905  0.00  0.00    -0.082 C 
ATOM      8  N   UNL     1       4.075 -10.285  -3.945  0.00  0.00    +0.379 N 
ATOM      9  C   UNL     1       4.663  -9.819  -5.206  0.00  0.00    -0.082 C 
ATOM     10  C   UNL     1       4.576  -8.292  -5.279  0.00  0.00    -0.010 C 
ATOM     11  C   UNL     1       2.514  -7.173  -8.687  0.00  0.00    +0.219 C 
ATOM     12  O   UNL     1       2.659  -8.222  -9.279  0.00  0.00    -0.275 OA
ATOM     13  H   UNL     1       4.544  -9.839  -3.171  0.00  0.00    -0.086 HD
ATOM     14  H   UNL     1       4.188 -11.285  -3.871  0.00  0.00    -0.086 HD
ENDROOT
BRANCH  11  15
ATOM     15  C   UNL     1       2.507  -5.873  -9.448  0.00  0.00    +0.078 C 
ATOM     16  C   UNL     1       1.169  -5.162  -9.230  0.00  0.00    +0.032 C 
ATOM     17  C   UNL     1       1.179  -3.825  -9.977  0.00  0.00    +0.112 C 
ATOM     18  N   UNL     1       1.507  -4.073 -11.387  0.00  0.00    -0.267 N 
ATOM     19  C   UNL     1       2.726  -4.828 -11.706  0.00  0.00    +0.112 C 
ATOM     20  C   UNL     1       2.700  -6.154 -10.940  0.00  0.00    +0.032 C 
ATOM     21  C   UNL     1       0.705  -3.617 -12.370  0.00  0.00    +0.403 C 
ATOM     22  O   UNL     1      -0.301  -2.994 -12.093  0.00  0.00    -0.226 OA
BRANCH  21  23
ATOM     23  O   UNL     1       1.018  -3.852 -13.658  0.00  0.00    -0.445 OA
BRANCH  23  24
ATOM     24  C   UNL     1       0.122  -3.340 -14.647  0.00  0.00    +0.269 C 
BRANCH  24  25
ATOM     25  C   UNL     1       0.632  -3.697 -16.019  0.00  0.00    -0.010 A 
ATOM     26  C   UNL     1       1.493  -2.842 -16.681  0.00  0.00    +0.007 A 
ATOM     27  C   UNL     1       1.961  -3.170 -17.940  0.00  0.00    +0.000 A 
ATOM     28  C   UNL     1       1.567  -4.353 -18.537  0.00  0.00    +0.000 A 
ATOM     29  C   UNL     1       0.707  -5.209 -17.875  0.00  0.00    +0.000 A 
ATOM     30  C   UNL     1       0.243  -4.883 -16.614  0.00  0.00    +0.007 A 
ENDBRANCH  24  25
ENDBRANCH  23  24
ENDBRANCH  21  23
ENDBRANCH  11  15
BRANCH   1  32
ATOM     31  N   UNL     1       3.015  -5.493  -2.872  0.00  0.00    -0.315 N 
ATOM     32  C   UNL     1       2.301  -5.845  -3.959  0.00  0.00    +0.218 C 
ATOM     33  O   UNL     1       1.090  -5.771  -3.940  0.00  0.00    -0.275 OA
ATOM     34  H   UNL     1       3.983  -5.552  -2.888  0.00  0.00    +0.149 HD
BRANCH  31  35
ATOM     35  C   UNL     1       2.329  -5.020  -1.667  0.00  0.00    +0.104 C 
BRANCH  35  36
ATOM     36  C   UNL     1       3.363  -4.689  -0.589  0.00  0.00    +0.019 C 
BRANCH  36  37
ATOM     37  C   UNL     1       2.647  -4.195   0.670  0.00  0.00    +0.002 C 
BRANCH  37  38
ATOM     38  C   UNL     1       3.681  -3.864   1.748  0.00  0.00    -0.000 C 
BRANCH  38  40
ATOM     39  C   UNL     1       3.998  -3.039   4.085  0.00  0.00    +0.004 C 
ATOM     40  C   UNL     1       2.965  -3.371   3.007  0.00  0.00    -0.003 C 
ENDBRANCH  38  40
ENDBRANCH  37  38
ENDBRANCH  36  37
ENDBRANCH  35  36
ENDBRANCH  31  35
ENDBRANCH   1  32
TORSDOF 10
