REMARK  Name = ZINC40156590
REMARK  17 active torsions:
REMARK  status: ('A' for Active; 'I' for Inactive)
REMARK    1  A    between atoms: C_1  and  C_2
REMARK    2  A    between atoms: C_7  and  O_8
REMARK    3  A    between atoms: O_8  and  C_9
REMARK    4  A    between atoms: C_9  and  C_10
REMARK    5  A    between atoms: C_10  and  C_12
REMARK    6  A    between atoms: C_10  and  O_40
REMARK    7  A    between atoms: C_12  and  N_13
REMARK    8  A    between atoms: N_13  and  C_14
REMARK    9  A    between atoms: N_13  and  C_27
REMARK   10  A    between atoms: C_14  and  C_15
REMARK   11  A    between atoms: C_15  and  C_17
REMARK   12  A    between atoms: C_15  and  O_26
REMARK   13  A    between atoms: C_20  and  N_23
REMARK   14  A    between atoms: C_27  and  C_28
REMARK   15  A    between atoms: C_28  and  C_30
REMARK   16  A    between atoms: C_28  and  O_39
REMARK   17  A    between atoms: C_33  and  N_36
REMARK                            x       y       z     vdW  Elec       q    Type
REMARK                         _______ _______ _______ _____ _____    ______ ____
ROOT
ATOM      1  N   UNL     1      -0.257   0.120   7.152  0.00  0.00    +0.385 N 
ATOM      2  H   UNL     1       0.451   0.810   6.950  0.00  0.00    -0.081 HD
ENDROOT
BRANCH   1   3
ATOM      3  C   UNL     1      -1.506   0.796   7.527  0.00  0.00    -0.042 C 
BRANCH   3   4
ATOM      4  C   UNL     1      -2.622  -0.240   7.676  0.00  0.00    +0.128 C 
BRANCH   4   5
ATOM      5  C   UNL     1      -3.940   0.465   7.866  0.00  0.00    -0.021 A 
ATOM      6  C   UNL     1      -4.282   0.969   9.107  0.00  0.00    +0.008 A 
ATOM      7  C   UNL     1      -5.491   1.615   9.281  0.00  0.00    +0.033 A 
ATOM      8  C   UNL     1      -6.359   1.758   8.214  0.00  0.00    +0.126 A 
ATOM      9  C   UNL     1      -6.016   1.255   6.973  0.00  0.00    +0.033 A 
ATOM     10  C   UNL     1      -4.805   0.612   6.798  0.00  0.00    +0.008 A 
BRANCH   8  11
ATOM     11  N   UNL     1      -7.654   2.450   8.401  0.00  0.00    +0.056 N 
ATOM     12  O   UNL     1      -7.954   2.889   9.486  0.00  0.00    -0.126 OA
ATOM     13  O   UNL     1      -8.412   2.575   7.468  0.00  0.00    -0.126 OA
ENDBRANCH   8  11
ENDBRANCH   4   5
BRANCH   4  14
ATOM     14  O   UNL     1      -2.355  -1.066   8.812  0.00  0.00    -0.389 OA
ATOM     15  H   UNL     1      -2.302  -0.582   9.647  0.00  0.00    +0.210 HD
ENDBRANCH   4  14
ENDBRANCH   3   4
ENDBRANCH   1   3
BRANCH   1  16
ATOM     16  C   UNL     1       0.192  -0.730   8.263  0.00  0.00    -0.042 C 
BRANCH  16  17
ATOM     17  C   UNL     1       0.474   0.140   9.489  0.00  0.00    +0.128 C 
BRANCH  17  18
ATOM     18  C   UNL     1       0.941  -0.732  10.627  0.00  0.00    -0.021 A 
ATOM     19  C   UNL     1       2.276  -1.073  10.732  0.00  0.00    +0.008 A 
ATOM     20  C   UNL     1       2.705  -1.873  11.776  0.00  0.00    +0.033 A 
ATOM     21  C   UNL     1       1.798  -2.330  12.713  0.00  0.00    +0.126 A 
ATOM     22  C   UNL     1       0.463  -1.988  12.608  0.00  0.00    +0.033 A 
ATOM     23  C   UNL     1       0.035  -1.185  11.567  0.00  0.00    +0.008 A 
BRANCH  21  24
ATOM     24  N   UNL     1       2.256  -3.188  13.830  0.00  0.00    +0.056 N 
ATOM     25  O   UNL     1       3.424  -3.487  13.921  0.00  0.00    -0.126 OA
ATOM     26  O   UNL     1       1.463  -3.588  14.649  0.00  0.00    -0.126 OA
ENDBRANCH  21  24
ENDBRANCH  17  18
BRANCH  17  27
ATOM     27  O   UNL     1       1.490   1.094   9.173  0.00  0.00    -0.389 OA
ATOM     28  H   UNL     1       2.330   0.699   8.903  0.00  0.00    +0.210 HD
ENDBRANCH  17  27
ENDBRANCH  16  17
ENDBRANCH   1  16
BRANCH   1  29
ATOM     29  C   UNL     1      -0.487  -0.709   5.962  0.00  0.00    -0.043 C 
BRANCH  29  30
ATOM     30  C   UNL     1      -0.842   0.189   4.775  0.00  0.00    +0.135 C 
BRANCH  30  31
ATOM     31  O   UNL     1       0.279   1.014   4.450  0.00  0.00    -0.390 OA
ATOM     32  H   UNL     1       1.074   0.519   4.206  0.00  0.00    +0.210 HD
ENDBRANCH  30  31
BRANCH  30  33
ATOM     33  C   UNL     1      -1.202  -0.680   3.568  0.00  0.00    +0.258 C 
BRANCH  33  34
ATOM     34  O   UNL     1      -1.645   0.154   2.496  0.00  0.00    -0.489 OA
BRANCH  34  41
ATOM     35  C   UNL     1      -2.525   1.786   0.364  0.00  0.00    +0.047 C 
ATOM     36  C   UNL     1      -2.447   0.284   0.260  0.00  0.00    -0.009 A 
ATOM     37  C   UNL     1      -2.808  -0.347  -0.915  0.00  0.00    +0.007 A 
ATOM     38  C   UNL     1      -2.737  -1.724  -1.011  0.00  0.00    +0.000 A 
ATOM     39  C   UNL     1      -2.304  -2.473   0.068  0.00  0.00    +0.004 A 
ATOM     40  C   UNL     1      -1.942  -1.847   1.244  0.00  0.00    +0.046 A 
ATOM     41  C   UNL     1      -2.007  -0.465   1.341  0.00  0.00    +0.124 A 
ENDBRANCH  34  41
ENDBRANCH  33  34
ENDBRANCH  30  33
ENDBRANCH  29  30
ENDBRANCH   1  29
TORSDOF 16
