REMARK  Name = ZINC39884085
REMARK  4 active torsions:
REMARK  status: ('A' for Active; 'I' for Inactive)
REMARK    1  A    between atoms: C_3  and  O_37
REMARK    2  A    between atoms: C_6  and  C_7
REMARK    3  A    between atoms: N_11  and  C_15
REMARK    4  A    between atoms: C_15  and  C_16
REMARK                            x       y       z     vdW  Elec       q    Type
REMARK                         _______ _______ _______ _____ _____    ______ ____
ROOT
ATOM      1  C   UNL     1      -1.293  -0.774   0.011  0.00  0.00    +0.072 C 
ATOM      2  C   UNL     1      -1.349  -1.654   1.228  0.00  0.00    +0.033 A 
ATOM      3  C   UNL     1      -1.807  -2.920   1.352  0.00  0.00    +0.091 A 
ATOM      4  N   UNL     1      -1.699  -3.455   2.612  0.00  0.00    -0.288 N 
ATOM      5  C   UNL     1      -1.182  -2.718   3.614  0.00  0.00    +0.292 A 
ATOM      6  O   UNL     1      -1.020  -3.035   4.779  0.00  0.00    -0.259 OA
ATOM      7  S   UNL     1      -0.813  -1.255   2.870  0.00  0.00    -0.030 S 
ATOM      8  S   UNL     1      -2.506  -3.789  -0.044  0.00  0.00    -0.093 S 
ATOM      9  C   UNL     1      -2.731  -2.411  -1.198  0.00  0.00    +0.152 C 
ATOM     10  C   UNL     1      -1.374  -1.644  -1.218  0.00  0.00    +0.110 C 
ATOM     11  C   UNL     1      -1.440  -1.000  -2.567  0.00  0.00    +0.235 C 
ATOM     12  O   UNL     1      -0.941   0.050  -2.896  0.00  0.00    -0.274 OA
ATOM     13  N   UNL     1      -2.176  -1.834  -3.347  0.00  0.00    -0.162 N 
ATOM     14  C   UNL     1      -2.845  -2.812  -2.643  0.00  0.00    +0.244 C 
ATOM     15  O   UNL     1      -3.403  -3.790  -3.082  0.00  0.00    -0.273 OA
ATOM     16  C   UNL     1      -2.256  -1.712  -4.687  0.00  0.00    +0.313 C 
ATOM     17  O   UNL     1      -1.652  -0.823  -5.254  0.00  0.00    -0.252 OA
ATOM     18  N   UNL     1      -3.006  -2.577  -5.399  0.00  0.00    -0.313 N 
ATOM     19  H   UNL     1      -3.489  -3.287  -4.947  0.00  0.00    +0.147 HD
ATOM     20  H   UNL     1      -3.064  -2.489  -6.363  0.00  0.00    +0.147 HD
ENDROOT
BRANCH   1  26
ATOM     21  C   UNL     1      -0.017   1.378   0.010  0.00  0.00    +0.008 A 
ATOM     22  C   UNL     1       1.169   2.087   0.002  0.00  0.00    +0.045 A 
ATOM     23  C   UNL     1       2.380   1.409  -0.013  0.00  0.00    +0.117 A 
ATOM     24  C   UNL     1       2.396   0.022  -0.021  0.00  0.00    +0.045 A 
ATOM     25  C   UNL     1       1.207  -0.681  -0.013  0.00  0.00    +0.008 A 
ATOM     26  C   UNL     1       0.002  -0.004   0.002  0.00  0.00    -0.038 A 
BRANCH  23  27
ATOM     27  O   UNL     1       3.548   2.104  -0.021  0.00  0.00    -0.507 OA
ATOM     28  H   UNL     1       3.895   2.300   0.860  0.00  0.00    +0.292 HD
ENDBRANCH  23  27
ENDBRANCH   1  26
BRANCH   4  29
ATOM     29  C   UNL     1      -2.147  -4.826   2.866  0.00  0.00    +0.222 C 
BRANCH  29  30
ATOM     30  C   UNL     1      -1.002  -5.779   2.637  0.00  0.00    +0.235 C 
ATOM     31  O   UNL     1       0.081  -5.354   2.295  0.00  0.00    -0.274 OA
ATOM     32  N   UNL     1      -1.182  -7.103   2.812  0.00  0.00    -0.300 N 
ATOM     33  C   UNL     1      -2.490  -7.633   3.220  0.00  0.00    +0.108 C 
ATOM     34  C   UNL     1      -2.916  -8.716   2.224  0.00  0.00    +0.019 C 
ATOM     35  C   UNL     1      -1.813  -9.773   2.123  0.00  0.00    +0.003 C 
ATOM     36  C   UNL     1      -0.526  -9.123   1.609  0.00  0.00    +0.019 C 
ATOM     37  C   UNL     1      -0.075  -8.044   2.593  0.00  0.00    +0.108 C 
ENDBRANCH  29  30
ENDBRANCH   4  29
TORSDOF 4
