REMARK  Name = ZINC11866904
REMARK  9 active torsions:
REMARK  status: ('A' for Active; 'I' for Inactive)
REMARK    1  A    between atoms: C_1  and  C_2
REMARK    2  A    between atoms: C_2  and  C_3
REMARK    3  A    between atoms: C_10  and  O_15
REMARK    4  A    between atoms: C_12  and  C_14
REMARK    5  A    between atoms: O_15  and  C_16
REMARK    6  A    between atoms: C_16  and  C_18
REMARK    7  A    between atoms: C_16  and  C_19
REMARK    8  A    between atoms: C_24  and  O_40
REMARK    9  A    between atoms: C_31  and  C_33
REMARK                            x       y       z     vdW  Elec       q    Type
REMARK                         _______ _______ _______ _____ _____    ______ ____
ROOT
ATOM      1  C   UNL     1      -4.714   1.629  -0.871  0.00  0.00    +0.257 C 
ATOM      2  O   UNL     1      -4.572   0.531  -1.367  0.00  0.00    -0.272 OA
ATOM      3  N   UNL     1      -5.952   2.122  -0.668  0.00  0.00    -0.291 N 
ATOM      4  C   UNL     1      -6.142   3.501  -0.199  0.00  0.00    +0.111 C 
ATOM      5  C   UNL     1      -7.020   3.485   1.050  0.00  0.00    +0.054 C 
ATOM      6  C   UNL     1      -8.325   2.743   0.746  0.00  0.00    +0.072 C 
ATOM      7  C   UNL     1      -9.208   2.743   1.996  0.00  0.00    +0.035 C 
ATOM      8  C   UNL     1      -8.465   2.056   3.143  0.00  0.00    +0.003 C 
ATOM      9  C   UNL     1      -8.140   0.614   2.751  0.00  0.00    +0.001 C 
ATOM     10  C   UNL     1      -7.263   0.610   1.497  0.00  0.00    +0.008 C 
ATOM     11  C   UNL     1      -8.010   1.297   0.352  0.00  0.00    +0.046 C 
ATOM     12  C   UNL     1      -7.139   1.289  -0.906  0.00  0.00    +0.112 C 
ENDROOT
BRANCH  12  13
ATOM     13  C   UNL     1      -6.711  -0.123  -1.215  0.00  0.00    -0.027 A 
ATOM     14  C   UNL     1      -5.902  -0.809  -0.328  0.00  0.00    +0.007 A 
ATOM     15  C   UNL     1      -5.514  -2.106  -0.608  0.00  0.00    +0.020 A 
ATOM     16  C   UNL     1      -5.926  -2.713  -1.781  0.00  0.00    +0.041 A 
ATOM     17  C   UNL     1      -6.730  -2.024  -2.671  0.00  0.00    +0.020 A 
ATOM     18  C   UNL     1      -7.122  -0.729  -2.387  0.00  0.00    +0.007 A 
ATOM     19 CL   UNL     1      -5.433  -4.339  -2.136  0.00  0.00    -0.084 Cl
ENDBRANCH  12  13
BRANCH   1  20
ATOM     20  C   UNL     1      -3.506   2.441  -0.481  0.00  0.00    +0.256 C 
ATOM     21  C   UNL     1      -3.421   2.528   1.044  0.00  0.00    +0.062 C 
BRANCH  20  22
ATOM     22  O   UNL     1      -2.327   1.815  -0.989  0.00  0.00    -0.479 OA
BRANCH  22  30
ATOM     23  C   UNL     1      -0.028   0.687  -2.225  0.00  0.00    -0.027 A 
ATOM     24  C   UNL     1       1.118   0.244  -2.805  0.00  0.00    +0.096 A 
ATOM     25  C   UNL     1       2.188   1.137  -3.015  0.00  0.00    +0.337 A 
ATOM     26  O   UNL     1       3.210   0.727  -3.535  0.00  0.00    -0.245 OA
ATOM     27  O   UNL     1       2.111   2.428  -2.655  0.00  0.00    -0.422 OA
ATOM     28  C   UNL     1       1.000   2.932  -2.075  0.00  0.00    +0.143 A 
ATOM     29  C   UNL     1      -0.105   2.096  -1.836  0.00  0.00    +0.062 A 
ATOM     30  C   UNL     1      -1.258   2.616  -1.227  0.00  0.00    +0.133 A 
ATOM     31  C   UNL     1      -1.297   3.954  -0.877  0.00  0.00    +0.050 A 
ATOM     32  C   UNL     1      -0.205   4.771  -1.116  0.00  0.00    -0.043 A 
ATOM     33  C   UNL     1       0.936   4.269  -1.709  0.00  0.00    +0.050 A 
ATOM     34  C   UNL     1      -0.262   6.225  -0.723  0.00  0.00    +0.044 C 
BRANCH  23  36
ATOM     35  C   UNL     1      -2.174  -0.138  -3.153  0.00  0.00    +0.009 C 
ATOM     36  C   UNL     1      -1.187  -0.246  -1.989  0.00  0.00    +0.033 C 
ENDBRANCH  23  36
ENDBRANCH  22  30
ENDBRANCH  20  22
ENDBRANCH   1  20
BRANCH   6  37
ATOM     37  O   UNL     1      -9.012   3.391  -0.326  0.00  0.00    -0.388 OA
ATOM     38  H   UNL     1      -9.242   4.313  -0.145  0.00  0.00    +0.210 HD
ENDBRANCH   6  37
TORSDOF 6
