REMARK  Name = ZINC39658203
REMARK  5 active torsions:
REMARK  status: ('A' for Active; 'I' for Inactive)
REMARK    1  A    between atoms: C_4  and  C_7
REMARK    2  A    between atoms: C_10  and  C_12
REMARK    3  A    between atoms: C_16  and  C_25
REMARK    4  A    between atoms: N_27  and  C_28
REMARK    5  A    between atoms: C_31  and  C_34
REMARK                            x       y       z     vdW  Elec       q    Type
REMARK                         _______ _______ _______ _____ _____    ______ ____
ROOT
ATOM      1  C   UNL     1       7.455  -0.859  -0.102  0.00  0.00    +0.282 C 
ATOM      2  O   UNL     1       8.237  -1.791  -0.065  0.00  0.00    -0.267 OA
ATOM      3  N   UNL     1       7.913   0.407  -0.061  0.00  0.00    -0.294 N 
ATOM      4  C   UNL     1       7.123   1.661  -0.087  0.00  0.00    +0.121 C 
ATOM      5  C   UNL     1       7.840   2.596   0.912  0.00  0.00    +0.100 C 
ATOM      6  C   UNL     1       9.283   2.067   0.978  0.00  0.00    -0.004 C 
ATOM      7  C   UNL     1       9.322   0.862   0.028  0.00  0.00    +0.115 C 
ATOM      8  C   UNL     1       9.619   1.624   2.398  0.00  0.00    -0.010 C 
ATOM      9  C   UNL     1      11.076   1.156   2.450  0.00  0.00    -0.082 C 
ATOM     10  N   UNL     1      11.959   2.253   2.037  0.00  0.00    +0.379 N 
ATOM     11  C   UNL     1      11.692   2.612   0.639  0.00  0.00    -0.082 C 
ATOM     12  C   UNL     1      10.261   3.141   0.510  0.00  0.00    -0.010 C 
ATOM     13  H   UNL     1      11.795   3.056   2.626  0.00  0.00    -0.086 HD
ATOM     14  H   UNL     1      12.921   1.963   2.130  0.00  0.00    -0.086 HD
ENDROOT
BRANCH   1  18
ATOM     15  C   UNL     1       3.846  -0.779  -0.313  0.00  0.00    +0.136 A 
ATOM     16  C   UNL     1       4.035  -2.131  -0.317  0.00  0.00    +0.050 A 
ATOM     17  C   UNL     1       5.414  -2.354  -0.239  0.00  0.00    +0.055 A 
ATOM     18  C   UNL     1       6.014  -1.115  -0.190  0.00  0.00    +0.190 A 
ATOM     19  O   UNL     1       5.045  -0.177  -0.242  0.00  0.00    -0.450 OA
BRANCH  15  23
ATOM     20  C   UNL     1       0.092   1.196  -0.513  0.00  0.00    +0.000 A 
ATOM     21  C   UNL     1       1.258   1.938  -0.441  0.00  0.00    +0.001 A 
ATOM     22  C   UNL     1       2.481   1.303  -0.376  0.00  0.00    +0.011 A 
ATOM     23  C   UNL     1       2.540  -0.092  -0.382  0.00  0.00    +0.017 A 
ATOM     24  C   UNL     1       1.360  -0.835  -0.454  0.00  0.00    +0.011 A 
ATOM     25  C   UNL     1       0.144  -0.187  -0.519  0.00  0.00    +0.001 A 
ENDBRANCH  15  23
ENDBRANCH   1  18
BRANCH   5  26
ATOM     26  C   UNL     1       7.821   4.016   0.408  0.00  0.00    +0.218 C 
ATOM     27  O   UNL     1       7.831   4.236  -0.785  0.00  0.00    -0.275 OA
ATOM     28  N   UNL     1       7.794   5.041   1.282  0.00  0.00    -0.312 N 
ATOM     29  H   UNL     1       7.786   4.865   2.236  0.00  0.00    +0.149 HD
BRANCH  28  30
ATOM     30  C   UNL     1       7.775   6.422   0.792  0.00  0.00    +0.073 C 
ATOM     31  C   UNL     1       9.208   6.885   0.520  0.00  0.00    +0.023 C 
ATOM     32  C   UNL     1       9.189   8.327   0.008  0.00  0.00    +0.016 C 
ATOM     33  C   UNL     1       8.551   9.234   1.062  0.00  0.00    +0.102 C 
ATOM     34  C   UNL     1       7.119   8.770   1.335  0.00  0.00    +0.016 C 
ATOM     35  C   UNL     1       7.138   7.329   1.847  0.00  0.00    +0.023 C 
BRANCH  33  36
ATOM     36  C   UNL     1       8.533  10.654   0.558  0.00  0.00    +0.359 C 
ATOM     37  O   UNL     1       7.650  11.416   0.915  0.00  0.00    -0.246 OA
ATOM     38  O   UNL     1       9.400  11.041  -0.206  0.00  0.00    -0.246 OA
ENDBRANCH  33  36
ENDBRANCH  28  30
ENDBRANCH   5  26
TORSDOF 5
