REMARK  Name = ZINC20720901
REMARK  9 active torsions:
REMARK  status: ('A' for Active; 'I' for Inactive)
REMARK    1  A    between atoms: C_1  and  C_2
REMARK    2  A    between atoms: C_2  and  N_3
REMARK    3  A    between atoms: N_3  and  C_4
REMARK    4  A    between atoms: N_3  and  C_6
REMARK    5  A    between atoms: C_4  and  C_5
REMARK    6  A    between atoms: C_6  and  C_7
REMARK    7  A    between atoms: C_7  and  N_8
REMARK    8  A    between atoms: C_9  and  C_11
REMARK    9  A    between atoms: C_24  and  C_27
REMARK                            x       y       z     vdW  Elec       q    Type
REMARK                         _______ _______ _______ _____ _____    ______ ____
ROOT
ATOM      1  C   UNL     1      -3.592  -1.422   1.111  0.00  0.00    +0.037 A 
ATOM      2  C   UNL     1      -3.317  -2.163   2.264  0.00  0.00    +0.015 A 
ATOM      3  C   UNL     1      -2.011  -2.425   2.606  0.00  0.00    +0.024 A 
ATOM      4  C   UNL     1      -0.969  -1.956   1.810  0.00  0.00    +0.031 A 
ATOM      5  C   UNL     1      -1.231  -1.221   0.660  0.00  0.00    -0.019 A 
ATOM      6  C   UNL     1      -2.545  -0.956   0.315  0.00  0.00    +0.019 A 
ATOM      7  C   UNL     1      -0.141  -0.703  -0.225  0.00  0.00    +0.049 C 
ATOM      8  C   UNL     1       0.053   0.784  -0.048  0.00  0.00    -0.023 C 
ATOM      9  C   UNL     1       1.325   1.089  -0.144  0.00  0.00    -0.030 C 
ATOM     10  C   UNL     1       2.152  -0.155  -0.404  0.00  0.00    +0.033 C 
ATOM     11  C   UNL     1       1.237  -1.308   0.104  0.00  0.00    +0.029 C 
ATOM     12  C   UNL     1       1.417  -1.398   1.623  0.00  0.00    +0.107 C 
ATOM     13  N   UNL     1       0.346  -2.231   2.179  0.00  0.00    -0.336 N 
ATOM     14  H   UNL     1       0.590  -3.050   2.871  0.00  0.00    +0.147 HD
ENDROOT
BRANCH  12  15
ATOM     15  C   UNL     1       1.345  -0.017   2.222  0.00  0.00    -0.002 A 
ATOM     16  C   UNL     1       0.247   0.591   2.698  0.00  0.00    +0.089 A 
ATOM     17  N   UNL     1       0.568   1.837   3.162  0.00  0.00    -0.360 N 
ATOM     18  H   UNL     1      -0.213   2.483   3.591  0.00  0.00    +0.165 HD
ATOM     19  C   UNL     1       1.915   2.068   2.992  0.00  0.00    +0.047 A 
ATOM     20  C   UNL     1       2.462   0.914   2.401  0.00  0.00    +0.005 A 
ATOM     21  C   UNL     1       3.827   0.859   2.114  0.00  0.00    +0.010 A 
ATOM     22  C   UNL     1       4.627   1.926   2.412  0.00  0.00    +0.001 A 
ATOM     23  C   UNL     1       4.093   3.065   2.998  0.00  0.00    +0.002 A 
ATOM     24  C   UNL     1       2.747   3.144   3.283  0.00  0.00    +0.026 A 
ENDBRANCH  12  15
BRANCH   1  26
ATOM     25  N   UNL     1      -6.000  -1.583   1.504  0.00  0.00    -0.313 N 
ATOM     26  C   UNL     1      -4.989  -1.133   0.735  0.00  0.00    +0.244 C 
ATOM     27  O   UNL     1      -5.228  -0.488  -0.268  0.00  0.00    -0.270 OA
ATOM     28  H   UNL     1      -5.784  -2.166   2.411  0.00  0.00    +0.149 HD
BRANCH  25  29
ATOM     29  C   UNL     1      -7.387  -1.296   1.131  0.00  0.00    +0.086 C 
BRANCH  29  30
ATOM     30  C   UNL     1      -8.332  -1.915   2.163  0.00  0.00    -0.060 C 
BRANCH  30  31
ATOM     31  N   UNL     1      -9.723  -1.714   1.737  0.00  0.00    +0.380 N 
ATOM     32  H   UNL     1      -9.812  -0.691   1.344  0.00  0.00    -0.082 HD
BRANCH  31  34
ATOM     33  C   UNL     1     -11.439  -2.246   0.072  0.00  0.00    -0.017 C 
ATOM     34  C   UNL     1     -10.083  -2.644   0.658  0.00  0.00    -0.082 C 
ENDBRANCH  31  34
BRANCH  31  35
ATOM     35  C   UNL     1     -10.646  -1.844   2.873  0.00  0.00    -0.082 C 
ATOM     36  C   UNL     1     -10.575  -0.580   3.733  0.00  0.00    -0.017 C 
ENDBRANCH  31  35
ENDBRANCH  30  31
ENDBRANCH  29  30
ENDBRANCH  25  29
ENDBRANCH   1  26
TORSDOF 7
