REMARK  Name = ZINC66906837
REMARK  5 active torsions:
REMARK  status: ('A' for Active; 'I' for Inactive)
REMARK    1  A    between atoms: C_10  and  C_11
REMARK    2  A    between atoms: C_10  and  O_27
REMARK    3  A    between atoms: C_11  and  N_12
REMARK    4  A    between atoms: N_15  and  C_16
REMARK    5  A    between atoms: C_21  and  N_22
REMARK                            x       y       z     vdW  Elec       q    Type
REMARK                         _______ _______ _______ _____ _____    ______ ____
ROOT
ATOM      1  N   UNL     1       4.822   1.449   0.493  0.00  0.00    -0.296 N 
ATOM      2  C   UNL     1       5.704   2.254   1.119  0.00  0.00    +0.304 C 
ATOM      3  O   UNL     1       6.370   1.825   2.041  0.00  0.00    -0.253 OA
ATOM      4  N   UNL     1       5.846   3.534   0.723  0.00  0.00    -0.266 N 
ATOM      5  H   UNL     1       4.290   1.792  -0.243  0.00  0.00    +0.150 HD
ATOM      6  H   UNL     1       5.270   3.895   0.031  0.00  0.00    +0.156 HD
ENDROOT
BRANCH   4   7
ATOM      7  C   UNL     1       6.826   4.344   1.310  0.00  0.00    +0.079 A 
ATOM      8  C   UNL     1       7.152   4.195   2.654  0.00  0.00    +0.028 A 
ATOM      9  C   UNL     1       8.129   5.019   3.191  0.00  0.00    +0.022 A 
ATOM     10  C   UNL     1       8.744   5.957   2.383  0.00  0.00    +0.113 A 
ATOM     11  N   UNL     1       8.415   6.077   1.111  0.00  0.00    -0.235 NA
ATOM     12  C   UNL     1       7.494   5.309   0.556  0.00  0.00    +0.175 A 
BRANCH  12  13
ATOM     13  N   UNL     1       7.181   5.469  -0.798  0.00  0.00    -0.220 N 
ATOM     14  C   UNL     1       7.358   6.598  -1.533  0.00  0.00    +0.116 A 
ATOM     15  C   UNL     1       6.933   6.339  -2.791  0.00  0.00    +0.041 A 
ATOM     16  C   UNL     1       6.482   5.015  -2.830  0.00  0.00    +0.135 A 
ATOM     17  N   UNL     1       6.636   4.491  -1.641  0.00  0.00    -0.173 NA
ENDBRANCH  12  13
ENDBRANCH   4   7
BRANCH   1  18
ATOM     18  C   UNL     1       4.667   0.057   0.923  0.00  0.00    +0.145 C 
BRANCH  18  28
ATOM     19  C   UNL     1       3.508  -4.769   1.165  0.00  0.00    +0.000 A 
ATOM     20  C   UNL     1       3.521  -3.758   2.109  0.00  0.00    +0.000 A 
ATOM     21  C   UNL     1       3.587  -2.442   1.702  0.00  0.00    +0.007 A 
ATOM     22  C   UNL     1       3.643  -2.123   0.351  0.00  0.00    -0.011 A 
ATOM     23  C   UNL     1       3.636  -3.129  -0.588  0.00  0.00    -0.041 A 
ATOM     24  C   UNL     1       3.565  -4.454  -0.176  0.00  0.00    +0.004 A 
ATOM     25  C   UNL     1       3.711  -2.858  -2.068  0.00  0.00    +0.035 C 
ATOM     26  C   UNL     1       3.352  -1.404  -2.366  0.00  0.00    +0.008 C 
ATOM     27  C   UNL     1       4.197  -0.501  -1.461  0.00  0.00    +0.041 C 
ATOM     28  C   UNL     1       3.707  -0.665  -0.024  0.00  0.00    +0.107 C 
BRANCH  28  29
ATOM     29  O   UNL     1       2.405  -0.090   0.099  0.00  0.00    -0.382 OA
ATOM     30  H   UNL     1       2.034  -0.142   0.990  0.00  0.00    +0.211 HD
ENDBRANCH  28  29
ENDBRANCH  18  28
ENDBRANCH   1  18
TORSDOF 5
