REMARK  Name = ZINC10066076
REMARK  12 active torsions:
REMARK  status: ('A' for Active; 'I' for Inactive)
REMARK    1  A    between atoms: C_1  and  N_54
REMARK    2  A    between atoms: C_2  and  N_54
REMARK    3  A    between atoms: C_3  and  C_4
REMARK    4  A    between atoms: C_3  and  N_54
REMARK    5  A    between atoms: C_4  and  N_5
REMARK    6  A    between atoms: C_10  and  O_17
REMARK    7  A    between atoms: C_11  and  O_15
REMARK    8  A    between atoms: O_15  and  C_16
REMARK    9  A    between atoms: O_17  and  C_18
REMARK   10  A    between atoms: C_19  and  C_21
REMARK   11  A    between atoms: C_23  and  N_30
REMARK   12  A    between atoms: C_25  and  N_27
REMARK                            x       y       z     vdW  Elec       q    Type
REMARK                         _______ _______ _______ _____ _____    ______ ____
ROOT
ATOM      1  N   UNL     1       6.715   3.777   0.665  0.00  0.00    -0.248 N 
ATOM      2  C   UNL     1       5.790   2.888   0.146  0.00  0.00    +0.168 A 
ATOM      3  N   UNL     1       4.503   3.058  -0.049  0.00  0.00    -0.224 NA
ATOM      4  C   UNL     1       3.713   2.093  -0.570  0.00  0.00    +0.084 A 
ATOM      5  C   UNL     1       2.323   2.150  -0.829  0.00  0.00    +0.078 A 
ATOM      6  C   UNL     1       1.663   1.072  -1.365  0.00  0.00    +0.164 A 
ATOM      7  C   UNL     1       2.337  -0.111  -1.673  0.00  0.00    +0.163 A 
ATOM      8  C   UNL     1       3.697  -0.198  -1.425  0.00  0.00    +0.066 A 
ATOM      9  C   UNL     1       4.361   0.880  -0.893  0.00  0.00    +0.044 A 
ATOM     10  S   UNL     1       6.043   1.214  -0.429  0.00  0.00    -0.052 S 
ATOM     11  C   UNL     1       6.325   5.009   1.048  0.00  0.00    +0.252 C 
ATOM     12  O   UNL     1       5.154   5.327   0.971  0.00  0.00    -0.270 OA
ENDROOT
BRANCH  11  13
ATOM     13  C   UNL     1       7.320   5.974   1.560  0.00  0.00    +0.042 A 
ATOM     14  C   UNL     1       8.608   6.005   1.022  0.00  0.00    +0.046 A 
ATOM     15  C   UNL     1       9.530   6.913   1.501  0.00  0.00    +0.129 A 
ATOM     16  C   UNL     1       9.185   7.782   2.521  0.00  0.00    +0.065 A 
ATOM     17  C   UNL     1       7.913   7.752   3.063  0.00  0.00    +0.129 A 
ATOM     18  C   UNL     1       6.979   6.854   2.589  0.00  0.00    +0.046 A 
BRANCH  17  19
ATOM     19  N   UNL     1       7.552   8.685   4.154  0.00  0.00    +0.057 N 
ATOM     20  O   UNL     1       6.432   8.660   4.631  0.00  0.00    -0.126 OA
ATOM     21  O   UNL     1       8.376   9.479   4.573  0.00  0.00    -0.126 OA
ENDBRANCH  17  19
BRANCH  15  22
ATOM     22  N   UNL     1      10.894   6.952   0.926  0.00  0.00    +0.057 N 
ATOM     23  O   UNL     1      11.668   7.833   1.256  0.00  0.00    -0.126 OA
ATOM     24  O   UNL     1      11.242   6.105   0.124  0.00  0.00    -0.126 OA
ENDBRANCH  15  22
ENDBRANCH  11  13
BRANCH   7  25
ATOM     25  O   UNL     1       1.665  -1.168  -2.204  0.00  0.00    -0.491 OA
ATOM     26  C   UNL     1       2.426  -2.343  -2.491  0.00  0.00    +0.277 C 
ENDBRANCH   7  25
BRANCH   6  27
ATOM     27  O   UNL     1       0.327   1.159  -1.603  0.00  0.00    -0.491 OA
ATOM     28  C   UNL     1      -0.313   2.393  -1.269  0.00  0.00    +0.277 C 
ENDBRANCH   6  27
BRANCH   1  29
ATOM     29  C   UNL     1       8.119   3.379   0.799  0.00  0.00    +0.097 C 
BRANCH  29  30
ATOM     30  C   UNL     1       8.716   3.140  -0.590  0.00  0.00    -0.060 C 
BRANCH  30  33
ATOM     31  C   UNL     1       9.889   1.455  -1.872  0.00  0.00    -0.097 C 
ATOM     32  C   UNL     1      10.913   2.400   0.108  0.00  0.00    -0.097 C 
ATOM     33  N   UNL     1       9.638   1.988  -0.517  0.00  0.00    +0.377 N 
ATOM     34  H   UNL     1       9.208   1.252   0.057  0.00  0.00    -0.083 HD
ENDBRANCH  30  33
ENDBRANCH  29  30
ENDBRANCH   1  29
TORSDOF 8
