REMARK  Name = ZINC33821893
REMARK  5 active torsions:
REMARK  status: ('A' for Active; 'I' for Inactive)
REMARK    1  A    between atoms: C_1  and  O_2
REMARK    2  A    between atoms: O_2  and  C_3
REMARK    3  A    between atoms: C_3  and  C_5
REMARK    4  A    between atoms: C_7  and  C_33
REMARK    5  A    between atoms: C_14  and  C_27
REMARK                            x       y       z     vdW  Elec       q    Type
REMARK                         _______ _______ _______ _____ _____    ______ ____
ROOT
ATOM      1  C   UNL     1       1.384   2.085   0.244  0.00  0.00    +0.176 C 
ATOM      2  C   UNL     1       0.720   3.379   0.726  0.00  0.00    +0.046 C 
ATOM      3  C   UNL     1      -0.294   3.825  -0.329  0.00  0.00    +0.060 C 
ATOM      4  C   UNL     1      -1.312   2.733  -0.547  0.00  0.00    +0.016 C 
ATOM      5  C   UNL     1      -0.978   1.431  -0.405  0.00  0.00    +0.025 C 
ATOM      6  C   UNL     1       0.319   1.056  -0.019  0.00  0.00    +0.176 C 
ATOM      7  O   UNL     1       0.588  -0.123   0.100  0.00  0.00    -0.291 OA
ATOM      8  C   UNL     1      -1.985   0.337  -0.651  0.00  0.00    +0.086 C 
ATOM      9  C   UNL     1      -3.391   0.862  -0.589  0.00  0.00    -0.007 A 
ATOM     10  C   UNL     1      -4.464  -0.026  -0.399  0.00  0.00    -0.012 A 
ATOM     11  C   UNL     1      -4.248  -1.410  -0.270  0.00  0.00    +0.009 A 
ATOM     12  C   UNL     1      -5.308  -2.242  -0.084  0.00  0.00    +0.001 A 
ATOM     13  C   UNL     1      -6.608  -1.744  -0.018  0.00  0.00    +0.001 A 
ATOM     14  C   UNL     1      -6.855  -0.412  -0.140  0.00  0.00    +0.008 A 
ATOM     15  C   UNL     1      -5.786   0.479  -0.336  0.00  0.00    -0.017 A 
ATOM     16  C   UNL     1      -6.007   1.861  -0.471  0.00  0.00    +0.010 A 
ATOM     17  C   UNL     1      -4.955   2.699  -0.658  0.00  0.00    +0.024 A 
ATOM     18  C   UNL     1      -3.643   2.209  -0.717  0.00  0.00    +0.036 A 
ATOM     19  N   UNL     1      -2.583   3.093  -0.892  0.00  0.00    -0.317 N 
ATOM     20  H   UNL     1      -2.776   4.091  -1.313  0.00  0.00    +0.152 HD
ENDROOT
BRANCH   2  21
ATOM     21  C   UNL     1       1.767   4.448   0.907  0.00  0.00    -0.039 A 
ATOM     22  C   UNL     1       1.549   5.718   0.406  0.00  0.00    +0.008 A 
ATOM     23  C   UNL     1       2.506   6.702   0.569  0.00  0.00    +0.050 A 
ATOM     24  C   UNL     1       3.687   6.418   1.236  0.00  0.00    +0.166 A 
ATOM     25  C   UNL     1       3.906   5.139   1.741  0.00  0.00    +0.166 A 
ATOM     26  C   UNL     1       2.940   4.159   1.579  0.00  0.00    +0.053 A 
ATOM     27  O   UNL     1       5.128   5.113   2.348  0.00  0.00    -0.453 OA
ATOM     28  C   UNL     1       5.478   6.492   2.567  0.00  0.00    +0.466 C 
ATOM     29  O   UNL     1       4.772   7.194   1.526  0.00  0.00    -0.453 OA
ENDBRANCH   2  21
BRANCH   8  30
ATOM     30  C   UNL     1      -1.742  -0.257  -2.015  0.00  0.00    -0.035 A 
ATOM     31  C   UNL     1      -1.830   0.539  -3.141  0.00  0.00    +0.004 A 
ATOM     32  C   UNL     1      -1.603  -0.006  -4.392  0.00  0.00    +0.000 A 
ATOM     33  C   UNL     1      -1.298  -1.348  -4.516  0.00  0.00    +0.000 A 
ATOM     34  C   UNL     1      -1.216  -2.146  -3.389  0.00  0.00    +0.000 A 
ATOM     35  C   UNL     1      -1.438  -1.600  -2.139  0.00  0.00    +0.004 A 
ENDBRANCH   8  30
BRANCH   1  36
ATOM     36  C   UNL     1       2.150   2.354  -1.026  0.00  0.00    +0.318 C 
ATOM     37  O   UNL     1       2.279   3.487  -1.425  0.00  0.00    -0.250 OA
BRANCH  36  39
ATOM     38  C   UNL     1       3.413   1.668  -2.926  0.00  0.00    +0.280 C 
ATOM     39  O   UNL     1       2.689   1.335  -1.712  0.00  0.00    -0.467 OA
ENDBRANCH  36  39
ENDBRANCH   1  36
TORSDOF 4
