REMARK  Name = ZINC27019065
REMARK  6 active torsions:
REMARK  status: ('A' for Active; 'I' for Inactive)
REMARK    1  A    between atoms: C_4  and  N_7
REMARK    2  A    between atoms: N_9  and  C_29
REMARK    3  A    between atoms: C_10  and  C_13
REMARK    4  A    between atoms: C_16  and  S_19
REMARK    5  A    between atoms: S_19  and  N_22
REMARK    6  A    between atoms: C_29  and  C_30
REMARK                            x       y       z     vdW  Elec       q    Type
REMARK                         _______ _______ _______ _____ _____    ______ ____
ROOT
ATOM      1  N   UNL     1       7.612   1.594   5.897  0.00  0.00    -0.336 N 
ATOM      2  C   UNL     1       6.352   1.363   6.216  0.00  0.00    +0.152 A 
ATOM      3  N   UNL     1       5.255   1.253   5.395  0.00  0.00    -0.313 N 
ATOM      4  C   UNL     1       4.032   1.012   5.961  0.00  0.00    +0.058 A 
ATOM      5  C   UNL     1       3.933   0.878   7.300  0.00  0.00    +0.075 A 
ATOM      6  S   UNL     1       5.624   1.103   7.826  0.00  0.00    -0.059 S 
ATOM      7  H   UNL     1       7.884   1.815   4.855  0.00  0.00    +0.168 HD
ENDROOT
BRANCH   1  11
ATOM      8  C   UNL     1      10.537   1.486   8.821  0.00  0.00    +0.000 A 
ATOM      9  C   UNL     1      10.141   0.314   8.200  0.00  0.00    +0.002 A 
ATOM     10  C   UNL     1       9.166   0.343   7.225  0.00  0.00    +0.025 A 
ATOM     11  C   UNL     1       8.578   1.558   6.864  0.00  0.00    +0.041 A 
ATOM     12  C   UNL     1       8.988   2.738   7.491  0.00  0.00    +0.025 A 
ATOM     13  C   UNL     1       9.959   2.693   8.469  0.00  0.00    +0.002 A 
ENDBRANCH   1  11
BRANCH   4  14
ATOM     14  C   UNL     1       2.829   0.894   5.110  0.00  0.00    -0.001 A 
ATOM     15  C   UNL     1       1.700   1.669   5.381  0.00  0.00    +0.012 A 
ATOM     16  C   UNL     1       0.581   1.553   4.583  0.00  0.00    +0.029 A 
ATOM     17  C   UNL     1       0.575   0.671   3.517  0.00  0.00    +0.106 A 
ATOM     18  C   UNL     1       1.688  -0.104   3.247  0.00  0.00    +0.029 A 
ATOM     19  C   UNL     1       2.816   0.006   4.033  0.00  0.00    +0.012 A 
BRANCH  17  20
ATOM     20  S   UNL     1      -0.859   0.530   2.503  0.00  0.00    +0.061 S 
ATOM     21  O   UNL     1      -1.960   0.959   3.294  0.00  0.00    -0.153 OA
ATOM     22  O   UNL     1      -0.808  -0.757   1.903  0.00  0.00    -0.153 OA
BRANCH  20  23
ATOM     23  N   UNL     1      -0.701   1.631   1.276  0.00  0.00    -0.177 NA
ATOM     24  C   UNL     1      -0.035   1.209   0.028  0.00  0.00    +0.109 C 
ATOM     25  C   UNL     1      -0.764   1.731  -1.223  0.00  0.00    +0.017 C 
ATOM     26  C   UNL     1      -2.257   1.625  -1.034  0.00  0.00    +0.001 C 
ATOM     27  C   UNL     1      -2.787   2.931  -0.449  0.00  0.00    +0.001 C 
ATOM     28  C   UNL     1      -2.700   3.017   1.017  0.00  0.00    +0.017 C 
ATOM     29  C   UNL     1      -1.220   2.965   1.472  0.00  0.00    +0.109 C 
ENDBRANCH  20  23
ENDBRANCH  17  20
ENDBRANCH   4  14
BRANCH   3  30
ATOM     30  C   UNL     1       5.390   1.396   3.943  0.00  0.00    +0.198 C 
BRANCH  30  31
ATOM     31  C   UNL     1       5.328   2.856   3.575  0.00  0.00    +0.124 A 
ATOM     32  C   UNL     1       6.379   3.693   3.496  0.00  0.00    +0.046 A 
ATOM     33  C   UNL     1       5.868   4.957   3.119  0.00  0.00    +0.041 A 
ATOM     34  C   UNL     1       4.536   4.818   2.998  0.00  0.00    +0.195 A 
ATOM     35  O   UNL     1       4.214   3.544   3.275  0.00  0.00    -0.466 OA
ENDBRANCH  30  31
ENDBRANCH   3  30
TORSDOF 6
