REMARK  Name = ZINC64052835
REMARK  11 active torsions:
REMARK  status: ('A' for Active; 'I' for Inactive)
REMARK    1  A    between atoms: C_1  and  C_2
REMARK    2  A    between atoms: C_4  and  C_12
REMARK    3  A    between atoms: C_12  and  C_14
REMARK    4  A    between atoms: C_14  and  O_15
REMARK    5  A    between atoms: O_15  and  C_16
REMARK    6  A    between atoms: C_16  and  C_18
REMARK    7  A    between atoms: C_20  and  S_25
REMARK    8  A    between atoms: S_25  and  N_28
REMARK    9  A    between atoms: N_28  and  C_29
REMARK   10  A    between atoms: C_29  and  C_30
REMARK   11  A    between atoms: C_29  and  C_31
REMARK                            x       y       z     vdW  Elec       q    Type
REMARK                         _______ _______ _______ _____ _____    ______ ____
ROOT
ATOM      1  C   UNL     1      -5.897  -1.074  -1.789  0.00  0.00    +0.341 C 
ATOM      2  O   UNL     1      -6.263  -1.774  -0.867  0.00  0.00    -0.245 OA
ENDROOT
BRANCH   1   3
ATOM      3  C   UNL     1      -6.832  -0.746  -2.884  0.00  0.00    +0.075 A 
ATOM      4  C   UNL     1      -6.412   0.055  -3.949  0.00  0.00    +0.044 A 
ATOM      5  C   UNL     1      -7.290   0.357  -4.968  0.00  0.00    +0.106 A 
ATOM      6  C   UNL     1      -8.585  -0.130  -4.939  0.00  0.00    +0.029 A 
ATOM      7  C   UNL     1      -9.009  -0.923  -3.888  0.00  0.00    +0.018 A 
ATOM      8  C   UNL     1      -8.139  -1.239  -2.863  0.00  0.00    +0.032 A 
ATOM      9 BR   UNL     1      -8.717  -2.330  -1.431  0.00  0.00    -0.049 Br
BRANCH   5  10
ATOM     10  S   UNL     1      -6.762   1.367  -6.312  0.00  0.00    +0.059 S 
ATOM     11  O   UNL     1      -7.932   1.954  -6.864  0.00  0.00    -0.153 OA
ATOM     12  O   UNL     1      -5.673   2.145  -5.832  0.00  0.00    -0.153 OA
BRANCH  10  13
ATOM     13  N   UNL     1      -6.147   0.358  -7.472  0.00  0.00    -0.187 NA
ATOM     14  H   UNL     1      -5.206   0.400  -7.703  0.00  0.00    +0.148 HD
BRANCH  13  15
ATOM     15  C   UNL     1      -7.024  -0.600  -8.149  0.00  0.00    +0.070 C 
ATOM     16  C   UNL     1      -7.525   0.006  -9.462  0.00  0.00    +0.025 C 
ATOM     17  C   UNL     1      -6.247  -1.884  -8.444  0.00  0.00    +0.025 C 
ENDBRANCH  13  15
ENDBRANCH  10  13
ENDBRANCH   5  10
ENDBRANCH   1   3
BRANCH   1  18
ATOM     18  O   UNL     1      -4.637  -0.596  -1.813  0.00  0.00    -0.453 OA
BRANCH  18  19
ATOM     19  C   UNL     1      -3.787  -0.953  -0.721  0.00  0.00    +0.311 C 
BRANCH  19  20
ATOM     20  C   UNL     1      -2.428  -0.333  -0.919  0.00  0.00    +0.199 C 
ATOM     21  O   UNL     1      -2.209   0.349  -1.899  0.00  0.00    -0.289 OA
BRANCH  20  24
ATOM     22  C   UNL     1      -0.019   1.526   0.010  0.00  0.00    +0.035 C 
ATOM     23  C   UNL     1       0.002  -0.004   0.002  0.00  0.00    +0.111 C 
ATOM     24  C   UNL     1      -1.411  -0.544   0.036  0.00  0.00    +0.029 C 
ATOM     25  C   UNL     1      -1.496  -1.289   1.198  0.00  0.00    +0.007 A 
ATOM     26  C   UNL     1      -2.543  -2.035   1.788  0.00  0.00    +0.010 A 
ATOM     27  C   UNL     1      -2.344  -2.680   2.960  0.00  0.00    +0.001 A 
ATOM     28  C   UNL     1      -1.116  -2.646   3.640  0.00  0.00    +0.002 A 
ATOM     29  C   UNL     1      -0.053  -1.963   3.162  0.00  0.00    +0.026 A 
ATOM     30  C   UNL     1      -0.185  -1.232   1.891  0.00  0.00    +0.043 A 
ATOM     31  N   UNL     1       0.660  -0.506   1.212  0.00  0.00    -0.377 N 
ATOM     32  H   UNL     1       1.578  -0.327   1.468  0.00  0.00    +0.160 HD
ENDBRANCH  20  24
ENDBRANCH  19  20
ENDBRANCH  18  19
ENDBRANCH   1  18
TORSDOF 8
