REMARK  Name = ZINC17521630
REMARK  7 active torsions:
REMARK  status: ('A' for Active; 'I' for Inactive)
REMARK    1  A    between atoms: C_1  and  N_2
REMARK    2  A    between atoms: C_6  and  C_7
REMARK    3  A    between atoms: C_7  and  C_9
REMARK    4  A    between atoms: C_7  and  N_15
REMARK    5  A    between atoms: N_15  and  S_16
REMARK    6  A    between atoms: S_16  and  C_19
REMARK    7  A    between atoms: C_22  and  C_25
REMARK                            x       y       z     vdW  Elec       q    Type
REMARK                         _______ _______ _______ _____ _____    ______ ____
ROOT
ATOM      1  N   UNL     1       0.932   5.369   0.997  0.00  0.00    -0.175 NA
ATOM      2  H   UNL     1       0.211   5.971   0.756  0.00  0.00    +0.149 HD
ENDROOT
BRANCH   1   3
ATOM      3  S   UNL     1       1.572   5.413   2.524  0.00  0.00    +0.059 S 
ATOM      4  O   UNL     1       0.881   6.439   3.224  0.00  0.00    -0.153 OA
ATOM      5  O   UNL     1       1.613   4.070   2.986  0.00  0.00    -0.153 OA
BRANCH   3   6
ATOM      6  C   UNL     1       3.245   5.946   2.373  0.00  0.00    +0.105 A 
ATOM      7  C   UNL     1       4.254   5.016   2.205  0.00  0.00    +0.029 A 
ATOM      8  C   UNL     1       5.565   5.434   2.081  0.00  0.00    +0.006 A 
ATOM      9  C   UNL     1       5.870   6.781   2.137  0.00  0.00    -0.044 A 
ATOM     10  C   UNL     1       4.861   7.710   2.310  0.00  0.00    +0.006 A 
ATOM     11  C   UNL     1       3.549   7.293   2.428  0.00  0.00    +0.029 A 
BRANCH   9  12
ATOM     12  C   UNL     1       7.300   7.236   2.008  0.00  0.00    +0.019 C 
ATOM     13  C   UNL     1       7.859   6.786   0.657  0.00  0.00    +0.008 C 
ATOM     14  C   UNL     1       9.312   7.249   0.526  0.00  0.00    +0.001 C 
ATOM     15  C   UNL     1      10.146   6.635   1.653  0.00  0.00    +0.000 C 
ATOM     16  C   UNL     1       9.587   7.085   3.004  0.00  0.00    +0.001 C 
ATOM     17  C   UNL     1       8.134   6.623   3.135  0.00  0.00    +0.008 C 
ENDBRANCH   9  12
ENDBRANCH   3   6
ENDBRANCH   1   3
BRANCH   1  18
ATOM     18  C   UNL     1       1.456   4.421   0.011  0.00  0.00    +0.172 C 
BRANCH  18  24
ATOM     19  C   UNL     1       2.482   1.497  -0.013  0.00  0.00    +0.150 C 
ATOM     20  N   UNL     1       1.075   1.907   0.002  0.00  0.00    -0.336 N 
ATOM     21  C   UNL     1      -0.013   1.076   0.008  0.00  0.00    +0.106 A 
ATOM     22  C   UNL     1      -1.105   1.864   0.017  0.00  0.00    +0.130 A 
ATOM     23  N   UNL     1      -0.695   3.141   0.025  0.00  0.00    -0.239 NA
ATOM     24  C   UNL     1       0.610   3.174   0.013  0.00  0.00    +0.133 A 
ENDBRANCH  18  24
BRANCH  18  25
ATOM     25  C   UNL     1       1.421   5.050  -1.358  0.00  0.00    -0.022 A 
ATOM     26  C   UNL     1       0.338   5.820  -1.737  0.00  0.00    +0.005 A 
ATOM     27  C   UNL     1       0.308   6.401  -2.991  0.00  0.00    +0.000 A 
ATOM     28  C   UNL     1       1.357   6.203  -3.870  0.00  0.00    +0.000 A 
ATOM     29  C   UNL     1       2.438   5.429  -3.493  0.00  0.00    +0.000 A 
ATOM     30  C   UNL     1       2.470   4.852  -2.237  0.00  0.00    +0.005 A 
ENDBRANCH  18  25
ENDBRANCH   1  18
TORSDOF 6
