REMARK  Name = ZINC36569531
REMARK  9 active torsions:
REMARK  status: ('A' for Active; 'I' for Inactive)
REMARK    1  A    between atoms: C_1  and  O_2
REMARK    2  A    between atoms: O_2  and  C_3
REMARK    3  A    between atoms: C_3  and  C_5
REMARK    4  A    between atoms: C_5  and  C_6
REMARK    5  A    between atoms: C_6  and  C_8
REMARK    6  A    between atoms: C_6  and  N_12
REMARK    7  A    between atoms: C_8  and  O_10
REMARK    8  A    between atoms: O_10  and  C_11
REMARK    9  A    between atoms: C_24  and  C_26
REMARK                            x       y       z     vdW  Elec       q    Type
REMARK                         _______ _______ _______ _____ _____    ______ ____
ROOT
ATOM      1  N   UNL     1      -5.403  -2.213  -0.172  0.00  0.00    -0.286 N 
ATOM      2  C   UNL     1      -4.678  -1.987  -1.286  0.00  0.00    +0.304 C 
ATOM      3  O   UNL     1      -3.464  -2.045  -1.243  0.00  0.00    -0.253 OA
ATOM      4  N   UNL     1      -5.298  -1.697  -2.446  0.00  0.00    -0.273 N 
ATOM      5  C   UNL     1      -4.535  -1.571  -3.697  0.00  0.00    +0.116 C 
ATOM      6  C   UNL     1      -4.640  -0.128  -4.207  0.00  0.00    +0.074 C 
ATOM      7  C   UNL     1      -6.075   0.319  -4.105  0.00  0.00    +0.040 A 
ATOM      8  C   UNL     1      -7.018  -0.279  -3.346  0.00  0.00    +0.062 A 
ATOM      9  N   UNL     1      -8.162   0.390  -3.501  0.00  0.00    -0.348 N 
ATOM     10  C   UNL     1      -7.969   1.381  -4.332  0.00  0.00    +0.171 A 
ATOM     11  N   UNL     1      -6.676   1.368  -4.732  0.00  0.00    -0.349 N 
ATOM     12  H   UNL     1      -6.257   1.989  -5.348  0.00  0.00    +0.166 HD
ATOM     13  C   UNL     1      -6.759  -1.504  -2.494  0.00  0.00    +0.159 C 
ATOM     14  H   UNL     1      -6.368  -2.121  -0.195  0.00  0.00    +0.151 HD
ATOM     15  H   UNL     1      -9.003   0.176  -3.067  0.00  0.00    +0.167 HD
ENDROOT
BRANCH  13  16
ATOM     16  C   UNL     1      -7.416  -2.711  -3.111  0.00  0.00    +0.014 A 
ATOM     17  C   UNL     1      -7.792  -2.689  -4.441  0.00  0.00    +0.010 A 
ATOM     18  C   UNL     1      -8.394  -3.796  -5.008  0.00  0.00    +0.016 A 
ATOM     19  C   UNL     1      -8.623  -4.927  -4.245  0.00  0.00    +0.021 A 
ATOM     20  C   UNL     1      -8.248  -4.951  -2.914  0.00  0.00    +0.054 A 
ATOM     21  C   UNL     1      -7.639  -3.844  -2.348  0.00  0.00    +0.130 A 
ATOM     22  F   UNL     1      -7.268  -3.868  -1.049  0.00  0.00    -0.205 F 
ATOM     23 BR   UNL     1      -9.448  -6.441  -5.022  0.00  0.00    -0.050 Br
ENDBRANCH  13  16
BRANCH   1  24
ATOM     24  C   UNL     1      -4.733  -2.599   1.072  0.00  0.00    +0.194 C 
BRANCH  24  25
ATOM     25  C   UNL     1      -4.272  -1.361   1.798  0.00  0.00    +0.328 C 
ATOM     26  O   UNL     1      -4.481  -0.270   1.325  0.00  0.00    -0.249 OA
BRANCH  25  27
ATOM     27  O   UNL     1      -3.628  -1.472   2.971  0.00  0.00    -0.467 OA
ATOM     28  C   UNL     1      -3.220  -0.258   3.604  0.00  0.00    +0.280 C 
ENDBRANCH  25  27
ENDBRANCH  24  25
BRANCH  24  29
ATOM     29  C   UNL     1      -5.710  -3.375   1.958  0.00  0.00    +0.154 C 
BRANCH  29  30
ATOM     30  C   UNL     1      -6.076  -4.673   1.284  0.00  0.00    +0.309 C 
ATOM     31  O   UNL     1      -5.604  -4.948   0.206  0.00  0.00    -0.251 OA
BRANCH  30  33
ATOM     32  C   UNL     1      -7.229  -6.733   1.186  0.00  0.00    +0.280 C 
ATOM     33  O   UNL     1      -6.926  -5.522   1.881  0.00  0.00    -0.468 OA
ENDBRANCH  30  33
ENDBRANCH  29  30
ENDBRANCH  24  29
ENDBRANCH   1  24
TORSDOF 7
