REMARK  Name = ZINC09346589
REMARK  6 active torsions:
REMARK  status: ('A' for Active; 'I' for Inactive)
REMARK    1  A    between atoms: C_1  and  O_2
REMARK    2  A    between atoms: O_2  and  C_3
REMARK    3  A    between atoms: C_6  and  C_10
REMARK    4  A    between atoms: C_8  and  O_9
REMARK    5  A    between atoms: C_12  and  C_29
REMARK    6  A    between atoms: N_16  and  C_21
REMARK                            x       y       z     vdW  Elec       q    Type
REMARK                         _______ _______ _______ _____ _____    ______ ____
ROOT
ATOM      1  C   UNL     1       3.277   5.765  -0.013  0.00  0.00    +0.163 A 
ATOM      2  N   UNL     1       4.564   6.073  -0.023  0.00  0.00    -0.220 NA
ATOM      3  C   UNL     1       5.497   5.120  -0.023  0.00  0.00    +0.154 A 
ATOM      4  C   UNL     1       5.088   3.785  -0.027  0.00  0.00    +0.117 A 
ATOM      5  C   UNL     1       3.709   3.504  -0.020  0.00  0.00    +0.170 A 
ATOM      6  N   UNL     1       2.849   4.508  -0.012  0.00  0.00    -0.208 NA
ATOM      7  N   UNL     1       3.587   2.126  -0.021  0.00  0.00    -0.245 N 
ATOM      8  C   UNL     1       4.822   1.588  -0.037  0.00  0.00    +0.333 A 
ATOM      9  O   UNL     1       5.066   0.397  -0.046  0.00  0.00    -0.246 OA
ATOM     10  N   UNL     1       5.745   2.569  -0.040  0.00  0.00    -0.303 N 
ATOM     11  H   UNL     1       6.707   2.443  -0.051  0.00  0.00    +0.171 HD
ENDROOT
BRANCH   7  12
ATOM     12  C   UNL     1       2.381   1.410  -0.013  0.00  0.00    +0.054 A 
ATOM     13  C   UNL     1       2.397   0.022  -0.022  0.00  0.00    +0.028 A 
ATOM     14  C   UNL     1       1.208  -0.682  -0.014  0.00  0.00    +0.023 A 
ATOM     15  C   UNL     1       0.002  -0.004   0.002  0.00  0.00    +0.059 A 
ATOM     16  C   UNL     1      -0.017   1.381   0.010  0.00  0.00    +0.061 A 
ATOM     17  C   UNL     1       1.171   2.089   0.002  0.00  0.00    +0.047 A 
ATOM     18 CL   UNL     1      -1.532   2.228   0.021  0.00  0.00    -0.082 Cl
ATOM     19 CL   UNL     1      -1.490  -0.891   0.011  0.00  0.00    -0.082 Cl
ENDBRANCH   7  12
BRANCH   1  23
ATOM     20  C   UNL     1       0.406   8.907   0.013  0.00  0.00    +0.161 A 
ATOM     21  C   UNL     1      -0.012   7.585   0.015  0.00  0.00    +0.050 A 
ATOM     22  C   UNL     1       0.916   6.565   0.001  0.00  0.00    +0.015 A 
ATOM     23  C   UNL     1       2.278   6.861  -0.004  0.00  0.00    +0.023 A 
ATOM     24  C   UNL     1       2.700   8.190  -0.005  0.00  0.00    +0.060 A 
ATOM     25  C   UNL     1       1.766   9.210   0.004  0.00  0.00    +0.159 A 
BRANCH  20  27
ATOM     26  C   UNL     1      -1.889   9.528   0.031  0.00  0.00    +0.277 C 
ATOM     27  O   UNL     1      -0.512   9.909   0.021  0.00  0.00    -0.491 OA
ENDBRANCH  20  27
BRANCH  25  28
ATOM     28  O   UNL     1       2.174  10.507   0.003  0.00  0.00    -0.503 OA
ATOM     29  H   UNL     1       2.286  10.883  -0.881  0.00  0.00    +0.292 HD
ENDBRANCH  25  28
ENDBRANCH   1  23
BRANCH   3  30
ATOM     30  C   UNL     1       6.936   5.470  -0.035  0.00  0.00    +0.262 C 
ATOM     31  O   UNL     1       7.775   4.591  -0.048  0.00  0.00    -0.269 OA
ATOM     32  N   UNL     1       7.315   6.763  -0.031  0.00  0.00    -0.324 N 
ATOM     33  H   UNL     1       6.645   7.465  -0.020  0.00  0.00    +0.145 HD
ATOM     34  H   UNL     1       8.258   6.992  -0.039  0.00  0.00    +0.145 HD
ENDBRANCH   3  30
TORSDOF 5
