REMARK  Name = ZINC16918607
REMARK  11 active torsions:
REMARK  status: ('A' for Active; 'I' for Inactive)
REMARK    1  A    between atoms: C_1  and  C_2
REMARK    2  A    between atoms: C_2  and  C_3
REMARK    3  A    between atoms: C_3  and  C_5
REMARK    4  A    between atoms: C_3  and  O_7
REMARK    5  A    between atoms: O_7  and  C_8
REMARK    6  A    between atoms: C_11  and  C_17
REMARK    7  A    between atoms: C_13  and  O_14
REMARK    8  A    between atoms: O_14  and  C_15
REMARK    9  A    between atoms: C_15  and  C_16
REMARK   10  A    between atoms: N_21  and  N_25
REMARK   11  A    between atoms: C_26  and  C_28
REMARK                            x       y       z     vdW  Elec       q    Type
REMARK                         _______ _______ _______ _____ _____    ______ ____
ROOT
ATOM      1  C   UNL     1      -5.211  -0.023   2.062  0.00  0.00    +0.028 C 
ATOM      2  C   UNL     1      -5.133   0.821   1.002  0.00  0.00    +0.079 C 
ATOM      3  C   UNL     1      -4.933   2.284   0.976  0.00  0.00    +0.275 C 
ATOM      4  O   UNL     1      -4.808   2.931   1.999  0.00  0.00    -0.267 OA
ATOM      5  N   UNL     1      -4.897   2.856  -0.216  0.00  0.00    -0.169 N 
ATOM      6  C   UNL     1      -5.042   2.136  -1.348  0.00  0.00    +0.138 C 
ATOM      7  S   UNL     1      -5.032   2.689  -2.968  0.00  0.00    -0.026 S 
ATOM      8  S   UNL     1      -5.244   0.467  -0.747  0.00  0.00    -0.059 S 
ENDROOT
BRANCH   1  12
ATOM      9  C   UNL     1      -4.385   1.407   5.971  0.00  0.00    +0.163 A 
ATOM     10  C   UNL     1      -3.649   1.877   4.891  0.00  0.00    +0.050 A 
ATOM     11  C   UNL     1      -3.910   1.412   3.621  0.00  0.00    +0.012 A 
ATOM     12  C   UNL     1      -4.927   0.471   3.416  0.00  0.00    -0.020 A 
ATOM     13  C   UNL     1      -5.667  -0.002   4.506  0.00  0.00    +0.057 A 
ATOM     14  C   UNL     1      -5.395   0.466   5.776  0.00  0.00    +0.162 A 
BRANCH   9  15
ATOM     15  O   UNL     1      -4.119   1.865   7.222  0.00  0.00    -0.474 OA
BRANCH  15  16
ATOM     16  C   UNL     1      -2.991   2.730   7.370  0.00  0.00    +0.285 C 
BRANCH  16  17
ATOM     17  C   UNL     1      -3.409   4.151   7.094  0.00  0.00    +0.396 C 
ATOM     18  O   UNL     1      -4.572   4.410   6.889  0.00  0.00    -0.242 OA
ATOM     19  O   UNL     1      -2.491   5.130   7.075  0.00  0.00    -0.242 OA
ENDBRANCH  16  17
BRANCH  16  21
ATOM     20  C   UNL     1      -1.913   1.214   9.038  0.00  0.00    +0.008 C 
ATOM     21  C   UNL     1      -2.452   2.626   8.798  0.00  0.00    +0.053 C 
ENDBRANCH  16  21
ENDBRANCH  15  16
ENDBRANCH   9  15
BRANCH  14  22
ATOM     22  O   UNL     1      -6.112   0.008   6.837  0.00  0.00    -0.489 OA
BRANCH  22  23
ATOM     23  C   UNL     1      -7.132  -0.955   6.564  0.00  0.00    +0.226 C 
ATOM     24  C   UNL     1      -7.825  -1.348   7.870  0.00  0.00    +0.048 C 
ENDBRANCH  22  23
ENDBRANCH  14  22
ENDBRANCH   1  12
BRANCH   5  25
ATOM     25  N   UNL     1      -4.710   4.242  -0.305  0.00  0.00    -0.222 N 
ATOM     26  C   UNL     1      -3.518   4.737  -0.690  0.00  0.00    +0.262 C 
ATOM     27  O   UNL     1      -2.604   3.982  -0.959  0.00  0.00    -0.269 OA
ATOM     28  H   UNL     1      -5.440   4.844  -0.090  0.00  0.00    +0.174 HD
BRANCH  26  29
ATOM     29  C   UNL     1      -3.322   6.199  -0.790  0.00  0.00    +0.056 A 
ATOM     30  C   UNL     1      -2.088   6.727  -1.188  0.00  0.00    +0.016 A 
ATOM     31  C   UNL     1      -1.959   8.102  -1.270  0.00  0.00    +0.020 A 
ATOM     32  C   UNL     1      -3.039   8.904  -0.949  0.00  0.00    +0.111 A 
ATOM     33  N   UNL     1      -4.189   8.379  -0.572  0.00  0.00    -0.263 NA
ATOM     34  C   UNL     1      -4.363   7.077  -0.483  0.00  0.00    +0.123 A 
ENDBRANCH  26  29
ENDBRANCH   5  25
TORSDOF 9
