REMARK  Name = ZINC43769308
REMARK  10 active torsions:
REMARK  status: ('A' for Active; 'I' for Inactive)
REMARK    1  A    between atoms: C_1  and  C_2
REMARK    2  A    between atoms: C_2  and  C_3
REMARK    3  A    between atoms: C_2  and  C_4
REMARK    4  A    between atoms: C_2  and  O_5
REMARK    5  A    between atoms: O_5  and  C_6
REMARK    6  A    between atoms: N_8  and  N_9
REMARK    7  A    between atoms: C_10  and  C_11
REMARK    8  A    between atoms: C_11  and  C_12
REMARK    9  A    between atoms: C_14  and  C_22
REMARK   10  A    between atoms: C_16  and  C_18
REMARK                            x       y       z     vdW  Elec       q    Type
REMARK                         _______ _______ _______ _____ _____    ______ ____
ROOT
ATOM      1  N   UNL     1       2.024  -1.296  -3.385  0.00  0.00    -0.293 N 
ATOM      2  C   UNL     1       2.685  -1.680  -4.428  0.00  0.00    +0.087 C 
ATOM      3  N   UNL     1       4.001  -1.290  -4.596  0.00  0.00    -0.347 N 
ATOM      4  H   UNL     1       4.429  -0.728  -3.931  0.00  0.00    +0.143 HD
ATOM      5  H   UNL     1       4.497  -1.578  -5.378  0.00  0.00    +0.143 HD
ATOM      6  H   UNL     1       1.101  -1.570  -3.267  0.00  0.00    +0.186 HD
ENDROOT
BRANCH   1   9
ATOM      7  C   UNL     1       1.953  -0.085  -1.337  0.00  0.00    +0.419 C 
ATOM      8  O   UNL     1       2.489   0.619  -0.503  0.00  0.00    -0.225 OA
ATOM      9  N   UNL     1       2.642  -0.485  -2.424  0.00  0.00    -0.194 N 
ATOM     10  H   UNL     1       3.565  -0.211  -2.542  0.00  0.00    +0.178 HD
BRANCH   7  11
ATOM     11  O   UNL     1       0.671  -0.465  -1.174  0.00  0.00    -0.444 OA
BRANCH  11  13
ATOM     12  C   UNL     1      -0.019   1.526   0.010  0.00  0.00    +0.055 C 
ATOM     13  C   UNL     1       0.002  -0.004   0.002  0.00  0.00    +0.107 C 
ATOM     14  C   UNL     1       0.742  -0.511   1.242  0.00  0.00    +0.055 C 
ATOM     15  C   UNL     1      -1.433  -0.534   0.013  0.00  0.00    +0.055 C 
ENDBRANCH  11  13
ENDBRANCH   7  11
ENDBRANCH   1   9
BRANCH   2  16
ATOM     16  C   UNL     1       2.020  -2.553  -5.462  0.00  0.00    +0.105 C 
BRANCH  16  17
ATOM     17  C   UNL     1       2.232  -4.002  -5.106  0.00  0.00    -0.039 A 
ATOM     18  C   UNL     1       3.342  -4.675  -5.580  0.00  0.00    +0.016 A 
ATOM     19  C   UNL     1       3.536  -6.005  -5.254  0.00  0.00    +0.056 A 
ATOM     20  C   UNL     1       2.619  -6.660  -4.454  0.00  0.00    +0.024 A 
ATOM     21  C   UNL     1       1.509  -5.987  -3.979  0.00  0.00    +0.056 A 
ATOM     22  C   UNL     1       1.318  -4.657  -4.302  0.00  0.00    +0.016 A 
BRANCH  21  23
ATOM     23  C   UNL     1       0.509  -6.702  -3.107  0.00  0.00    +0.417 C 
ATOM     24  F   UNL     1       0.918  -8.027  -2.920  0.00  0.00    -0.166 F 
ATOM     25  F   UNL     1       0.428  -6.059  -1.867  0.00  0.00    -0.166 F 
ATOM     26  F   UNL     1      -0.745  -6.685  -3.725  0.00  0.00    -0.166 F 
ENDBRANCH  21  23
BRANCH  19  27
ATOM     27  C   UNL     1       4.746  -6.739  -5.771  0.00  0.00    +0.417 C 
ATOM     28  F   UNL     1       5.798  -6.604  -4.859  0.00  0.00    -0.166 F 
ATOM     29  F   UNL     1       4.437  -8.094  -5.929  0.00  0.00    -0.166 F 
ATOM     30  F   UNL     1       5.127  -6.200  -7.004  0.00  0.00    -0.166 F 
ENDBRANCH  19  27
ENDBRANCH  16  17
ENDBRANCH   2  16
TORSDOF 7
