REMARK  Name = ZINC09924196
REMARK  11 active torsions:
REMARK  status: ('A' for Active; 'I' for Inactive)
REMARK    1  A    between atoms: C_1  and  C_2
REMARK    2  A    between atoms: C_5  and  N_9
REMARK    3  A    between atoms: C_6  and  C_8
REMARK    4  A    between atoms: C_12  and  C_15
REMARK    5  A    between atoms: C_15  and  O_16
REMARK    6  A    between atoms: O_16  and  C_17
REMARK    7  A    between atoms: C_17  and  C_19
REMARK    8  A    between atoms: C_22  and  N_28
REMARK    9  A    between atoms: C_23  and  N_25
REMARK   10  A    between atoms: N_28  and  C_29
REMARK   11  A    between atoms: C_30  and  C_32
REMARK                            x       y       z     vdW  Elec       q    Type
REMARK                         _______ _______ _______ _____ _____    ______ ____
ROOT
ATOM      1  N   UNL     1      -1.391   2.295  -4.879  0.00  0.00    -0.219 N 
ATOM      2  C   UNL     1      -1.593   2.398  -3.506  0.00  0.00    +0.172 A 
ATOM      3  N   UNL     1      -0.881   1.883  -2.523  0.00  0.00    -0.226 NA
ATOM      4  C   UNL     1      -1.214   2.079  -1.262  0.00  0.00    +0.088 A 
ATOM      5  C   UNL     1      -2.314   2.824  -0.993  0.00  0.00    +0.075 A 
ATOM      6  S   UNL     1      -2.846   3.240  -2.648  0.00  0.00    -0.060 S 
ATOM      7  C   UNL     1      -0.347   1.588  -5.355  0.00  0.00    +0.223 C 
ATOM      8  O   UNL     1       0.416   1.041  -4.587  0.00  0.00    -0.275 OA
ATOM      9  C   UNL     1      -0.129   1.476  -6.842  0.00  0.00    +0.110 C 
ENDROOT
BRANCH   1  14
ATOM     10  C   UNL     1      -4.962   4.851  -8.472  0.00  0.00    +0.044 C 
ATOM     11  C   UNL     1      -4.014   4.172  -7.518  0.00  0.00    -0.050 A 
ATOM     12  C   UNL     1      -2.899   4.848  -7.055  0.00  0.00    +0.005 A 
ATOM     13  C   UNL     1      -2.031   4.231  -6.176  0.00  0.00    +0.024 A 
ATOM     14  C   UNL     1      -2.272   2.926  -5.766  0.00  0.00    +0.046 A 
ATOM     15  C   UNL     1      -3.392   2.250  -6.232  0.00  0.00    -0.028 A 
ATOM     16  C   UNL     1      -4.260   2.875  -7.107  0.00  0.00    +0.008 A 
ATOM     17  C   UNL     1      -3.660   0.837  -5.785  0.00  0.00    +0.046 C 
ENDBRANCH   1  14
BRANCH   4  18
ATOM     18  C   UNL     1      -0.394   1.484  -0.147  0.00  0.00    +0.288 C 
BRANCH  18  19
ATOM     19  O   UNL     1      -0.977   1.851   1.131  0.00  0.00    -0.455 OA
BRANCH  19  20
ATOM     20  C   UNL     1      -0.359   1.396   2.239  0.00  0.00    +0.340 C 
ATOM     21  O   UNL     1       0.639   0.711   2.140  0.00  0.00    -0.245 OA
BRANCH  20  22
ATOM     22  C   UNL     1      -0.895   1.730   3.571  0.00  0.00    +0.061 A 
ATOM     23  C   UNL     1      -2.041   2.523   3.688  0.00  0.00    +0.017 A 
ATOM     24  C   UNL     1      -2.540   2.827   4.922  0.00  0.00    +0.026 A 
ATOM     25  C   UNL     1      -1.904   2.358   6.069  0.00  0.00    +0.058 A 
ATOM     26  C   UNL     1      -0.760   1.573   5.963  0.00  0.00    +0.148 A 
ATOM     27  C   UNL     1      -0.255   1.258   4.722  0.00  0.00    +0.049 A 
BRANCH  26  28
ATOM     28  N   UNL     1      -0.087   1.075   7.184  0.00  0.00    +0.058 N 
ATOM     29  O   UNL     1       0.846   0.298   7.092  0.00  0.00    -0.126 OA
ATOM     30  O   UNL     1      -0.466   1.444   8.281  0.00  0.00    -0.126 OA
ENDBRANCH  26  28
BRANCH  25  31
ATOM     31  N   UNL     1      -2.414   2.676   7.323  0.00  0.00    -0.345 N 
ATOM     32  C   UNL     1      -3.686   3.394   7.436  0.00  0.00    +0.125 C 
ATOM     33  H   UNL     1      -1.928   2.422   8.123  0.00  0.00    +0.146 HD
ENDBRANCH  25  31
ENDBRANCH  20  22
ENDBRANCH  19  20
ENDBRANCH  18  19
ENDBRANCH   4  18
TORSDOF 7
