REMARK  Name = ZINC39896566
REMARK  11 active torsions:
REMARK  status: ('A' for Active; 'I' for Inactive)
REMARK    1  A    between atoms: C_1  and  C_2
REMARK    2  A    between atoms: C_2  and  C_3
REMARK    3  A    between atoms: C_6  and  N_9
REMARK    4  A    between atoms: C_12  and  C_31
REMARK    5  A    between atoms: C_16  and  C_17
REMARK    6  A    between atoms: C_16  and  C_19
REMARK    7  A    between atoms: N_21  and  C_22
REMARK    8  A    between atoms: C_22  and  C_24
REMARK    9  A    between atoms: C_22  and  C_25
REMARK   10  A    between atoms: C_31  and  C_32
REMARK   11  A    between atoms: C_37  and  C_38
REMARK                            x       y       z     vdW  Elec       q    Type
REMARK                         _______ _______ _______ _____ _____    ______ ____
ROOT
ATOM      1  N   UNL     1      -4.855  -2.797  -0.510  0.00  0.00    -0.232 N 
ATOM      2  C   UNL     1      -5.355  -3.403   0.554  0.00  0.00    +0.238 C 
ATOM      3  O   UNL     1      -4.712  -3.557   1.570  0.00  0.00    -0.274 OA
ATOM      4  C   UNL     1      -6.789  -3.892   0.423  0.00  0.00    +0.143 C 
ATOM      5  S   UNL     1      -7.159  -3.358  -1.299  0.00  0.00    -0.095 S 
ATOM      6  C   UNL     1      -5.577  -2.612  -1.664  0.00  0.00    +0.098 C 
ATOM      7  C   UNL     1      -5.170  -1.990  -2.844  0.00  0.00    +0.141 C 
ENDROOT
BRANCH   1  11
ATOM      8  C   UNL     1      -0.939  -1.379  -0.351  0.00  0.00    -0.048 A 
ATOM      9  C   UNL     1      -1.226  -2.538  -1.049  0.00  0.00    +0.005 A 
ATOM     10  C   UNL     1      -2.522  -3.011  -1.103  0.00  0.00    +0.024 A 
ATOM     11  C   UNL     1      -3.539  -2.321  -0.456  0.00  0.00    +0.042 A 
ATOM     12  C   UNL     1      -3.248  -1.158   0.244  0.00  0.00    +0.024 A 
ATOM     13  C   UNL     1      -1.948  -0.693   0.299  0.00  0.00    +0.005 A 
BRANCH   8  15
ATOM     14  C   UNL     1       1.157  -1.385   0.974  0.00  0.00    +0.009 C 
ATOM     15  C   UNL     1       0.477  -0.866  -0.294  0.00  0.00    +0.032 C 
ENDBRANCH   8  15
ENDBRANCH   1  11
BRANCH   7  16
ATOM     16  C   UNL     1      -3.867  -1.328  -2.910  0.00  0.00    +0.257 C 
ATOM     17  O   UNL     1      -2.915  -1.906  -3.402  0.00  0.00    -0.269 OA
ATOM     18  N   UNL     1      -3.720  -0.079  -2.426  0.00  0.00    -0.304 N 
ATOM     19  H   UNL     1      -4.455   0.350  -1.959  0.00  0.00    +0.150 HD
BRANCH  18  20
ATOM     20  C   UNL     1      -2.451   0.631  -2.604  0.00  0.00    +0.100 C 
ATOM     21  C   UNL     1      -2.396   1.232  -4.010  0.00  0.00    +0.033 C 
BRANCH  20  22
ATOM     22  C   UNL     1      -2.345   1.734  -1.582  0.00  0.00    -0.027 A 
ATOM     23  C   UNL     1      -3.471   2.446  -1.214  0.00  0.00    +0.005 A 
ATOM     24  C   UNL     1      -3.374   3.457  -0.277  0.00  0.00    +0.000 A 
ATOM     25  C   UNL     1      -2.150   3.756   0.293  0.00  0.00    +0.000 A 
ATOM     26  C   UNL     1      -1.024   3.044  -0.075  0.00  0.00    +0.000 A 
ATOM     27  C   UNL     1      -1.123   2.030  -1.009  0.00  0.00    +0.005 A 
ENDBRANCH  20  22
ENDBRANCH  18  20
ENDBRANCH   7  16
BRANCH   7  28
ATOM     28  C   UNL     1      -6.027  -1.998  -3.991  0.00  0.00    +0.107 C 
ATOM     29  N   UNL     1      -6.708  -2.005  -4.901  0.00  0.00    -0.191 NA
ENDBRANCH   7  28
BRANCH   4  30
ATOM     30  C   UNL     1      -6.870  -5.414   0.563  0.00  0.00    +0.059 C 
BRANCH  30  31
ATOM     31  C   UNL     1      -8.314  -5.845   0.519  0.00  0.00    -0.043 A 
ATOM     32  C   UNL     1      -8.846  -6.362  -0.647  0.00  0.00    +0.004 A 
ATOM     33  C   UNL     1     -10.170  -6.758  -0.687  0.00  0.00    +0.000 A 
ATOM     34  C   UNL     1     -10.961  -6.638   0.440  0.00  0.00    +0.000 A 
ATOM     35  C   UNL     1     -10.429  -6.123   1.607  0.00  0.00    +0.003 A 
ATOM     36  C   UNL     1      -9.103  -5.731   1.648  0.00  0.00    -0.047 A 
ATOM     37  C   UNL     1      -8.521  -5.174   2.922  0.00  0.00    +0.044 C 
ENDBRANCH  30  31
ENDBRANCH   4  30
TORSDOF 8
