REMARK  Name = ZINC00876244
REMARK  8 active torsions:
REMARK  status: ('A' for Active; 'I' for Inactive)
REMARK    1  A    between atoms: C_4  and  N_7
REMARK    2  A    between atoms: C_8  and  C_26
REMARK    3  A    between atoms: C_11  and  S_12
REMARK    4  A    between atoms: S_12  and  C_13
REMARK    5  A    between atoms: C_13  and  C_14
REMARK    6  A    between atoms: C_26  and  O_27
REMARK    7  A    between atoms: O_27  and  C_28
REMARK    8  A    between atoms: C_31  and  N_34
REMARK                            x       y       z     vdW  Elec       q    Type
REMARK                         _______ _______ _______ _____ _____    ______ ____
ROOT
ATOM      1  N   UNL     1      -4.580   7.237  -2.203  0.00  0.00    -0.271 N 
ATOM      2  C   UNL     1      -5.502   7.987  -1.522  0.00  0.00    +0.176 A 
ATOM      3  N   UNL     1      -5.071   8.115  -0.299  0.00  0.00    -0.130 NA
ATOM      4  N   UNL     1      -3.952   7.499  -0.159  0.00  0.00    -0.122 NA
ATOM      5  C   UNL     1      -3.599   6.946  -1.296  0.00  0.00    +0.197 A 
ENDROOT
BRANCH   1   9
ATOM      6  C   UNL     1      -4.733   6.083  -6.207  0.00  0.00    +0.000 A 
ATOM      7  C   UNL     1      -4.795   5.127  -5.210  0.00  0.00    +0.002 A 
ATOM      8  C   UNL     1      -4.745   5.506  -3.883  0.00  0.00    +0.026 A 
ATOM      9  C   UNL     1      -4.632   6.849  -3.550  0.00  0.00    +0.050 A 
ATOM     10  C   UNL     1      -4.575   7.807  -4.553  0.00  0.00    +0.026 A 
ATOM     11  C   UNL     1      -4.620   7.421  -5.878  0.00  0.00    +0.002 A 
ENDBRANCH   1   9
BRANCH   5  12
ATOM     12  S   UNL     1      -2.142   6.002  -1.595  0.00  0.00    -0.081 S 
BRANCH  12  13
ATOM     13  C   UNL     1      -1.381   6.069   0.046  0.00  0.00    +0.113 C 
BRANCH  13  14
ATOM     14  C   UNL     1      -0.083   5.305   0.030  0.00  0.00    -0.023 A 
ATOM     15  C   UNL     1       1.105   5.959   0.022  0.00  0.00    +0.075 A 
ATOM     16  C   UNL     1       2.316   5.233   0.007  0.00  0.00    +0.249 A 
ATOM     17  O   UNL     1       3.373   5.840  -0.000  0.00  0.00    -0.268 OA
ATOM     18  N   UNL     1       2.333   3.889   0.001  0.00  0.00    -0.322 N 
ATOM     19  H   UNL     1       3.183   3.421  -0.009  0.00  0.00    +0.169 HD
ATOM     20  C   UNL     1       1.159   3.165   0.007  0.00  0.00    +0.049 A 
ATOM     21  C   UNL     1      -0.075   3.841   0.022  0.00  0.00    +0.003 A 
ATOM     22  C   UNL     1      -1.269   3.112   0.030  0.00  0.00    +0.010 A 
ATOM     23  C   UNL     1      -1.228   1.746   0.017  0.00  0.00    +0.001 A 
ATOM     24  C   UNL     1      -0.013   1.076   0.008  0.00  0.00    +0.002 A 
ATOM     25  C   UNL     1       1.176   1.774   0.000  0.00  0.00    +0.026 A 
ENDBRANCH  13  14
ENDBRANCH  12  13
ENDBRANCH   5  12
BRANCH   2  26
ATOM     26  C   UNL     1      -6.779   8.559  -2.083  0.00  0.00    +0.305 C 
BRANCH  26  27
ATOM     27  O   UNL     1      -7.839   7.616  -1.912  0.00  0.00    -0.484 OA
BRANCH  27  28
ATOM     28  C   UNL     1      -9.067   7.978  -2.368  0.00  0.00    +0.121 A 
ATOM     29  C   UNL     1      -9.249   9.219  -2.962  0.00  0.00    +0.048 A 
ATOM     30  C   UNL     1     -10.497   9.583  -3.428  0.00  0.00    +0.036 A 
ATOM     31  C   UNL     1     -11.567   8.717  -3.294  0.00  0.00    +0.126 A 
ATOM     32  C   UNL     1     -11.389   7.482  -2.698  0.00  0.00    +0.036 A 
ATOM     33  C   UNL     1     -10.141   7.111  -2.234  0.00  0.00    +0.048 A 
BRANCH  31  34
ATOM     34  N   UNL     1     -12.904   9.111  -3.790  0.00  0.00    +0.056 N 
ATOM     35  O   UNL     1     -13.847   8.349  -3.673  0.00  0.00    -0.126 OA
ATOM     36  O   UNL     1     -13.062  10.199  -4.316  0.00  0.00    -0.126 OA
ENDBRANCH  31  34
ENDBRANCH  27  28
ENDBRANCH  26  27
ENDBRANCH   2  26
TORSDOF 8
