REMARK  Name = ZINC08442849
REMARK  12 active torsions:
REMARK  status: ('A' for Active; 'I' for Inactive)
REMARK    1  A    between atoms: C_1  and  C_2
REMARK    2  A    between atoms: C_2  and  N_3
REMARK    3  A    between atoms: N_3  and  C_4
REMARK    4  A    between atoms: N_3  and  C_6
REMARK    5  A    between atoms: C_4  and  C_5
REMARK    6  A    between atoms: C_9  and  N_12
REMARK    7  A    between atoms: C_13  and  C_30
REMARK    8  A    between atoms: N_15  and  C_23
REMARK    9  A    between atoms: C_17  and  C_18
REMARK   10  A    between atoms: C_18  and  O_20
REMARK   11  A    between atoms: O_20  and  C_21
REMARK   12  A    between atoms: C_21  and  C_22
REMARK                            x       y       z     vdW  Elec       q    Type
REMARK                         _______ _______ _______ _____ _____    ______ ____
ROOT
ATOM      1  N   UNL     1       2.345   1.329  -0.067  0.00  0.00    -0.253 N 
ATOM      2  C   UNL     1       3.767   1.695   0.048  0.00  0.00    +0.221 C 
ATOM      3  N   UNL     1       4.469   0.401   0.068  0.00  0.00    -0.197 N 
ATOM      4  N   UNL     1       3.483  -0.587  -0.037  0.00  0.00    -0.154 NA
ATOM      5  C   UNL     1       2.296  -0.067  -0.112  0.00  0.00    +0.230 C 
ENDROOT
BRANCH   2   6
ATOM      6  C   UNL     1       4.016   2.449   1.328  0.00  0.00    -0.003 A 
ATOM      7  C   UNL     1       4.414   3.772   1.283  0.00  0.00    +0.011 A 
ATOM      8  C   UNL     1       4.644   4.468   2.455  0.00  0.00    +0.050 A 
ATOM      9  C   UNL     1       4.477   3.840   3.679  0.00  0.00    +0.166 A 
ATOM     10  C   UNL     1       4.077   2.507   3.724  0.00  0.00    +0.167 A 
ATOM     11  C   UNL     1       3.842   1.817   2.546  0.00  0.00    +0.056 A 
ATOM     12  O   UNL     1       3.985   2.124   5.031  0.00  0.00    -0.453 OA
ATOM     13  C   UNL     1       4.725   3.110   5.774  0.00  0.00    +0.466 C 
ATOM     14  O   UNL     1       4.636   4.292   4.957  0.00  0.00    -0.453 OA
ENDBRANCH   2   6
BRANCH   3  15
ATOM     15  C   UNL     1       5.846   0.199   0.168  0.00  0.00    +0.054 A 
ATOM     16  C   UNL     1       6.714   1.284   0.124  0.00  0.00    +0.026 A 
ATOM     17  C   UNL     1       8.076   1.082   0.228  0.00  0.00    +0.022 A 
ATOM     18  C   UNL     1       8.578  -0.201   0.363  0.00  0.00    +0.041 A 
ATOM     19  C   UNL     1       7.717  -1.284   0.402  0.00  0.00    +0.022 A 
ATOM     20  C   UNL     1       6.354  -1.088   0.304  0.00  0.00    +0.026 A 
ATOM     21 CL   UNL     1      10.291  -0.452   0.486  0.00  0.00    -0.084 Cl
ENDBRANCH   3  15
BRANCH   1  25
ATOM     22  C   UNL     1      -0.896   3.946  -0.239  0.00  0.00    +0.030 A 
ATOM     23  C   UNL     1      -0.196   3.630  -1.397  0.00  0.00    +0.025 A 
ATOM     24  C   UNL     1       0.874   2.760  -1.340  0.00  0.00    +0.025 A 
ATOM     25  C   UNL     1       1.257   2.207  -0.125  0.00  0.00    +0.038 A 
ATOM     26  C   UNL     1       0.560   2.527   1.034  0.00  0.00    +0.025 A 
ATOM     27  C   UNL     1      -0.514   3.393   0.976  0.00  0.00    +0.025 A 
BRANCH  22  28
ATOM     28  N   UNL     1      -1.984   4.824  -0.297  0.00  0.00    -0.330 N 
BRANCH  28  30
ATOM     29  C   UNL     1      -3.416   4.495  -2.252  0.00  0.00    +0.024 C 
ATOM     30  C   UNL     1      -2.388   5.407  -1.579  0.00  0.00    +0.102 C 
ENDBRANCH  28  30
BRANCH  28  31
ATOM     31  C   UNL     1      -2.720   5.161   0.924  0.00  0.00    +0.102 C 
ATOM     32  C   UNL     1      -2.088   6.393   1.576  0.00  0.00    +0.024 C 
ENDBRANCH  28  31
ENDBRANCH  22  28
ENDBRANCH   1  25
BRANCH   5  33
ATOM     33  C   UNL     1       1.059  -0.847  -0.230  0.00  0.00    +0.374 C 
ATOM     34  O   UNL     1      -0.013  -0.278  -0.309  0.00  0.00    -0.242 OA
BRANCH  33  35
ATOM     35  O   UNL     1       1.111  -2.195  -0.252  0.00  0.00    -0.459 OA
BRANCH  35  36
ATOM     36  C   UNL     1      -0.152  -2.901  -0.371  0.00  0.00    +0.229 C 
ATOM     37  C   UNL     1       0.105  -4.409  -0.379  0.00  0.00    +0.048 C 
ENDBRANCH  35  36
ENDBRANCH  33  35
ENDBRANCH   5  33
TORSDOF 9
