REMARK  Name = ZINC08771300
REMARK  7 active torsions:
REMARK  status: ('A' for Active; 'I' for Inactive)
REMARK    1  A    between atoms: C_4  and  N_7
REMARK    2  A    between atoms: C_8  and  C_10
REMARK    3  A    between atoms: C_10  and  C_11
REMARK    4  A    between atoms: N_15  and  C_26
REMARK    5  A    between atoms: N_17  and  C_18
REMARK    6  A    between atoms: C_26  and  C_27
REMARK    7  A    between atoms: C_27  and  C_28
REMARK                            x       y       z     vdW  Elec       q    Type
REMARK                         _______ _______ _______ _____ _____    ______ ____
ROOT
ATOM      1  C   UNL     1       4.610  -3.885  -0.310  0.00  0.00    +0.149 C 
ATOM      2  C   UNL     1       5.899  -4.465   0.249  0.00  0.00    +0.235 C 
ATOM      3  O   UNL     1       6.460  -3.983   1.210  0.00  0.00    -0.274 OA
ATOM      4  N   UNL     1       6.371  -5.529  -0.379  0.00  0.00    -0.249 N 
ATOM      5  C   UNL     1       5.740  -6.084  -1.472  0.00  0.00    +0.164 C 
ATOM      6  N   UNL     1       6.106  -7.130  -2.175  0.00  0.00    -0.224 NA
ATOM      7  S   UNL     1       4.305  -5.043  -1.707  0.00  0.00    -0.077 S 
ENDROOT
BRANCH   6   8
ATOM      8  C   UNL     1       7.404  -7.565  -2.129  0.00  0.00    +0.085 A 
ATOM      9  C   UNL     1       7.746  -8.668  -1.345  0.00  0.00    +0.029 A 
ATOM     10  C   UNL     1       9.055  -9.102  -1.302  0.00  0.00    +0.002 A 
ATOM     11  C   UNL     1      10.029  -8.447  -2.035  0.00  0.00    +0.002 A 
ATOM     12  C   UNL     1       9.698  -7.353  -2.815  0.00  0.00    +0.022 A 
ATOM     13  C   UNL     1       8.391  -6.911  -2.871  0.00  0.00    +0.066 A 
ATOM     14 CL   UNL     1       7.976  -5.543  -3.856  0.00  0.00    -0.081 Cl
ENDBRANCH   6   8
BRANCH   1  15
ATOM     15  C   UNL     1       4.817  -2.454  -0.811  0.00  0.00    +0.120 C 
BRANCH  15  17
ATOM     16  N   UNL     1       3.453  -0.656  -1.823  0.00  0.00    -0.285 N 
ATOM     17  C   UNL     1       3.511  -1.909  -1.328  0.00  0.00    +0.219 C 
ATOM     18  O   UNL     1       2.513  -2.597  -1.299  0.00  0.00    -0.275 OA
ATOM     19  H   UNL     1       4.267  -0.143  -1.941  0.00  0.00    +0.155 HD
BRANCH  16  23
ATOM     20  C   UNL     1      -0.226   1.010  -2.845  0.00  0.00    +0.000 A 
ATOM     21  C   UNL     1      -0.140   0.123  -1.788  0.00  0.00    +0.002 A 
ATOM     22  C   UNL     1       1.078  -0.431  -1.446  0.00  0.00    +0.023 A 
ATOM     23  C   UNL     1       2.217  -0.097  -2.167  0.00  0.00    +0.033 A 
ATOM     24  C   UNL     1       2.127   0.793  -3.228  0.00  0.00    +0.023 A 
ATOM     25  C   UNL     1       0.906   1.345  -3.564  0.00  0.00    +0.002 A 
ENDBRANCH  16  23
ENDBRANCH  15  17
ENDBRANCH   1  15
BRANCH   4  26
ATOM     26  C   UNL     1       7.611  -6.141   0.105  0.00  0.00    +0.120 C 
BRANCH  26  27
ATOM     27  C   UNL     1       7.287  -7.137   1.220  0.00  0.00    +0.056 C 
BRANCH  27  28
ATOM     28  C   UNL     1       8.568  -7.627   1.845  0.00  0.00    -0.021 A 
ATOM     29  C   UNL     1       9.126  -8.836   1.679  0.00  0.00    +0.087 A 
ATOM     30  N   UNL     1      10.285  -8.918   2.403  0.00  0.00    -0.360 N 
ATOM     31  H   UNL     1      10.864  -9.695   2.441  0.00  0.00    +0.165 HD
ATOM     32  C   UNL     1      10.505  -7.734   3.069  0.00  0.00    +0.047 A 
ATOM     33  C   UNL     1       9.443  -6.870   2.744  0.00  0.00    +0.003 A 
ATOM     34  C   UNL     1       9.405  -5.581   3.278  0.00  0.00    +0.010 A 
ATOM     35  C   UNL     1      10.403  -5.162   4.112  0.00  0.00    +0.001 A 
ATOM     36  C   UNL     1      11.456  -6.008   4.432  0.00  0.00    +0.002 A 
ATOM     37  C   UNL     1      11.508  -7.288   3.924  0.00  0.00    +0.026 A 
ENDBRANCH  27  28
ENDBRANCH  26  27
ENDBRANCH   4  26
TORSDOF 7
