REMARK  Name = ZINC40701786
REMARK  4 active torsions:
REMARK  status: ('A' for Active; 'I' for Inactive)
REMARK    1  A    between atoms: C_4  and  N_11
REMARK    2  A    between atoms: C_5  and  C_7
REMARK    3  A    between atoms: C_13  and  N_24
REMARK    4  A    between atoms: C_14  and  N_18
REMARK                            x       y       z     vdW  Elec       q    Type
REMARK                         _______ _______ _______ _____ _____    ______ ____
ROOT
ATOM      1  N   UNL     1       3.620  -0.650  -0.036  0.00  0.00    -0.297 N 
ATOM      2  C   UNL     1       4.811   0.060  -0.149  0.00  0.00    +0.149 A 
ATOM      3  C   UNL     1       6.028  -0.613  -0.277  0.00  0.00    +0.106 A 
ATOM      4  C   UNL     1       7.193   0.148  -0.387  0.00  0.00    +0.150 A 
ATOM      5  N   UNL     1       7.100   1.476  -0.367  0.00  0.00    -0.219 NA
ATOM      6  C   UNL     1       5.931   2.071  -0.245  0.00  0.00    +0.225 A 
ATOM      7  N   UNL     1       4.807   1.391  -0.143  0.00  0.00    -0.219 NA
ATOM      8  H   UNL     1       3.638  -1.616   0.042  0.00  0.00    +0.154 HD
ENDROOT
BRANCH   4   9
ATOM      9  N   UNL     1       8.432  -0.471  -0.516  0.00  0.00    -0.277 N 
ATOM     10  C   UNL     1       9.583   0.296  -0.625  0.00  0.00    +0.163 A 
ATOM     11  N   UNL     1       9.695   1.607  -0.620  0.00  0.00    -0.233 NA
ATOM     12  C   UNL     1      10.875   2.191  -0.734  0.00  0.00    +0.120 A 
ATOM     13  C   UNL     1      11.954   1.380  -0.856  0.00  0.00    +0.068 A 
ATOM     14  S   UNL     1      11.175  -0.225  -0.788  0.00  0.00    -0.061 S 
ATOM     15  H   UNL     1       8.491  -1.439  -0.529  0.00  0.00    +0.156 HD
ENDBRANCH   4   9
BRANCH   1  19
ATOM     16  C   UNL     1      -0.019   1.375  -0.035  0.00  0.00    +0.001 A 
ATOM     17  C   UNL     1       1.088   1.946  -0.635  0.00  0.00    +0.002 A 
ATOM     18  C   UNL     1       2.296   1.278  -0.638  0.00  0.00    +0.024 A 
ATOM     19  C   UNL     1       2.399   0.030  -0.035  0.00  0.00    +0.044 A 
ATOM     20  C   UNL     1       1.285  -0.541   0.567  0.00  0.00    +0.076 A 
ATOM     21  C   UNL     1       0.080   0.133   0.566  0.00  0.00    +0.014 A 
BRANCH  20  22
ATOM     22  C   UNL     1       1.392  -1.895   1.221  0.00  0.00    +0.419 C 
ATOM     23  F   UNL     1       0.149  -2.255   1.753  0.00  0.00    -0.166 F 
ATOM     24  F   UNL     1       1.784  -2.842   0.270  0.00  0.00    -0.166 F 
ATOM     25  F   UNL     1       2.342  -1.843   2.247  0.00  0.00    -0.166 F 
ENDBRANCH  20  22
ENDBRANCH   1  19
BRANCH   3  26
ATOM     26  N   UNL     1       6.079  -2.015  -0.292  0.00  0.00    -0.353 N 
ATOM     27  H   UNL     1       5.261  -2.531  -0.214  0.00  0.00    +0.143 HD
ATOM     28  H   UNL     1       6.931  -2.469  -0.381  0.00  0.00    +0.143 HD
ENDBRANCH   3  26
TORSDOF 4
