REMARK  Name = ZINC51296518
REMARK  3 active torsions:
REMARK  status: ('A' for Active; 'I' for Inactive)
REMARK    1  A    between atoms: C_6  and  N_7
REMARK    2  A    between atoms: N_8  and  S_12
REMARK    3  A    between atoms: S_12  and  C_15
REMARK                            x       y       z     vdW  Elec       q    Type
REMARK                         _______ _______ _______ _____ _____    ______ ____
ROOT
ATOM      1  C   UNL     1      -0.371   0.944  -0.319  0.00  0.00    +0.023 A 
ATOM      2  C   UNL     1       0.727   1.780  -0.278  0.00  0.00    +0.007 A 
ATOM      3  C   UNL     1       2.006   1.253  -0.200  0.00  0.00    -0.025 A 
ATOM      4  C   UNL     1       2.181  -0.122  -0.161  0.00  0.00    +0.056 A 
ATOM      5  C   UNL     1       1.079  -0.967  -0.204  0.00  0.00    +0.047 A 
ATOM      6  C   UNL     1      -0.200  -0.434  -0.283  0.00  0.00    +0.026 A 
ATOM      7  N   UNL     1       3.462  -0.680  -0.073  0.00  0.00    -0.203 N 
ATOM      8  C   UNL     1       4.628   0.177  -0.324  0.00  0.00    +0.132 C 
ATOM      9  C   UNL     1       4.408   1.500   0.422  0.00  0.00    +0.025 C 
ATOM     10  C   UNL     1       3.179   2.197  -0.162  0.00  0.00    +0.038 C 
ENDROOT
BRANCH   6  11
ATOM     11  N   UNL     1      -1.310  -1.280  -0.327  0.00  0.00    -0.358 N 
ATOM     12  H   UNL     1      -2.203  -0.906  -0.382  0.00  0.00    +0.142 HD
ATOM     13  H   UNL     1      -1.188  -2.242  -0.302  0.00  0.00    +0.142 HD
ENDBRANCH   6  11
BRANCH   7  14
ATOM     14  S   UNL     1       3.659  -2.279   0.309  0.00  0.00    +0.077 S 
ATOM     15  O   UNL     1       2.733  -3.004  -0.489  0.00  0.00    -0.150 OA
ATOM     16  O   UNL     1       5.056  -2.535   0.277  0.00  0.00    -0.150 OA
BRANCH  14  17
ATOM     17  C   UNL     1       3.148  -2.482   1.983  0.00  0.00    +0.135 A 
ATOM     18  C   UNL     1       2.035  -3.244   2.290  0.00  0.00    +0.058 A 
ATOM     19  C   UNL     1       1.671  -3.380   3.589  0.00  0.00    +0.081 A 
ATOM     20  S   UNL     1       2.917  -2.413   4.427  0.00  0.00    -0.063 S 
ATOM     21  C   UNL     1       3.843  -1.898   2.990  0.00  0.00    +0.106 A 
ATOM     22 CL   UNL     1       5.264  -0.905   2.905  0.00  0.00    -0.074 Cl
ATOM     23 CL   UNL     1       0.337  -4.263   4.263  0.00  0.00    -0.076 Cl
ENDBRANCH  14  17
ENDBRANCH   7  14
TORSDOF 3
