REMARK  Name = ZINC33568531
REMARK  6 active torsions:
REMARK  status: ('A' for Active; 'I' for Inactive)
REMARK    1  A    between atoms: C_4  and  C_7
REMARK    2  A    between atoms: C_9  and  C_32
REMARK    3  A    between atoms: N_10  and  C_12
REMARK    4  A    between atoms: C_15  and  C_18
REMARK    5  A    between atoms: N_22  and  C_26
REMARK    6  A    between atoms: C_26  and  C_27
REMARK                            x       y       z     vdW  Elec       q    Type
REMARK                         _______ _______ _______ _____ _____    ______ ____
ROOT
ATOM      1  C   UNL     1      -6.196   1.395   7.977  0.00  0.00    +0.066 A 
ATOM      2  C   UNL     1      -6.957   2.485   7.564  0.00  0.00    +0.028 A 
ATOM      3  C   UNL     1      -6.783   3.010   6.304  0.00  0.00    +0.010 A 
ATOM      4  C   UNL     1      -5.840   2.446   5.437  0.00  0.00    -0.024 A 
ATOM      5  C   UNL     1      -5.080   1.345   5.855  0.00  0.00    +0.010 A 
ATOM      6  C   UNL     1      -5.257   0.831   7.119  0.00  0.00    +0.028 A 
ENDROOT
BRANCH   4   7
ATOM      7  C   UNL     1      -5.651   3.002   4.091  0.00  0.00    +0.028 C 
ATOM      8  C   UNL     1      -4.515   2.734   3.399  0.00  0.00    +0.077 C 
ATOM      9  C   UNL     1      -4.163   3.062   2.002  0.00  0.00    +0.259 C 
ATOM     10  O   UNL     1      -4.933   3.659   1.272  0.00  0.00    -0.269 OA
ATOM     11  N   UNL     1      -2.970   2.673   1.584  0.00  0.00    -0.248 N 
ATOM     12  C   UNL     1      -2.123   2.006   2.394  0.00  0.00    +0.121 C 
ATOM     13  S   UNL     1      -0.554   1.419   2.040  0.00  0.00    -0.027 S 
ATOM     14  S   UNL     1      -3.032   1.886   3.927  0.00  0.00    -0.061 S 
BRANCH  11  15
ATOM     15  C   UNL     1      -2.562   2.968   0.208  0.00  0.00    +0.189 C 
BRANCH  15  16
ATOM     16  C   UNL     1      -1.869   4.305   0.166  0.00  0.00    +0.122 A 
ATOM     17  C   UNL     1      -0.549   4.512   0.322  0.00  0.00    +0.046 A 
ATOM     18  C   UNL     1      -0.337   5.905   0.204  0.00  0.00    +0.041 A 
ATOM     19  C   UNL     1      -1.540   6.466  -0.013  0.00  0.00    +0.195 A 
ATOM     20  O   UNL     1      -2.465   5.492  -0.032  0.00  0.00    -0.466 OA
ENDBRANCH  15  16
ENDBRANCH  11  15
ENDBRANCH   4   7
BRANCH   1  24
ATOM     21  C   UNL     1      -6.629   0.755  11.445  0.00  0.00    +0.094 A 
ATOM     22  C   UNL     1      -6.654  -0.549  10.922  0.00  0.00    +0.058 A 
ATOM     23  C   UNL     1      -6.496  -0.460   9.571  0.00  0.00    +0.075 A 
ATOM     24  N   UNL     1      -6.375   0.866   9.258  0.00  0.00    -0.232 N 
ATOM     25  N   UNL     1      -6.457   1.599  10.448  0.00  0.00    -0.166 NA
BRANCH  21  29
ATOM     26  C   UNL     1      -7.024   1.799  15.549  0.00  0.00    +0.000 A 
ATOM     27  C   UNL     1      -6.853   2.790  14.599  0.00  0.00    +0.001 A 
ATOM     28  C   UNL     1      -6.724   2.457  13.266  0.00  0.00    +0.010 A 
ATOM     29  C   UNL     1      -6.767   1.119  12.877  0.00  0.00    +0.002 A 
ATOM     30  C   UNL     1      -6.944   0.126  13.838  0.00  0.00    +0.010 A 
ATOM     31  C   UNL     1      -7.067   0.470  15.169  0.00  0.00    +0.001 A 
ENDBRANCH  21  29
BRANCH  23  32
ATOM     32  C   UNL     1      -6.461  -1.590   8.617  0.00  0.00    +0.000 A 
ATOM     33  C   UNL     1      -6.826  -1.394   7.285  0.00  0.00    +0.010 A 
ATOM     34  C   UNL     1      -6.786  -2.451   6.399  0.00  0.00    +0.001 A 
ATOM     35  C   UNL     1      -6.396  -3.706   6.832  0.00  0.00    +0.000 A 
ATOM     36  C   UNL     1      -6.038  -3.908   8.153  0.00  0.00    +0.001 A 
ATOM     37  C   UNL     1      -6.069  -2.858   9.047  0.00  0.00    +0.010 A 
ENDBRANCH  23  32
ENDBRANCH   1  24
TORSDOF 6
