REMARK  Name = ZINC63540992
REMARK  10 active torsions:
REMARK  status: ('A' for Active; 'I' for Inactive)
REMARK    1  A    between atoms: C_1  and  C_2
REMARK    2  A    between atoms: C_6  and  N_9
REMARK    3  A    between atoms: C_7  and  C_8
REMARK    4  A    between atoms: N_12  and  C_15
REMARK    5  A    between atoms: C_15  and  C_17
REMARK    6  A    between atoms: C_15  and  C_18
REMARK    7  A    between atoms: N_20  and  C_21
REMARK    8  A    between atoms: C_29  and  C_31
REMARK    9  A    between atoms: C_31  and  O_33
REMARK   10  A    between atoms: O_33  and  C_34
REMARK                            x       y       z     vdW  Elec       q    Type
REMARK                         _______ _______ _______ _____ _____    ______ ____
ROOT
ATOM      1  C   UNL     1       1.345  -3.077   8.015  0.00  0.00    +0.234 C 
ATOM      2  O   UNL     1       1.720  -3.811   7.125  0.00  0.00    -0.274 OA
ATOM      3  N   UNL     1       1.906  -3.161   9.238  0.00  0.00    -0.285 N 
ATOM      4  H   UNL     1       1.558  -2.626   9.969  0.00  0.00    +0.155 HD
ENDROOT
BRANCH   3   5
ATOM      5  C   UNL     1       2.961  -3.997   9.448  0.00  0.00    +0.053 C 
ATOM      6  C   UNL     1       3.575  -4.280  10.656  0.00  0.00    +0.019 A 
ATOM      7  C   UNL     1       3.335  -3.833  11.977  0.00  0.00    +0.026 A 
ATOM      8  C   UNL     1       4.112  -4.287  12.992  0.00  0.00    +0.019 A 
ATOM      9  C   UNL     1       5.154  -5.193  12.769  0.00  0.00    +0.017 A 
ATOM     10  C   UNL     1       5.440  -5.663  11.531  0.00  0.00    +0.027 A 
ATOM     11  C   UNL     1       4.672  -5.234  10.417  0.00  0.00    +0.045 A 
ATOM     12  N   UNL     1       4.748  -5.537   9.137  0.00  0.00    -0.367 N 
ATOM     13  C   UNL     1       3.700  -4.812   8.410  0.00  0.00    +0.234 C 
ATOM     14 BR   UNL     1       3.779  -3.680  14.752  0.00  0.00    -0.050 Br
ATOM     15  H   UNL     1       5.391  -6.144   8.739  0.00  0.00    +0.161 HD
BRANCH  13  16
ATOM     16  C   UNL     1       4.321  -3.903   7.381  0.00  0.00    +0.335 C 
ATOM     17  O   UNL     1       5.393  -3.389   7.597  0.00  0.00    -0.248 OA
BRANCH  16  18
ATOM     18  O   UNL     1       3.683  -3.665   6.224  0.00  0.00    -0.466 OA
ATOM     19  C   UNL     1       4.329  -2.793   5.295  0.00  0.00    +0.280 C 
ENDBRANCH  16  18
ENDBRANCH  13  16
ENDBRANCH   3   5
BRANCH   1  20
ATOM     20  C   UNL     1       0.253  -2.072   7.754  0.00  0.00    +0.140 C 
ATOM     21  C   UNL     1      -1.070  -2.601   8.311  0.00  0.00    +0.034 C 
BRANCH  20  25
ATOM     22  N   UNL     1      -1.058  -1.530   3.804  0.00  0.00    -0.327 N 
ATOM     23  C   UNL     1      -0.449  -2.828   4.134  0.00  0.00    +0.120 C 
ATOM     24  C   UNL     1      -0.497  -3.016   5.654  0.00  0.00    +0.104 C 
ATOM     25  N   UNL     1       0.123  -1.855   6.307  0.00  0.00    -0.289 NA
ATOM     26  C   UNL     1      -0.624  -0.622   6.025  0.00  0.00    +0.104 C 
ATOM     27  C   UNL     1      -0.578  -0.336   4.515  0.00  0.00    +0.120 C 
BRANCH  22  33
ATOM     28  C   UNL     1      -5.832  -1.592   2.641  0.00  0.00    +0.044 C 
ATOM     29  C   UNL     1      -4.385  -1.460   2.245  0.00  0.00    -0.046 A 
ATOM     30  C   UNL     1      -4.048  -1.242   0.921  0.00  0.00    +0.004 A 
ATOM     31  C   UNL     1      -2.721  -1.121   0.553  0.00  0.00    +0.002 A 
ATOM     32  C   UNL     1      -1.726  -1.216   1.507  0.00  0.00    +0.023 A 
ATOM     33  C   UNL     1      -2.061  -1.434   2.837  0.00  0.00    +0.033 A 
ATOM     34  C   UNL     1      -3.396  -1.550   3.204  0.00  0.00    -0.027 A 
ATOM     35  C   UNL     1      -3.764  -1.781   4.647  0.00  0.00    +0.046 C 
ENDBRANCH  22  33
ENDBRANCH  20  25
ENDBRANCH   1  20
TORSDOF 6
