REMARK  Name = ZINC39012700
REMARK  11 active torsions:
REMARK  status: ('A' for Active; 'I' for Inactive)
REMARK    1  A    between atoms: C_1  and  C_2
REMARK    2  A    between atoms: C_6  and  C_33
REMARK    3  A    between atoms: C_7  and  N_8
REMARK    4  A    between atoms: C_9  and  C_11
REMARK    5  A    between atoms: C_11  and  S_12
REMARK    6  A    between atoms: S_12  and  C_13
REMARK    7  A    between atoms: C_17  and  C_21
REMARK    8  A    between atoms: N_19  and  N_20
REMARK    9  A    between atoms: C_24  and  C_27
REMARK   10  A    between atoms: C_33  and  C_34
REMARK   11  A    between atoms: C_33  and  C_35
REMARK                            x       y       z     vdW  Elec       q    Type
REMARK                         _______ _______ _______ _____ _____    ______ ____
ROOT
ATOM      1  C   UNL     1      -0.366   4.712   4.924  0.00  0.00    +0.214 C 
ATOM      2  N   UNL     1       1.083   4.694   5.229  0.00  0.00    -0.228 NA
ATOM      3  N   UNL     1       1.149   4.526   6.689  0.00  0.00    -0.234 NA
ATOM      4  C   UNL     1       0.032   3.588   6.970  0.00  0.00    +0.185 C 
ATOM      5  N   UNL     1      -1.039   4.006   6.034  0.00  0.00    -0.197 NA
ATOM      6  H   UNL     1       1.523   5.556   4.943  0.00  0.00    +0.143 HD
ATOM      7  H   UNL     1       2.034   4.128   6.967  0.00  0.00    +0.143 HD
ENDROOT
BRANCH   4   8
ATOM      8  C   UNL     1      -0.435   3.731   8.420  0.00  0.00    +0.187 C 
ATOM      9  C   UNL     1       0.707   3.454   9.382  0.00  0.00    +0.034 C 
ATOM     10  C   UNL     1       0.284   2.387  10.086  0.00  0.00    +0.091 C 
ATOM     11  N   UNL     1      -0.950   2.001   9.668  0.00  0.00    -0.154 NA
ATOM     12  N   UNL     1      -1.421   2.689   8.755  0.00  0.00    -0.176 NA
BRANCH  10  13
ATOM     13  C   UNL     1       1.057   1.725  11.165  0.00  0.00    +0.002 A 
ATOM     14  C   UNL     1       2.316   2.206  11.520  0.00  0.00    +0.010 A 
ATOM     15  C   UNL     1       3.031   1.586  12.525  0.00  0.00    +0.001 A 
ATOM     16  C   UNL     1       2.500   0.490  13.180  0.00  0.00    +0.000 A 
ATOM     17  C   UNL     1       1.251   0.008  12.832  0.00  0.00    +0.001 A 
ATOM     18  C   UNL     1       0.525   0.623  11.832  0.00  0.00    +0.010 A 
ENDBRANCH  10  13
ENDBRANCH   4   8
BRANCH   5  19
ATOM     19  N   UNL     1      -2.002   4.872   6.696  0.00  0.00    -0.264 NA
ATOM     20  H   UNL     1      -2.711   5.184   6.050  0.00  0.00    +0.137 HD
ATOM     21  H   UNL     1      -2.416   4.411   7.492  0.00  0.00    +0.137 HD
ENDBRANCH   5  19
BRANCH   1  22
ATOM     22  S   UNL     1      -0.683   3.853   3.358  0.00  0.00    -0.115 S 
BRANCH  22  23
ATOM     23  C   UNL     1      -0.016   2.188   3.628  0.00  0.00    +0.168 C 
BRANCH  23  25
ATOM     24  N   UNL     1       0.203   0.079   2.354  0.00  0.00    -0.284 N 
ATOM     25  C   UNL     1      -0.217   1.359   2.386  0.00  0.00    +0.227 C 
ATOM     26  O   UNL     1      -0.758   1.843   1.414  0.00  0.00    -0.275 OA
ATOM     27  H   UNL     1       0.566  -0.332   3.155  0.00  0.00    +0.155 HD
BRANCH  24  34
ATOM     28  C   UNL     1      -2.383  -0.569   1.361  0.00  0.00    +0.045 C 
ATOM     29  C   UNL     1      -1.126  -0.995   0.648  0.00  0.00    -0.029 A 
ATOM     30  C   UNL     1      -1.208  -1.717  -0.527  0.00  0.00    +0.005 A 
ATOM     31  C   UNL     1      -0.055  -2.108  -1.182  0.00  0.00    +0.001 A 
ATOM     32  C   UNL     1       1.184  -1.778  -0.664  0.00  0.00    +0.006 A 
ATOM     33  C   UNL     1       1.273  -1.056   0.510  0.00  0.00    -0.023 A 
ATOM     34  C   UNL     1       0.117  -0.657   1.168  0.00  0.00    +0.040 A 
BRANCH  33  35
ATOM     35  C   UNL     1       2.624  -0.697   1.074  0.00  0.00    +0.015 C 
ATOM     36  C   UNL     1       3.411  -1.976   1.367  0.00  0.00    +0.012 C 
ATOM     37  C   UNL     1       3.391   0.153   0.059  0.00  0.00    +0.012 C 
ENDBRANCH  33  35
ENDBRANCH  24  34
ENDBRANCH  23  25
ENDBRANCH  22  23
ENDBRANCH   1  22
TORSDOF 8
