REMARK  Name = ZINC57642033
REMARK  11 active torsions:
REMARK  status: ('A' for Active; 'I' for Inactive)
REMARK    1  A    between atoms: C_1  and  C_2
REMARK    2  A    between atoms: C_2  and  C_3
REMARK    3  A    between atoms: C_3  and  C_5
REMARK    4  A    between atoms: C_3  and  N_16
REMARK    5  A    between atoms: N_9  and  C_10
REMARK    6  A    between atoms: N_16  and  C_17
REMARK    7  A    between atoms: N_16  and  C_27
REMARK    8  A    between atoms: C_17  and  C_18
REMARK    9  A    between atoms: C_27  and  C_28
REMARK   10  A    between atoms: C_33  and  C_41
REMARK   11  A    between atoms: C_34  and  C_40
REMARK                            x       y       z     vdW  Elec       q    Type
REMARK                         _______ _______ _______ _____ _____    ______ ____
ROOT
ATOM      1  N   UNL     1       1.245  -1.478  -2.879  0.00  0.00    -0.284 NA
ENDROOT
BRANCH   1   2
ATOM      2  C   UNL     1       2.055  -1.598  -1.660  0.00  0.00    +0.127 C 
BRANCH   2   3
ATOM      3  C   UNL     1       3.415  -0.994  -1.899  0.00  0.00    +0.169 A 
ATOM      4  N   UNL     1       4.104  -1.034  -3.014  0.00  0.00    -0.112 NA
ATOM      5  N   UNL     1       5.212  -0.406  -2.819  0.00  0.00    -0.023 NA
ATOM      6  N   UNL     1       5.247   0.035  -1.610  0.00  0.00    -0.044 NA
ATOM      7  N   UNL     1       4.155  -0.303  -1.012  0.00  0.00    -0.225 N 
BRANCH   7   8
ATOM      8  C   UNL     1       3.791   0.004   0.373  0.00  0.00    +0.111 C 
ATOM      9  C   UNL     1       3.959   1.504   0.624  0.00  0.00    +0.027 C 
ATOM     10  C   UNL     1       3.578   1.825   2.071  0.00  0.00    +0.002 C 
ATOM     11  C   UNL     1       4.486   1.043   3.023  0.00  0.00    +0.000 C 
ATOM     12  C   UNL     1       4.318  -0.457   2.772  0.00  0.00    +0.002 C 
ATOM     13  C   UNL     1       4.699  -0.777   1.325  0.00  0.00    +0.027 C 
ENDBRANCH   7   8
ENDBRANCH   2   3
BRANCH   2  15
ATOM     14  C   UNL     1       0.846  -3.653  -0.914  0.00  0.00    +0.006 C 
ATOM     15  C   UNL     1       2.211  -3.075  -1.294  0.00  0.00    +0.023 C 
ENDBRANCH   2  15
ENDBRANCH   1   2
BRANCH   1  16
ATOM     16  C   UNL     1       1.956  -2.029  -4.041  0.00  0.00    +0.120 C 
BRANCH  16  17
ATOM     17  C   UNL     1       0.977  -2.277  -5.158  0.00  0.00    -0.030 A 
ATOM     18  C   UNL     1       0.246  -3.451  -5.187  0.00  0.00    +0.009 A 
ATOM     19  C   UNL     1      -0.654  -3.683  -6.210  0.00  0.00    +0.050 A 
ATOM     20  C   UNL     1      -0.826  -2.740  -7.210  0.00  0.00    +0.166 A 
ATOM     21  C   UNL     1      -0.089  -1.558  -7.182  0.00  0.00    +0.167 A 
ATOM     22  C   UNL     1       0.807  -1.330  -6.150  0.00  0.00    +0.054 A 
ATOM     23  O   UNL     1      -0.435  -0.802  -8.264  0.00  0.00    -0.453 OA
ATOM     24  C   UNL     1      -1.087  -1.709  -9.173  0.00  0.00    +0.466 C 
ATOM     25  O   UNL     1      -1.633  -2.725  -8.311  0.00  0.00    -0.453 OA
ENDBRANCH  16  17
ENDBRANCH   1  16
BRANCH   1  26
ATOM     26  C   UNL     1       0.853  -0.083  -3.116  0.00  0.00    +0.126 C 
BRANCH  26  27
ATOM     27  C   UNL     1      -0.268   0.290  -2.179  0.00  0.00    +0.031 A 
ATOM     28  C   UNL     1       0.009   0.931  -1.016  0.00  0.00    +0.020 A 
ATOM     29  C   UNL     1      -1.101   1.280  -0.128  0.00  0.00    -0.001 A 
ATOM     30  C   UNL     1      -0.879   1.942   1.083  0.00  0.00    +0.010 A 
ATOM     31  C   UNL     1      -1.937   2.253   1.890  0.00  0.00    +0.004 A 
ATOM     32  C   UNL     1      -3.231   1.917   1.517  0.00  0.00    -0.046 A 
ATOM     33  C   UNL     1      -3.474   1.265   0.328  0.00  0.00    -0.024 A 
ATOM     34  C   UNL     1      -2.413   0.938  -0.510  0.00  0.00    +0.052 A 
ATOM     35  N   UNL     1      -2.627   0.286  -1.705  0.00  0.00    -0.322 N 
ATOM     36  H   UNL     1      -3.531   0.052  -1.966  0.00  0.00    +0.169 HD
ATOM     37  C   UNL     1      -1.601  -0.025  -2.517  0.00  0.00    +0.254 A 
ATOM     38  O   UNL     1      -1.828  -0.597  -3.569  0.00  0.00    -0.268 OA
ATOM     39  C   UNL     1      -4.885   0.906  -0.063  0.00  0.00    +0.046 C 
ATOM     40  C   UNL     1      -4.383   2.271   2.423  0.00  0.00    +0.044 C 
ENDBRANCH  26  27
ENDBRANCH   1  26
TORSDOF 8
