REMARK  Name = ZINC20601865
REMARK  4 active torsions:
REMARK  status: ('A' for Active; 'I' for Inactive)
REMARK    1  A    between atoms: C_3  and  C_6
REMARK    2  A    between atoms: C_8  and  C_33
REMARK    3  A    between atoms: C_13  and  C_15
REMARK    4  A    between atoms: N_21  and  C_23
REMARK                            x       y       z     vdW  Elec       q    Type
REMARK                         _______ _______ _______ _____ _____    ______ ____
ROOT
ATOM      1  C   UNL     1       0.002  -0.004   0.002  0.00  0.00    +0.270 C 
ATOM      2  O   UNL     1       1.063  -0.598  -0.011  0.00  0.00    -0.268 OA
ATOM      3  N   UNL     1      -1.156  -0.694   0.009  0.00  0.00    -0.264 N 
ATOM      4  C   UNL     1      -1.137  -2.095   0.002  0.00  0.00    +0.147 A 
ATOM      5  C   UNL     1       0.011  -2.904  -0.013  0.00  0.00    +0.065 A 
ATOM      6  C   UNL     1      -0.392  -4.195  -0.016  0.00  0.00    +0.111 A 
ATOM      7  N   UNL     1      -1.742  -4.207  -0.003  0.00  0.00    -0.264 N 
ATOM      8  N   UNL     1      -2.188  -2.880   0.013  0.00  0.00    -0.155 NA
ATOM      9  H   UNL     1      -2.116  -0.157   0.021  0.00  0.00    +0.157 HD
ENDROOT
BRANCH   7  10
ATOM     10  C   UNL     1      -2.591  -5.401  -0.001  0.00  0.00    +0.064 C 
ATOM     11  C   UNL     1      -2.046  -6.413   1.009  0.00  0.00    +0.033 C 
ATOM     12  C   UNL     1      -2.933  -7.659   1.012  0.00  0.00    -0.008 C 
ATOM     13  C   UNL     1      -4.361  -7.269   1.401  0.00  0.00    +0.007 C 
ATOM     14  C   UNL     1      -4.906  -6.257   0.391  0.00  0.00    -0.008 C 
ATOM     15  C   UNL     1      -4.019  -5.011   0.388  0.00  0.00    +0.033 C 
ATOM     16  C   UNL     1      -4.910  -6.882  -1.006  0.00  0.00    +0.007 C 
ATOM     17  C   UNL     1      -3.483  -7.273  -1.395  0.00  0.00    -0.008 C 
ATOM     18  C   UNL     1      -2.938  -8.285  -0.385  0.00  0.00    +0.007 C 
ATOM     19  C   UNL     1      -2.596  -6.026  -1.397  0.00  0.00    +0.033 C 
ENDBRANCH   7  10
BRANCH   1  27
ATOM     20  C   UNL     1       0.636   5.932   0.025  0.00  0.00    +0.082 A 
ATOM     21  C   UNL     1      -0.780   5.923   0.038  0.00  0.00    +0.061 A 
ATOM     22  C   UNL     1      -1.434   4.742   0.039  0.00  0.00    +0.149 A 
ATOM     23  N   UNL     1      -0.714   3.576   0.027  0.00  0.00    -0.209 N 
ATOM     24  C   UNL     1       0.658   3.618   0.014  0.00  0.00    +0.157 A 
ATOM     25  N   UNL     1       1.306   4.791   0.014  0.00  0.00    -0.227 NA
ATOM     26  C   UNL     1       1.107   2.306   0.004  0.00  0.00    +0.083 A 
ATOM     27  C   UNL     1      -0.018   1.474   0.010  0.00  0.00    +0.150 A 
ATOM     28  N   UNL     1      -1.103   2.232   0.019  0.00  0.00    -0.160 NA
BRANCH  20  31
ATOM     29  C   UNL     1       3.171   8.736   0.015  0.00  0.00    +0.008 A 
ATOM     30  C   UNL     1       2.718   7.439   0.019  0.00  0.00    +0.017 A 
ATOM     31  C   UNL     1       1.364   7.213   0.024  0.00  0.00    +0.038 A 
ATOM     32  S   UNL     1       0.715   8.876   0.038  0.00  0.00    -0.095 S 
ATOM     33  C   UNL     1       2.270   9.754   0.029  0.00  0.00    +0.046 A 
ENDBRANCH  20  31
BRANCH  22  34
ATOM     34  C   UNL     1      -2.941   4.705   0.052  0.00  0.00    +0.434 C 
ATOM     35  F   UNL     1      -3.395   4.688   1.375  0.00  0.00    -0.164 F 
ATOM     36  F   UNL     1      -3.440   5.839  -0.598  0.00  0.00    -0.164 F 
ATOM     37  F   UNL     1      -3.385   3.555  -0.609  0.00  0.00    -0.164 F 
ENDBRANCH  22  34
ENDBRANCH   1  27
TORSDOF 4
