REMARK  Name = ZINC39661833
REMARK  7 active torsions:
REMARK  status: ('A' for Active; 'I' for Inactive)
REMARK    1  A    between atoms: C_3  and  O_34
REMARK    2  A    between atoms: C_4  and  O_33
REMARK    3  A    between atoms: C_6  and  C_7
REMARK    4  A    between atoms: C_7  and  C_8
REMARK    5  A    between atoms: C_8  and  N_9
REMARK    6  A    between atoms: C_10  and  C_12
REMARK    7  A    between atoms: C_23  and  C_25
REMARK                            x       y       z     vdW  Elec       q    Type
REMARK                         _______ _______ _______ _____ _____    ______ ____
ROOT
ATOM      1  C   UNL     1      -4.525  -2.535  -2.906  0.00  0.00    +0.100 C 
ATOM      2  C   UNL     1      -5.623  -1.941  -1.995  0.00  0.00    +0.121 C 
ATOM      3  N   UNL     1      -6.559  -1.268  -2.927  0.00  0.00    -0.296 N 
ATOM      4  C   UNL     1      -6.638  -2.181  -4.093  0.00  0.00    +0.115 C 
ATOM      5  C   UNL     1      -5.197  -2.695  -4.281  0.00  0.00    -0.004 C 
ATOM      6  C   UNL     1      -5.209  -4.163  -4.695  0.00  0.00    -0.010 C 
ATOM      7  C   UNL     1      -5.828  -4.290  -6.090  0.00  0.00    -0.082 C 
ATOM      8  N   UNL     1      -5.048  -3.497  -7.048  0.00  0.00    +0.379 N 
ATOM      9  C   UNL     1      -5.119  -2.074  -6.694  0.00  0.00    -0.082 C 
ATOM     10  C   UNL     1      -4.470  -1.853  -5.325  0.00  0.00    -0.010 C 
ATOM     11  C   UNL     1      -7.196  -0.093  -2.753  0.00  0.00    +0.249 C 
ATOM     12  O   UNL     1      -8.010   0.284  -3.574  0.00  0.00    -0.270 OA
ATOM     13  H   UNL     1      -4.086  -3.800  -7.028  0.00  0.00    -0.086 HD
ATOM     14  H   UNL     1      -5.421  -3.631  -7.976  0.00  0.00    -0.086 HD
ENDROOT
BRANCH  11  15
ATOM     15  C   UNL     1      -6.904   0.737  -1.567  0.00  0.00    +0.073 A 
ATOM     16  C   UNL     1      -6.614   0.132  -0.342  0.00  0.00    +0.036 A 
ATOM     17  C   UNL     1      -6.342   0.913   0.762  0.00  0.00    +0.042 A 
ATOM     18  C   UNL     1      -6.355   2.295   0.659  0.00  0.00    +0.023 A 
ATOM     19  C   UNL     1      -6.640   2.901  -0.549  0.00  0.00    +0.040 A 
ATOM     20  C   UNL     1      -6.910   2.131  -1.666  0.00  0.00    +0.136 A 
ATOM     21  F   UNL     1      -7.183   2.725  -2.849  0.00  0.00    -0.205 F 
ATOM     22 CL   UNL     1      -5.982   0.162   2.286  0.00  0.00    -0.084 Cl
ENDBRANCH  11  15
BRANCH   1  24
ATOM     23  N   UNL     1      -2.119  -2.073  -3.244  0.00  0.00    -0.315 N 
ATOM     24  C   UNL     1      -3.354  -1.591  -3.001  0.00  0.00    +0.218 C 
ATOM     25  O   UNL     1      -3.523  -0.399  -2.858  0.00  0.00    -0.275 OA
ATOM     26  H   UNL     1      -1.984  -3.027  -3.359  0.00  0.00    +0.149 HD
BRANCH  23  27
ATOM     27  C   UNL     1      -0.980  -1.156  -3.337  0.00  0.00    +0.109 C 
BRANCH  27  28
ATOM     28  C   UNL     1       0.295  -1.953  -3.617  0.00  0.00    +0.054 C 
BRANCH  28  34
ATOM     29  C   UNL     1       2.190  -0.692  -2.578  0.00  0.00    +0.007 A 
ATOM     30  C   UNL     1       3.265   0.173  -2.659  0.00  0.00    +0.049 A 
ATOM     31  C   UNL     1       3.620   0.724  -3.880  0.00  0.00    +0.158 A 
ATOM     32  C   UNL     1       2.891   0.405  -5.022  0.00  0.00    +0.158 A 
ATOM     33  C   UNL     1       1.815  -0.463  -4.933  0.00  0.00    +0.052 A 
ATOM     34  C   UNL     1       1.466  -1.009  -3.712  0.00  0.00    -0.042 A 
BRANCH  32  35
ATOM     35  O   UNL     1       3.235   0.943  -6.223  0.00  0.00    -0.503 OA
ATOM     36  H   UNL     1       3.873   0.416  -6.722  0.00  0.00    +0.292 HD
ENDBRANCH  32  35
BRANCH  31  37
ATOM     37  O   UNL     1       4.677   1.576  -3.962  0.00  0.00    -0.503 OA
ATOM     38  H   UNL     1       5.521   1.139  -4.138  0.00  0.00    +0.292 HD
ENDBRANCH  31  37
ENDBRANCH  28  34
ENDBRANCH  27  28
ENDBRANCH  23  27
ENDBRANCH   1  24
TORSDOF 7
