REMARK  Name = ZINC08958697
REMARK  9 active torsions:
REMARK  status: ('A' for Active; 'I' for Inactive)
REMARK    1  A    between atoms: C_1  and  C_2
REMARK    2  A    between atoms: C_5  and  S_8
REMARK    3  A    between atoms: S_8  and  N_11
REMARK    4  A    between atoms: N_11  and  C_12
REMARK    5  A    between atoms: C_17  and  C_18
REMARK    6  A    between atoms: N_20  and  C_21
REMARK    7  A    between atoms: C_22  and  C_32
REMARK    8  A    between atoms: C_27  and  C_31
REMARK    9  A    between atoms: N_34  and  C_35
REMARK                            x       y       z     vdW  Elec       q    Type
REMARK                         _______ _______ _______ _____ _____    ______ ____
ROOT
ATOM      1  C   UNL     1       1.521  -2.325  -0.628  0.00  0.00    +0.250 C 
ATOM      2  O   UNL     1       0.981  -1.724  -1.538  0.00  0.00    -0.270 OA
ATOM      3  N   UNL     1       2.249  -3.429  -0.889  0.00  0.00    -0.275 N 
ATOM      4  H   UNL     1       2.679  -3.908  -0.164  0.00  0.00    +0.156 HD
ENDROOT
BRANCH   3   5
ATOM      5  C   UNL     1       2.381  -3.880  -2.192  0.00  0.00    +0.085 A 
ATOM      6  C   UNL     1       3.087  -4.982  -2.656  0.00  0.00    +0.069 A 
ATOM      7  C   UNL     1       3.063  -5.240  -4.086  0.00  0.00    -0.023 A 
ATOM      8  C   UNL     1       2.352  -4.357  -4.819  0.00  0.00    -0.004 A 
ATOM      9  S   UNL     1       1.714  -3.200  -3.640  0.00  0.00    -0.077 S 
ATOM     10  C   UNL     1       2.154  -4.367  -6.303  0.00  0.00    +0.046 C 
ATOM     11  C   UNL     1       2.569  -5.746  -6.837  0.00  0.00    -0.009 C 
ATOM     12  C   UNL     1       3.930  -6.116  -6.241  0.00  0.00    +0.008 C 
ATOM     13  C   UNL     1       3.782  -6.410  -4.747  0.00  0.00    +0.037 C 
ATOM     14  C   UNL     1       2.673  -5.695  -8.362  0.00  0.00    +0.008 C 
BRANCH   6  15
ATOM     15  C   UNL     1       3.824  -5.854  -1.737  0.00  0.00    +0.246 C 
ATOM     16  O   UNL     1       3.272  -6.816  -1.237  0.00  0.00    -0.270 OA
ATOM     17  N   UNL     1       5.114  -5.590  -1.447  0.00  0.00    -0.314 N 
ATOM     18  C   UNL     1       5.851  -6.462  -0.529  0.00  0.00    +0.128 C 
ATOM     19  H   UNL     1       5.554  -4.824  -1.846  0.00  0.00    +0.149 HD
ENDBRANCH   6  15
ENDBRANCH   3   5
BRANCH   1  25
ATOM     20  C   UNL     1       0.623  -0.696   1.034  0.00  0.00    +0.060 A 
ATOM     21  C   UNL     1       0.493  -0.257   2.346  0.00  0.00    +0.025 A 
ATOM     22  C   UNL     1       1.110  -0.947   3.369  0.00  0.00    +0.002 A 
ATOM     23  C   UNL     1       1.862  -2.079   3.100  0.00  0.00    +0.001 A 
ATOM     24  C   UNL     1       2.003  -2.529   1.805  0.00  0.00    +0.015 A 
ATOM     25  C   UNL     1       1.380  -1.845   0.758  0.00  0.00    +0.059 A 
BRANCH  20  26
ATOM     26  N   UNL     1       0.002  -0.004   0.002  0.00  0.00    -0.216 N 
ATOM     27  H   UNL     1      -0.364  -0.488  -0.755  0.00  0.00    +0.174 HD
BRANCH  26  28
ATOM     28  S   UNL     1      -0.114   1.647   0.064  0.00  0.00    +0.072 S 
ATOM     29  O   UNL     1      -0.668   2.062  -1.177  0.00  0.00    -0.150 OA
ATOM     30  O   UNL     1      -0.714   1.965   1.312  0.00  0.00    -0.150 OA
BRANCH  28  35
ATOM     31  C   UNL     1       5.511   3.824   0.252  0.00  0.00    +0.044 C 
ATOM     32  C   UNL     1       4.106   3.280   0.205  0.00  0.00    -0.050 A 
ATOM     33  C   UNL     1       3.484   3.076  -1.013  0.00  0.00    +0.005 A 
ATOM     34  C   UNL     1       2.195   2.578  -1.056  0.00  0.00    +0.029 A 
ATOM     35  C   UNL     1       1.529   2.282   0.119  0.00  0.00    +0.109 A 
ATOM     36  C   UNL     1       2.149   2.491   1.337  0.00  0.00    +0.029 A 
ATOM     37  C   UNL     1       3.439   2.985   1.379  0.00  0.00    +0.005 A 
ENDBRANCH  28  35
ENDBRANCH  26  28
ENDBRANCH  20  26
ENDBRANCH   1  25
TORSDOF 6
