REMARK  Name = ZINC27102956
REMARK  10 active torsions:
REMARK  status: ('A' for Active; 'I' for Inactive)
REMARK    1  A    between atoms: C_1  and  C_2
REMARK    2  A    between atoms: C_3  and  C_31
REMARK    3  A    between atoms: C_9  and  O_13
REMARK    4  A    between atoms: O_13  and  C_14
REMARK    5  A    between atoms: C_14  and  C_15
REMARK    6  A    between atoms: N_17  and  C_18
REMARK    7  A    between atoms: C_18  and  C_20
REMARK    8  A    between atoms: C_18  and  C_21
REMARK    9  A    between atoms: C_34  and  O_37
REMARK   10  A    between atoms: O_37  and  C_38
REMARK                            x       y       z     vdW  Elec       q    Type
REMARK                         _______ _______ _______ _____ _____    ______ ____
ROOT
ATOM      1  C   UNL     1       0.145   4.731  -8.070  0.00  0.00    +0.087 C 
ATOM      2  C   UNL     1       0.051   5.205  -6.643  0.00  0.00    +0.114 A 
ATOM      3  C   UNL     1       1.144   5.094  -5.845  0.00  0.00    +0.067 A 
ATOM      4  C   UNL     1       1.052   5.558  -4.450  0.00  0.00    +0.200 A 
ATOM      5  O   UNL     1       2.000   5.483  -3.688  0.00  0.00    -0.286 OA
ATOM      6  C   UNL     1      -0.242   6.118  -4.021  0.00  0.00    +0.065 A 
ATOM      7  C   UNL     1      -0.433   6.586  -2.720  0.00  0.00    +0.019 A 
ATOM      8  C   UNL     1      -1.645   7.098  -2.355  0.00  0.00    +0.046 A 
ATOM      9  C   UNL     1      -2.690   7.156  -3.275  0.00  0.00    +0.125 A 
ATOM     10  C   UNL     1      -2.517   6.696  -4.569  0.00  0.00    +0.092 A 
ATOM     11  C   UNL     1      -1.290   6.172  -4.956  0.00  0.00    +0.142 A 
ATOM     12  O   UNL     1      -1.103   5.724  -6.214  0.00  0.00    -0.459 OA
ENDROOT
BRANCH   3  13
ATOM     13  C   UNL     1       2.406   4.516  -6.367  0.00  0.00    -0.011 A 
ATOM     14  C   UNL     1       2.454   3.178  -6.754  0.00  0.00    +0.012 A 
ATOM     15  C   UNL     1       3.628   2.645  -7.245  0.00  0.00    +0.046 A 
ATOM     16  C   UNL     1       4.763   3.437  -7.344  0.00  0.00    +0.120 A 
ATOM     17  C   UNL     1       4.720   4.769  -6.955  0.00  0.00    +0.046 A 
ATOM     18  C   UNL     1       3.548   5.309  -6.468  0.00  0.00    +0.012 A 
BRANCH  16  19
ATOM     19  O   UNL     1       5.920   2.908  -7.823  0.00  0.00    -0.495 OA
ATOM     20  C   UNL     1       5.894   1.531  -8.205  0.00  0.00    +0.277 C 
ENDBRANCH  16  19
ENDBRANCH   3  13
BRANCH   9  21
ATOM     21  O   UNL     1      -3.890   7.668  -2.898  0.00  0.00    -0.483 OA
BRANCH  21  22
ATOM     22  C   UNL     1      -4.006   8.125  -1.550  0.00  0.00    +0.324 C 
BRANCH  22  23
ATOM     23  C   UNL     1      -5.397   8.655  -1.317  0.00  0.00    +0.251 C 
ATOM     24  O   UNL     1      -6.210   8.642  -2.217  0.00  0.00    -0.272 OA
ATOM     25  N   UNL     1      -5.739   9.144  -0.108  0.00  0.00    -0.306 N 
ATOM     26  H   UNL     1      -5.002   9.156   0.709  0.00  0.00    +0.149 HD
BRANCH  25  27
ATOM     27  C   UNL     1      -7.091   9.659   0.119  0.00  0.00    +0.101 C 
ATOM     28  C   UNL     1      -7.415   9.603   1.613  0.00  0.00    +0.033 C 
BRANCH  27  29
ATOM     29  C   UNL     1      -7.172  11.086  -0.359  0.00  0.00    -0.020 A 
ATOM     30  C   UNL     1      -6.046  11.848  -0.431  0.00  0.00    +0.006 A 
ATOM     31  C   UNL     1      -6.101  13.168  -0.875  0.00  0.00    +0.001 A 
ATOM     32  C   UNL     1      -7.282  13.736  -1.241  0.00  0.00    +0.008 A 
ATOM     33  C   UNL     1      -8.466  12.982  -1.176  0.00  0.00    -0.018 A 
ATOM     34  C   UNL     1      -8.410  11.638  -0.729  0.00  0.00    -0.013 A 
ATOM     35  C   UNL     1      -9.594  10.884  -0.664  0.00  0.00    +0.009 A 
ATOM     36  C   UNL     1     -10.775  11.452  -1.031  0.00  0.00    +0.001 A 
ATOM     37  C   UNL     1     -10.830  12.773  -1.471  0.00  0.00    +0.001 A 
ATOM     38  C   UNL     1      -9.704  13.534  -1.546  0.00  0.00    +0.008 A 
ENDBRANCH  27  29
ENDBRANCH  25  27
ENDBRANCH  22  23
ENDBRANCH  21  22
ENDBRANCH   9  21
TORSDOF 7
