REMARK  Name = ZINC35747152
REMARK  17 active torsions:
REMARK  status: ('A' for Active; 'I' for Inactive)
REMARK    1  A    between atoms: C_1  and  C_2
REMARK    2  A    between atoms: C_7  and  O_8
REMARK    3  A    between atoms: O_8  and  C_9
REMARK    4  A    between atoms: C_9  and  C_10
REMARK    5  A    between atoms: C_10  and  C_12
REMARK    6  A    between atoms: C_10  and  O_39
REMARK    7  A    between atoms: C_12  and  N_13
REMARK    8  A    between atoms: N_13  and  C_14
REMARK    9  A    between atoms: N_13  and  C_19
REMARK   10  A    between atoms: C_14  and  C_15
REMARK   11  A    between atoms: C_15  and  C_16
REMARK   12  A    between atoms: C_16  and  O_17
REMARK   13  A    between atoms: O_17  and  C_18
REMARK   14  A    between atoms: C_19  and  C_20
REMARK   15  A    between atoms: C_26  and  C_31
REMARK   16  A    between atoms: C_34  and  C_38
REMARK   17  A    between atoms: C_35  and  C_37
REMARK                            x       y       z     vdW  Elec       q    Type
REMARK                         _______ _______ _______ _____ _____    ______ ____
ROOT
ATOM      1  N   UNL     1       0.140   0.246   7.400  0.00  0.00    +0.386 N 
ATOM      2  H   UNL     1       0.778   0.783   6.832  0.00  0.00    -0.081 HD
ENDROOT
BRANCH   1   3
ATOM      3  C   UNL     1      -0.447  -0.831   6.592  0.00  0.00    -0.043 C 
BRANCH   3   4
ATOM      4  C   UNL     1      -1.086  -0.236   5.336  0.00  0.00    +0.135 C 
BRANCH   4   5
ATOM      5  O   UNL     1      -2.222   0.548   5.704  0.00  0.00    -0.390 OA
ATOM      6  H   UNL     1      -2.911   0.050   6.165  0.00  0.00    +0.210 HD
ENDBRANCH   4   5
BRANCH   4   7
ATOM      7  C   UNL     1      -1.527  -1.366   4.403  0.00  0.00    +0.258 C 
BRANCH   7   8
ATOM      8  O   UNL     1      -2.016  -0.812   3.181  0.00  0.00    -0.489 OA
BRANCH   8  15
ATOM      9  C   UNL     1      -2.988   0.264   0.756  0.00  0.00    +0.047 C 
ATOM     10  C   UNL     1      -2.939  -1.217   1.026  0.00  0.00    -0.009 A 
ATOM     11  C   UNL     1      -3.374  -2.110   0.065  0.00  0.00    +0.007 A 
ATOM     12  C   UNL     1      -3.330  -3.469   0.312  0.00  0.00    +0.000 A 
ATOM     13  C   UNL     1      -2.850  -3.940   1.520  0.00  0.00    +0.004 A 
ATOM     14  C   UNL     1      -2.412  -3.052   2.484  0.00  0.00    +0.046 A 
ATOM     15  C   UNL     1      -2.451  -1.687   2.236  0.00  0.00    +0.124 A 
ENDBRANCH   8  15
ENDBRANCH   7   8
ENDBRANCH   4   7
ENDBRANCH   3   4
ENDBRANCH   1   3
BRANCH   1  16
ATOM     16  C   UNL     1      -0.928   1.122   7.899  0.00  0.00    -0.076 C 
BRANCH  16  17
ATOM     17  C   UNL     1      -1.978   0.281   8.628  0.00  0.00    +0.009 C 
BRANCH  17  18
ATOM     18  C   UNL     1      -3.142   1.178   9.056  0.00  0.00    +0.157 C 
BRANCH  18  19
ATOM     19  O   UNL     1      -4.123   0.393   9.736  0.00  0.00    -0.383 OA
ATOM     20  C   UNL     1      -5.258   1.138  10.180  0.00  0.00    +0.193 C 
ENDBRANCH  18  19
ENDBRANCH  17  18
ENDBRANCH  16  17
ENDBRANCH   1  16
BRANCH   1  21
ATOM     21  C   UNL     1       0.868  -0.336   8.536  0.00  0.00    -0.003 C 
BRANCH  21  22
ATOM     22  C   UNL     1       1.605   0.754   9.271  0.00  0.00    +0.094 A 
ATOM     23  N   UNL     1       2.305   0.447  10.393  0.00  0.00    -0.312 N 
ATOM     24  H   UNL     1       2.321  -0.471  10.707  0.00  0.00    +0.170 HD
ATOM     25  C   UNL     1       2.978   1.390  11.078  0.00  0.00    +0.260 A 
ATOM     26  O   UNL     1       3.602   1.098  12.084  0.00  0.00    -0.267 OA
ATOM     27  C   UNL     1       2.949   2.742  10.608  0.00  0.00    +0.080 A 
ATOM     28  C   UNL     1       3.588   3.927  11.167  0.00  0.00    +0.004 A 
ATOM     29  C   UNL     1       3.418   5.116  10.540  0.00  0.00    +0.056 A 
ATOM     30  S   UNL     1       2.380   4.705   9.151  0.00  0.00    -0.076 S 
ATOM     31  C   UNL     1       2.200   2.964   9.441  0.00  0.00    +0.116 A 
ATOM     32  N   UNL     1       1.565   1.977   8.814  0.00  0.00    -0.229 NA
BRANCH  28  33
ATOM     33  C   UNL     1       4.409   3.833  12.398  0.00  0.00    -0.016 A 
ATOM     34  C   UNL     1       3.906   3.185  13.526  0.00  0.00    +0.009 A 
ATOM     35  C   UNL     1       4.675   3.100  14.669  0.00  0.00    +0.004 A 
ATOM     36  C   UNL     1       5.941   3.656  14.697  0.00  0.00    -0.048 A 
ATOM     37  C   UNL     1       6.445   4.300  13.581  0.00  0.00    -0.047 A 
ATOM     38  C   UNL     1       5.688   4.386  12.431  0.00  0.00    +0.012 A 
ATOM     39  C   UNL     1       7.826   4.902  13.620  0.00  0.00    +0.044 C 
ATOM     40  C   UNL     1       6.776   3.560  15.948  0.00  0.00    +0.044 C 
ENDBRANCH  28  33
ENDBRANCH  21  22
ENDBRANCH   1  21
TORSDOF 13
