REMARK  Name = ZINC36547353
REMARK  10 active torsions:
REMARK  status: ('A' for Active; 'I' for Inactive)
REMARK    1  A    between atoms: C_1  and  C_2
REMARK    2  A    between atoms: C_5  and  S_8
REMARK    3  A    between atoms: S_8  and  C_11
REMARK    4  A    between atoms: C_11  and  N_12
REMARK    5  A    between atoms: C_13  and  C_15
REMARK    6  A    between atoms: C_15  and  C_17
REMARK    7  A    between atoms: C_15  and  N_24
REMARK    8  A    between atoms: C_22  and  C_23
REMARK    9  A    between atoms: N_24  and  C_25
REMARK   10  A    between atoms: C_32  and  C_34
REMARK                            x       y       z     vdW  Elec       q    Type
REMARK                         _______ _______ _______ _____ _____    ______ ____
ROOT
ATOM      1  C   UNL     1       3.243  -5.035   3.057  0.00  0.00    +0.197 C 
ENDROOT
BRANCH   1   2
ATOM      2  C   UNL     1       2.526  -4.143   4.037  0.00  0.00    -0.015 A 
ATOM      3  C   UNL     1       1.306  -4.530   4.560  0.00  0.00    +0.006 A 
ATOM      4  C   UNL     1       0.648  -3.712   5.459  0.00  0.00    +0.000 A 
ATOM      5  C   UNL     1       1.210  -2.507   5.837  0.00  0.00    +0.000 A 
ATOM      6  C   UNL     1       2.431  -2.121   5.315  0.00  0.00    +0.004 A 
ATOM      7  C   UNL     1       3.091  -2.941   4.419  0.00  0.00    -0.045 A 
ATOM      8  C   UNL     1       4.424  -2.522   3.855  0.00  0.00    +0.044 C 
ENDBRANCH   1   2
BRANCH   1  10
ATOM      9  N   UNL     1       2.108  -4.286   0.991  0.00  0.00    -0.294 N 
ATOM     10  C   UNL     1       2.358  -5.282   1.863  0.00  0.00    +0.240 C 
ATOM     11  O   UNL     1       1.870  -6.379   1.686  0.00  0.00    -0.273 OA
ATOM     12  H   UNL     1       2.441  -3.392   1.168  0.00  0.00    +0.150 HD
BRANCH   9  13
ATOM     13  C   UNL     1       1.335  -4.552  -0.225  0.00  0.00    +0.278 C 
BRANCH  13  14
ATOM     14  S   UNL     1      -0.409  -4.149   0.068  0.00  0.00    +0.013 S 
ATOM     15  O   UNL     1      -0.842  -4.713   1.299  0.00  0.00    -0.168 OA
ATOM     16  O   UNL     1      -1.163  -4.342  -1.121  0.00  0.00    -0.168 OA
BRANCH  14  21
ATOM     17  C   UNL     1      -0.494   1.813   0.991  0.00  0.00    +0.044 C 
ATOM     18  C   UNL     1      -0.473   0.324   0.760  0.00  0.00    -0.050 A 
ATOM     19  C   UNL     1      -0.618  -0.180  -0.519  0.00  0.00    +0.005 A 
ATOM     20  C   UNL     1      -0.598  -1.546  -0.730  0.00  0.00    +0.027 A 
ATOM     21  C   UNL     1      -0.433  -2.408   0.338  0.00  0.00    +0.090 A 
ATOM     22  C   UNL     1      -0.287  -1.905   1.617  0.00  0.00    +0.027 A 
ATOM     23  C   UNL     1      -0.302  -0.538   1.828  0.00  0.00    +0.005 A 
ENDBRANCH  14  21
ENDBRANCH  13  14
ENDBRANCH   9  13
ENDBRANCH   1  10
BRANCH   1  24
ATOM     24  N   UNL     1       3.562  -6.311   3.701  0.00  0.00    -0.253 N 
ATOM     25  C   UNL     1       4.830  -6.770   3.697  0.00  0.00    +0.235 C 
ATOM     26  O   UNL     1       5.079  -7.867   4.150  0.00  0.00    -0.274 OA
BRANCH  24  27
ATOM     27  C   UNL     1       2.551  -7.055   4.321  0.00  0.00    +0.056 A 
ATOM     28  C   UNL     1       1.841  -8.003   3.596  0.00  0.00    +0.025 A 
ATOM     29  C   UNL     1       0.844  -8.735   4.211  0.00  0.00    +0.002 A 
ATOM     30  C   UNL     1       0.552  -8.525   5.546  0.00  0.00    +0.002 A 
ATOM     31  C   UNL     1       1.256  -7.582   6.271  0.00  0.00    +0.022 A 
ATOM     32  C   UNL     1       2.260  -6.850   5.664  0.00  0.00    +0.062 A 
ATOM     33 CL   UNL     1       3.150  -5.671   6.576  0.00  0.00    -0.082 Cl
ENDBRANCH  24  27
BRANCH  25  34
ATOM     34  C   UNL     1       5.937  -5.920   3.128  0.00  0.00    +0.204 C 
ATOM     35 CL   UNL     1       7.472  -6.865   3.112  0.00  0.00    -0.116 Cl
ENDBRANCH  25  34
ENDBRANCH   1  24
TORSDOF 8
