REMARK  Name = ZINC09350177
REMARK  6 active torsions:
REMARK  status: ('A' for Active; 'I' for Inactive)
REMARK    1  A    between atoms: C_4  and  C_7
REMARK    2  A    between atoms: C_7  and  C_8
REMARK    3  A    between atoms: C_8  and  N_9
REMARK    4  A    between atoms: C_17  and  C_26
REMARK    5  A    between atoms: C_17  and  C_30
REMARK    6  A    between atoms: C_18  and  C_20
REMARK                            x       y       z     vdW  Elec       q    Type
REMARK                         _______ _______ _______ _____ _____    ______ ____
ROOT
ATOM      1  N   UNL     1       3.817   3.189   0.390  0.00  0.00    -0.281 N 
ATOM      2  C   UNL     1       2.630   3.841   0.213  0.00  0.00    +0.119 A 
ATOM      3  C   UNL     1       1.457   3.118   0.218  0.00  0.00    +0.098 A 
ATOM      4  C   UNL     1       1.518   1.736   0.410  0.00  0.00    +0.262 A 
ATOM      5  N   UNL     1       2.698   1.151   0.587  0.00  0.00    -0.275 N 
ATOM      6  C   UNL     1       3.826   1.855   0.573  0.00  0.00    +0.331 A 
ATOM      7  O   UNL     1       4.891   1.281   0.733  0.00  0.00    -0.246 OA
ATOM      8  O   UNL     1       0.384   0.999   0.421  0.00  0.00    -0.267 OA
ATOM      9  C   UNL     1       0.139   3.809   0.016  0.00  0.00    +0.264 C 
ATOM     10  C   UNL     1       1.393   5.865   0.195  0.00  0.00    +0.077 C 
ATOM     11  N   UNL     1       2.585   5.204   0.034  0.00  0.00    -0.290 N 
ATOM     12  H   UNL     1       2.738   0.162   0.734  0.00  0.00    +0.173 HD
ATOM     13  H   UNL     1       3.388   5.692  -0.205  0.00  0.00    +0.155 HD
ATOM     14  N   UNL     1       0.191   5.303   0.206  0.00  0.00    -0.352 N 
ATOM     15  H   UNL     1      -0.663   5.859   0.338  0.00  0.00    +0.162 HD
ENDROOT
BRANCH  10  16
ATOM     16  C   UNL     1       1.407   7.361   0.379  0.00  0.00    +0.050 C 
ATOM     17  C   UNL     1       1.633   7.691   1.856  0.00  0.00    +0.011 C 
ATOM     18  C   UNL     1       1.647   9.209   2.043  0.00  0.00    +0.001 C 
ATOM     19  C   UNL     1       0.307   9.792   1.589  0.00  0.00    +0.000 C 
ATOM     20  C   UNL     1       0.082   9.462   0.113  0.00  0.00    +0.001 C 
ATOM     21  C   UNL     1       0.067   7.944  -0.075  0.00  0.00    +0.011 C 
ENDBRANCH  10  16
BRANCH   9  22
ATOM     22  C   UNL     1      -0.366   3.522  -1.399  0.00  0.00    +0.426 C 
ATOM     23  F   UNL     1      -0.528   2.142  -1.566  0.00  0.00    -0.167 F 
ATOM     24  F   UNL     1      -1.594   4.162  -1.595  0.00  0.00    -0.167 F 
ATOM     25  F   UNL     1       0.562   3.998  -2.332  0.00  0.00    -0.167 F 
ENDBRANCH   9  22
BRANCH   9  26
ATOM     26  C   UNL     1      -0.872   3.267   1.028  0.00  0.00    +0.426 C 
ATOM     27  F   UNL     1      -0.258   3.139   2.278  0.00  0.00    -0.167 F 
ATOM     28  F   UNL     1      -1.952   4.150   1.127  0.00  0.00    -0.167 F 
ATOM     29  F   UNL     1      -1.331   2.015   0.604  0.00  0.00    -0.167 F 
ENDBRANCH   9  26
BRANCH   1  30
ATOM     30  C   UNL     1       5.075   3.939   0.380  0.00  0.00    +0.133 C 
BRANCH  30  31
ATOM     31  C   UNL     1       5.408   4.395   1.802  0.00  0.00    +0.057 C 
BRANCH  31  35
ATOM     32  C   UNL     1       9.078   6.582   1.774  0.00  0.00    +0.000 A 
ATOM     33  C   UNL     1       7.878   7.244   1.594  0.00  0.00    +0.000 A 
ATOM     34  C   UNL     1       6.690   6.536   1.603  0.00  0.00    +0.004 A 
ATOM     35  C   UNL     1       6.703   5.167   1.792  0.00  0.00    -0.046 A 
ATOM     36  C   UNL     1       7.903   4.505   1.977  0.00  0.00    +0.004 A 
ATOM     37  C   UNL     1       9.091   5.212   1.962  0.00  0.00    +0.000 A 
ENDBRANCH  31  35
ENDBRANCH  30  31
ENDBRANCH   1  30
TORSDOF 6
