REMARK  Name = ZINC36764379
REMARK  6 active torsions:
REMARK  status: ('A' for Active; 'I' for Inactive)
REMARK    1  A    between atoms: C_1  and  C_2
REMARK    2  A    between atoms: C_5  and  C_11
REMARK    3  A    between atoms: C_5  and  N_19
REMARK    4  A    between atoms: C_7  and  C_9
REMARK    5  A    between atoms: C_7  and  C_10
REMARK    6  A    between atoms: C_13  and  C_16
REMARK                            x       y       z     vdW  Elec       q    Type
REMARK                         _______ _______ _______ _____ _____    ______ ____
ROOT
ATOM      1  C   UNL     1      -0.111   1.514   0.067  0.00  0.00    +0.007 C 
ATOM      2  C   UNL     1      -0.073  -0.011   0.050  0.00  0.00    -0.014 C 
ATOM      3  C   UNL     1      -1.463  -0.617   0.035  0.00  0.00    -0.002 C 
ATOM      4  C   UNL     1      -2.130  -0.665   1.401  0.00  0.00    -0.006 C 
ATOM      5  C   UNL     1      -1.225  -1.283   2.453  0.00  0.00    +0.001 C 
ATOM      6  C   UNL     1       0.178  -0.708   2.502  0.00  0.00    -0.035 C 
ATOM      7  C   UNL     1       0.822  -0.571   1.135  0.00  0.00    +0.009 C 
ATOM      8  C   UNL     1       1.049  -1.693   3.322  0.00  0.00    +0.011 C 
ATOM      9  C   UNL     1       0.202   0.626   3.254  0.00  0.00    +0.011 C 
ENDROOT
BRANCH   4  10
ATOM     10  C   UNL     1      -3.343  -1.551   1.275  0.00  0.00    +0.161 A 
ATOM     11  N   UNL     1      -4.376  -1.342   0.451  0.00  0.00    -0.197 NA
ATOM     12  C   UNL     1      -5.257  -2.294   0.589  0.00  0.00    +0.230 A 
ATOM     13  O   UNL     1      -4.809  -3.149   1.516  0.00  0.00    -0.338 OA
ATOM     14  N   UNL     1      -3.553  -2.646   1.946  0.00  0.00    -0.063 NA
BRANCH  12  15
ATOM     15  C   UNL     1      -6.556  -2.410  -0.166  0.00  0.00    +0.078 C 
ATOM     16  C   UNL     1      -7.542  -3.490   0.286  0.00  0.00    +0.014 C 
ATOM     17  C   UNL     1      -6.767  -3.660  -1.022  0.00  0.00    +0.014 C 
ENDBRANCH  12  15
ENDBRANCH   4  10
BRANCH   4  18
ATOM     18  N   UNL     1      -2.612   0.658   1.812  0.00  0.00    +0.387 N 
ATOM     19  H   UNL     1      -3.365   0.945   1.204  0.00  0.00    -0.089 HD
ATOM     20  H   UNL     1      -2.946   0.614   2.763  0.00  0.00    -0.089 HD
ATOM     21  H   UNL     1      -1.858   1.325   1.750  0.00  0.00    -0.089 HD
ENDBRANCH   4  18
TORSDOF 3
