REMARK  Name = ZINC38918574
REMARK  8 active torsions:
REMARK  status: ('A' for Active; 'I' for Inactive)
REMARK    1  A    between atoms: C_1  and  C_2
REMARK    2  A    between atoms: C_5  and  S_8
REMARK    3  A    between atoms: S_8  and  C_9
REMARK    4  A    between atoms: C_9  and  C_10
REMARK    5  A    between atoms: C_12  and  C_24
REMARK    6  A    between atoms: C_14  and  C_22
REMARK    7  A    between atoms: C_15  and  N_21
REMARK    8  A    between atoms: C_27  and  C_29
REMARK                            x       y       z     vdW  Elec       q    Type
REMARK                         _______ _______ _______ _____ _____    ______ ____
ROOT
ATOM      1  C   UNL     1       0.097  -6.482   1.870  0.00  0.00    +0.079 C 
ATOM      2  C   UNL     1       1.146  -7.189   2.215  0.00  0.00    +0.034 C 
ATOM      3  C   UNL     1       2.525  -6.831   2.695  0.00  0.00    +0.134 C 
ATOM      4  C   UNL     1       2.829  -7.801   3.822  0.00  0.00    +0.100 C 
ATOM      5  C   UNL     1       2.025  -8.851   4.089  0.00  0.00    +0.195 C 
ATOM      6  O   UNL     1       0.881  -9.169   3.457  0.00  0.00    -0.448 OA
ATOM      7  C   UNL     1       0.686  -8.646   2.140  0.00  0.00    +0.343 C 
ATOM      8  N   UNL     1      -0.734  -8.500   1.806  0.00  0.00    -0.138 NA
ATOM      9  N   UNL     1      -0.970  -7.294   1.659  0.00  0.00    -0.154 NA
ENDROOT
BRANCH   3  10
ATOM     10  C   UNL     1       3.525  -6.995   1.579  0.00  0.00    +0.118 A 
ATOM     11  C   UNL     1       4.307  -6.024   1.075  0.00  0.00    +0.046 A 
ATOM     12  C   UNL     1       5.084  -6.614   0.051  0.00  0.00    +0.044 A 
ATOM     13  C   UNL     1       4.729  -7.911  -0.009  0.00  0.00    +0.102 A 
ATOM     14  O   UNL     1       3.789  -8.137   0.923  0.00  0.00    -0.464 OA
ATOM     15  C   UNL     1       5.296  -8.936  -0.956  0.00  0.00    +0.086 C 
ENDBRANCH   3  10
BRANCH   5  16
ATOM     16  N   UNL     1       2.414  -9.679   5.112  0.00  0.00    -0.329 N 
ATOM     17  H   UNL     1       3.231  -9.495   5.601  0.00  0.00    +0.145 HD
ATOM     18  H   UNL     1       1.871 -10.449   5.345  0.00  0.00    +0.145 HD
ENDBRANCH   5  16
BRANCH   4  19
ATOM     19  C   UNL     1       3.999  -7.597   4.621  0.00  0.00    +0.101 C 
ATOM     20  N   UNL     1       4.928  -7.436   5.255  0.00  0.00    -0.191 NA
ENDBRANCH   4  19
BRANCH   1  21
ATOM     21  C   UNL     1       0.077  -4.981   1.735  0.00  0.00    +0.131 C 
BRANCH  21  22
ATOM     22  S   UNL     1       0.062  -4.533  -0.023  0.00  0.00    -0.119 S 
BRANCH  22  27
ATOM     23  C   UNL     1      -0.018   1.503   0.010  0.00  0.00    +0.044 C 
ATOM     24  C   UNL     1       0.002  -0.004   0.002  0.00  0.00    -0.050 A 
ATOM     25  C   UNL     1       0.006  -0.687  -1.200  0.00  0.00    +0.004 A 
ATOM     26  C   UNL     1       0.024  -2.068  -1.212  0.00  0.00    +0.015 A 
ATOM     27  C   UNL     1       0.039  -2.771  -0.013  0.00  0.00    +0.008 A 
ATOM     28  C   UNL     1       0.036  -2.081   1.193  0.00  0.00    +0.015 A 
ATOM     29  C   UNL     1       0.023  -0.700   1.197  0.00  0.00    +0.004 A 
ENDBRANCH  22  27
ENDBRANCH  21  22
ENDBRANCH   1  21
TORSDOF 6
