REMARK  Name = ZINC57641557
REMARK  12 active torsions:
REMARK  status: ('A' for Active; 'I' for Inactive)
REMARK    1  A    between atoms: C_1  and  C_2
REMARK    2  A    between atoms: C_2  and  C_3
REMARK    3  A    between atoms: C_3  and  C_5
REMARK    4  A    between atoms: C_3  and  N_16
REMARK    5  A    between atoms: N_9  and  C_10
REMARK    6  A    between atoms: N_16  and  C_17
REMARK    7  A    between atoms: N_16  and  C_25
REMARK    8  A    between atoms: C_17  and  C_18
REMARK    9  A    between atoms: C_21  and  C_24
REMARK   10  A    between atoms: C_25  and  C_26
REMARK   11  A    between atoms: C_30  and  C_39
REMARK   12  A    between atoms: C_31  and  C_38
REMARK                            x       y       z     vdW  Elec       q    Type
REMARK                         _______ _______ _______ _____ _____    ______ ____
ROOT
ATOM      1  N   UNL     1       1.895  -0.809  -0.814  0.00  0.00    -0.284 NA
ENDROOT
BRANCH   1   2
ATOM      2  C   UNL     1       0.471  -0.448  -0.852  0.00  0.00    +0.127 C 
BRANCH   2   3
ATOM      3  C   UNL     1       0.199   0.394  -2.071  0.00  0.00    +0.169 A 
ATOM      4  N   UNL     1       0.778   0.286  -3.242  0.00  0.00    -0.112 NA
ATOM      5  N   UNL     1       0.274   1.182  -4.020  0.00  0.00    -0.023 NA
ATOM      6  N   UNL     1      -0.612   1.857  -3.376  0.00  0.00    -0.044 NA
ATOM      7  N   UNL     1      -0.692   1.398  -2.172  0.00  0.00    -0.225 N 
BRANCH   7   8
ATOM      8  C   UNL     1      -1.582   1.882  -1.114  0.00  0.00    +0.111 C 
ATOM      9  C   UNL     1      -3.033   1.572  -1.487  0.00  0.00    +0.027 C 
ATOM     10  C   UNL     1      -3.962   2.077  -0.381  0.00  0.00    +0.002 C 
ATOM     11  C   UNL     1      -3.789   3.589  -0.219  0.00  0.00    +0.000 C 
ATOM     12  C   UNL     1      -2.337   3.898   0.153  0.00  0.00    +0.002 C 
ATOM     13  C   UNL     1      -1.408   3.393  -0.952  0.00  0.00    +0.027 C 
ENDBRANCH   7   8
ENDBRANCH   2   3
BRANCH   2  15
ATOM     14  C   UNL     1      -0.172  -2.529   0.372  0.00  0.00    +0.006 C 
ATOM     15  C   UNL     1      -0.376  -1.720  -0.910  0.00  0.00    +0.023 C 
ENDBRANCH   2  15
ENDBRANCH   1   2
BRANCH   1  16
ATOM     16  C   UNL     1       2.305  -1.464  -2.063  0.00  0.00    +0.120 C 
BRANCH  16  17
ATOM     17  C   UNL     1       3.621  -2.167  -1.852  0.00  0.00    -0.033 A 
ATOM     18  C   UNL     1       4.804  -1.532  -2.181  0.00  0.00    +0.005 A 
ATOM     19  C   UNL     1       6.011  -2.177  -1.988  0.00  0.00    +0.003 A 
ATOM     20  C   UNL     1       6.036  -3.457  -1.466  0.00  0.00    -0.050 A 
ATOM     21  C   UNL     1       4.853  -4.091  -1.135  0.00  0.00    +0.003 A 
ATOM     22  C   UNL     1       3.646  -3.445  -1.325  0.00  0.00    +0.005 A 
ATOM     23  C   UNL     1       7.352  -4.160  -1.256  0.00  0.00    +0.044 C 
ENDBRANCH  16  17
ENDBRANCH   1  16
BRANCH   1  24
ATOM     24  C   UNL     1       2.729   0.369  -0.538  0.00  0.00    +0.126 C 
BRANCH  24  25
ATOM     25  C   UNL     1       2.649   0.709   0.927  0.00  0.00    +0.031 A 
ATOM     26  C   UNL     1       3.582   0.227   1.785  0.00  0.00    +0.020 A 
ATOM     27  C   UNL     1       3.476   0.577   3.203  0.00  0.00    -0.001 A 
ATOM     28  C   UNL     1       4.409   0.111   4.135  0.00  0.00    +0.013 A 
ATOM     29  C   UNL     1       4.282   0.456   5.450  0.00  0.00    -0.047 A 
ATOM     30  C   UNL     1       3.236   1.265   5.871  0.00  0.00    -0.046 A 
ATOM     31  C   UNL     1       2.305   1.736   4.970  0.00  0.00    +0.030 A 
ATOM     32  C   UNL     1       2.414   1.399   3.625  0.00  0.00    +0.049 A 
ATOM     33  N   UNL     1       1.498   1.856   2.702  0.00  0.00    -0.322 N 
ATOM     34  H   UNL     1       0.766   2.422   2.995  0.00  0.00    +0.169 HD
ATOM     35  C   UNL     1       1.606   1.534   1.401  0.00  0.00    +0.254 A 
ATOM     36  O   UNL     1       0.781   1.961   0.613  0.00  0.00    -0.268 OA
ATOM     37  C   UNL     1       3.116   1.632   7.328  0.00  0.00    +0.044 C 
ATOM     38  C   UNL     1       5.287  -0.047   6.454  0.00  0.00    +0.044 C 
ENDBRANCH  24  25
ENDBRANCH   1  24
TORSDOF 8
