REMARK  Name = ZINC67236578
REMARK  7 active torsions:
REMARK  status: ('A' for Active; 'I' for Inactive)
REMARK    1  A    between atoms: C_1  and  C_2
REMARK    2  A    between atoms: N_10  and  C_27
REMARK    3  A    between atoms: C_11  and  S_13
REMARK    4  A    between atoms: S_13  and  C_14
REMARK    5  A    between atoms: C_14  and  C_15
REMARK    6  A    between atoms: N_17  and  C_18
REMARK    7  A    between atoms: C_27  and  C_28
REMARK                            x       y       z     vdW  Elec       q    Type
REMARK                         _______ _______ _______ _____ _____    ______ ____
ROOT
ATOM      1  C   UNL     1      -0.072   1.502   0.010  0.00  0.00    +0.063 C 
ATOM      2  C   UNL     1      -0.041  -0.004   0.002  0.00  0.00    +0.016 A 
ATOM      3  C   UNL     1      -0.030  -0.776  -1.103  0.00  0.00    +0.051 A 
ATOM      4  C   UNL     1      -0.001  -2.127  -0.690  0.00  0.00    +0.097 A 
ATOM      5  C   UNL     1       0.004  -2.116   0.710  0.00  0.00    +0.131 A 
ATOM      6  N   UNL     1      -0.015  -0.796   1.109  0.00  0.00    -0.353 N 
ATOM      7  H   UNL     1      -0.012  -0.483   2.027  0.00  0.00    +0.166 HD
ATOM      8  C   UNL     1       0.033  -3.344   1.396  0.00  0.00    +0.279 A 
ATOM      9  O   UNL     1       0.038  -3.378   2.615  0.00  0.00    -0.265 OA
ATOM     10  N   UNL     1       0.053  -4.486   0.673  0.00  0.00    -0.279 N 
ATOM     11  C   UNL     1       0.047  -4.441  -0.691  0.00  0.00    +0.173 A 
ATOM     12  N   UNL     1       0.020  -3.303  -1.346  0.00  0.00    -0.221 NA
ENDROOT
BRANCH  11  13
ATOM     13  S   UNL     1       0.076  -5.951  -1.598  0.00  0.00    -0.078 S 
BRANCH  13  14
ATOM     14  C   UNL     1       0.058  -5.421  -3.333  0.00  0.00    +0.173 C 
BRANCH  14  15
ATOM     15  C   UNL     1       0.080  -6.633  -4.229  0.00  0.00    +0.227 C 
ATOM     16  O   UNL     1       0.105  -7.745  -3.744  0.00  0.00    -0.275 OA
ATOM     17  N   UNL     1       0.071  -6.481  -5.568  0.00  0.00    -0.285 N 
ATOM     18  H   UNL     1      -0.017  -5.597  -5.955  0.00  0.00    +0.155 HD
BRANCH  17  19
ATOM     19  C   UNL     1       0.190  -7.601  -6.399  0.00  0.00    +0.034 A 
ATOM     20  C   UNL     1      -0.387  -8.808  -6.028  0.00  0.00    +0.023 A 
ATOM     21  C   UNL     1      -0.267  -9.909  -6.852  0.00  0.00    +0.006 A 
ATOM     22  C   UNL     1       0.426  -9.815  -8.048  0.00  0.00    -0.044 A 
ATOM     23  C   UNL     1       1.002  -8.614  -8.420  0.00  0.00    -0.042 A 
ATOM     24  C   UNL     1       0.880  -7.506  -7.599  0.00  0.00    +0.027 A 
ATOM     25  C   UNL     1       1.696  -8.771  -9.756  0.00  0.00    +0.036 C 
ATOM     26  C   UNL     1       1.858 -10.294  -9.950  0.00  0.00    +0.009 C 
ATOM     27  C   UNL     1       0.695 -10.860  -9.109  0.00  0.00    +0.036 C 
ENDBRANCH  17  19
ENDBRANCH  14  15
ENDBRANCH  13  14
ENDBRANCH  11  13
BRANCH  10  28
ATOM     28  C   UNL     1       0.083  -5.780   1.359  0.00  0.00    +0.201 C 
BRANCH  28  29
ATOM     29  C   UNL     1      -1.327  -6.253   1.600  0.00  0.00    +0.125 A 
ATOM     30  C   UNL     1      -2.055  -7.015   0.764  0.00  0.00    +0.046 A 
ATOM     31  C   UNL     1      -3.310  -7.219   1.382  0.00  0.00    +0.041 A 
ATOM     32  C   UNL     1      -3.274  -6.569   2.559  0.00  0.00    +0.195 A 
ATOM     33  O   UNL     1      -2.069  -5.991   2.688  0.00  0.00    -0.466 OA
ENDBRANCH  28  29
ENDBRANCH  10  28
TORSDOF 6
