REMARK  Name = ZINC40085608
REMARK  19 active torsions:
REMARK  status: ('A' for Active; 'I' for Inactive)
REMARK    1  A    between atoms: C_1  and  C_2
REMARK    2  A    between atoms: C_2  and  C_3
REMARK    3  A    between atoms: C_3  and  C_4
REMARK    4  A    between atoms: C_4  and  C_5
REMARK    5  A    between atoms: C_5  and  O_6
REMARK    6  A    between atoms: O_6  and  C_7
REMARK    7  A    between atoms: C_11  and  C_13
REMARK    8  A    between atoms: C_15  and  C_27
REMARK    9  A    between atoms: N_19  and  C_20
REMARK   10  A    between atoms: C_20  and  C_21
REMARK   11  A    between atoms: C_21  and  O_22
REMARK   12  A    between atoms: O_22  and  C_23
REMARK   13  A    between atoms: C_23  and  C_24
REMARK   14  A    between atoms: C_24  and  O_25
REMARK   15  A    between atoms: C_27  and  C_29
REMARK   16  A    between atoms: C_32  and  O_36
REMARK   17  A    between atoms: C_33  and  C_35
REMARK   18  A    between atoms: O_36  and  C_37
REMARK   19  A    between atoms: C_37  and  C_38
REMARK                            x       y       z     vdW  Elec       q    Type
REMARK                         _______ _______ _______ _____ _____    ______ ____
ROOT
ATOM      1  C   UNL     1      -5.341  -7.590   0.161  0.00  0.00    +0.145 C 
ATOM      2  C   UNL     1      -5.505  -8.482   1.369  0.00  0.00    +0.076 C 
ATOM      3  C   UNL     1      -6.588  -9.260   1.137  0.00  0.00    +0.249 C 
ATOM      4  C   UNL     1      -7.155  -8.920  -0.185  0.00  0.00    +0.288 C 
ATOM      5  O   UNL     1      -8.133  -9.444  -0.679  0.00  0.00    -0.266 OA
ATOM      6  N   UNL     1      -6.428  -7.943  -0.760  0.00  0.00    -0.281 N 
ATOM      7  O   UNL     1      -7.074 -10.200   1.980  0.00  0.00    -0.282 OA
ENDROOT
BRANCH   1  12
ATOM      8  C   UNL     1      -4.430  -4.019   0.996  0.00  0.00    +0.121 A 
ATOM      9  C   UNL     1      -5.671  -3.486   1.310  0.00  0.00    +0.045 A 
ATOM     10  C   UNL     1      -6.799  -4.281   1.251  0.00  0.00    +0.004 A 
ATOM     11  C   UNL     1      -6.691  -5.609   0.879  0.00  0.00    +0.006 A 
ATOM     12  C   UNL     1      -5.455  -6.143   0.566  0.00  0.00    -0.019 A 
ATOM     13  C   UNL     1      -4.325  -5.350   0.618  0.00  0.00    +0.051 A 
BRANCH   8  14
ATOM     14  O   UNL     1      -3.319  -3.239   1.054  0.00  0.00    -0.492 OA
BRANCH  14  15
ATOM     15  C   UNL     1      -3.502  -1.878   1.451  0.00  0.00    +0.229 C 
BRANCH  15  16
ATOM     16  C   UNL     1      -2.150  -1.162   1.456  0.00  0.00    +0.041 C 
BRANCH  16  17
ATOM     17  C   UNL     1      -2.346   0.294   1.882  0.00  0.00    +0.003 C 
BRANCH  17  19
ATOM     18  C   UNL     1      -1.189   2.467   2.313  0.00  0.00    +0.004 C 
ATOM     19  C   UNL     1      -0.994   1.010   1.888  0.00  0.00    -0.003 C 
ENDBRANCH  17  19
ENDBRANCH  16  17
ENDBRANCH  15  16
ENDBRANCH  14  15
ENDBRANCH   8  14
ENDBRANCH   1  12
BRANCH   2  20
ATOM     20  C   UNL     1      -4.654  -8.501   2.564  0.00  0.00    +0.195 C 
ATOM     21  O   UNL     1      -5.118  -8.193   3.646  0.00  0.00    -0.287 OA
BRANCH  20  22
ATOM     22  C   UNL     1      -3.236  -8.894   2.454  0.00  0.00    +0.023 A 
ATOM     23  C   UNL     1      -2.729  -9.356   1.235  0.00  0.00    +0.015 A 
ATOM     24  C   UNL     1      -1.406  -9.722   1.136  0.00  0.00    +0.046 A 
ATOM     25  C   UNL     1      -0.573  -9.633   2.247  0.00  0.00    +0.123 A 
ATOM     26  C   UNL     1      -1.073  -9.175   3.461  0.00  0.00    -0.008 A 
ATOM     27  C   UNL     1      -2.394  -8.801   3.566  0.00  0.00    +0.018 A 
ATOM     28  C   UNL     1      -0.167  -9.082   4.661  0.00  0.00    +0.047 C 
BRANCH  25  29
ATOM     29  O   UNL     1       0.731  -9.995   2.145  0.00  0.00    -0.492 OA
BRANCH  29  30
ATOM     30  C   UNL     1       1.179 -10.456   0.869  0.00  0.00    +0.225 C 
ATOM     31  C   UNL     1       2.664 -10.815   0.950  0.00  0.00    +0.048 C 
ENDBRANCH  29  30
ENDBRANCH  25  29
ENDBRANCH  20  22
ENDBRANCH   2  20
BRANCH   6  32
ATOM     32  C   UNL     1      -6.677  -7.340  -2.072  0.00  0.00    +0.137 C 
BRANCH  32  33
ATOM     33  C   UNL     1      -5.918  -8.123  -3.146  0.00  0.00    +0.179 C 
BRANCH  33  34
ATOM     34  O   UNL     1      -6.446  -9.447  -3.232  0.00  0.00    -0.376 OA
BRANCH  34  35
ATOM     35  C   UNL     1      -5.803 -10.266  -4.211  0.00  0.00    +0.187 C 
BRANCH  35  36
ATOM     36  C   UNL     1      -6.447 -11.655  -4.217  0.00  0.00    +0.184 C 
BRANCH  36  37
ATOM     37  O   UNL     1      -7.805 -11.548  -4.646  0.00  0.00    -0.393 OA
ATOM     38  H   UNL     1      -8.276 -12.392  -4.674  0.00  0.00    +0.209 HD
ENDBRANCH  36  37
ENDBRANCH  35  36
ENDBRANCH  34  35
ENDBRANCH  33  34
ENDBRANCH  32  33
ENDBRANCH   6  32
TORSDOF 16
