REMARK  Name = ZINC63511935
REMARK  8 active torsions:
REMARK  status: ('A' for Active; 'I' for Inactive)
REMARK    1  A    between atoms: C_1  and  C_2
REMARK    2  A    between atoms: C_7  and  C_8
REMARK    3  A    between atoms: C_8  and  N_9
REMARK    4  A    between atoms: C_10  and  C_12
REMARK    5  A    between atoms: C_12  and  N_13
REMARK    6  A    between atoms: N_13  and  C_14
REMARK    7  A    between atoms: C_14  and  C_21
REMARK    8  A    between atoms: C_23  and  C_26
REMARK                            x       y       z     vdW  Elec       q    Type
REMARK                         _______ _______ _______ _____ _____    ______ ____
ROOT
ATOM      1  N   UNL     1      -2.979   2.339   5.559  0.00  0.00    +0.393 N 
ATOM      2  H   UNL     1      -2.471   3.177   5.319  0.00  0.00    -0.084 HD
ATOM      3  H   UNL     1      -2.925   1.683   4.794  0.00  0.00    -0.084 HD
ENDROOT
BRANCH   1   4
ATOM      4  C   UNL     1      -4.386   2.675   5.816  0.00  0.00    -0.003 C 
ATOM      5  C   UNL     1      -4.936   3.412   4.626  0.00  0.00    -0.005 C 
ATOM      6  C   UNL     1      -3.771   4.124   3.908  0.00  0.00    -0.001 C 
ATOM      7  C   UNL     1      -3.394   5.368   4.562  0.00  0.00    -0.000 C 
ATOM      8  C   UNL     1      -2.895   5.147   6.004  0.00  0.00    -0.000 C 
ATOM      9  C   UNL     1      -4.090   4.982   6.904  0.00  0.00    -0.001 C 
ATOM     10  C   UNL     1      -4.470   3.503   7.113  0.00  0.00    -0.005 C 
BRANCH   4  11
ATOM     11  C   UNL     1      -5.166   1.399   6.001  0.00  0.00    +0.161 A 
ATOM     12  N   UNL     1      -5.210   0.382   5.134  0.00  0.00    -0.198 NA
ATOM     13  C   UNL     1      -5.975  -0.568   5.596  0.00  0.00    +0.224 A 
ATOM     14  O   UNL     1      -6.450  -0.182   6.787  0.00  0.00    -0.338 OA
ATOM     15  N   UNL     1      -5.903   1.105   7.034  0.00  0.00    -0.063 NA
ATOM     16  C   UNL     1      -6.274  -1.875   4.907  0.00  0.00    +0.112 C 
ENDBRANCH   4  11
ENDBRANCH   1   4
BRANCH   1  17
ATOM     17  C   UNL     1      -2.391   1.736   6.763  0.00  0.00    +0.016 C 
BRANCH  17  19
ATOM     18  N   UNL     1      -0.256   0.672   7.417  0.00  0.00    -0.313 N 
ATOM     19  C   UNL     1      -0.994   1.262   6.456  0.00  0.00    +0.196 C 
ATOM     20  O   UNL     1      -0.534   1.411   5.344  0.00  0.00    -0.278 OA
ATOM     21  H   UNL     1      -0.625   0.553   8.306  0.00  0.00    +0.149 HD
BRANCH  18  22
ATOM     22  C   UNL     1       1.102   0.211   7.119  0.00  0.00    +0.139 C 
BRANCH  22  29
ATOM     23  C   UNL     1       0.422  -2.498   7.858  0.00  0.00    +0.044 C 
ATOM     24  C   UNL     1       1.380  -1.703   8.708  0.00  0.00    -0.046 A 
ATOM     25  C   UNL     1       1.938  -2.272   9.838  0.00  0.00    +0.003 A 
ATOM     26  C   UNL     1       2.816  -1.543  10.616  0.00  0.00    +0.000 A 
ATOM     27  C   UNL     1       3.138  -0.245  10.265  0.00  0.00    +0.000 A 
ATOM     28  C   UNL     1       2.581   0.324   9.135  0.00  0.00    +0.005 A 
ATOM     29  C   UNL     1       1.705  -0.407   8.354  0.00  0.00    -0.027 A 
ENDBRANCH  22  29
ENDBRANCH  18  22
ENDBRANCH  17  19
ENDBRANCH   1  17
TORSDOF 6
