REMARK  Name = ZINC02476414
REMARK  4 active torsions:
REMARK  status: ('A' for Active; 'I' for Inactive)
REMARK    1  A    between atoms: C_1  and  C_2
REMARK    2  A    between atoms: C_3  and  C_15
REMARK    3  A    between atoms: C_4  and  C_10
REMARK    4  A    between atoms: N_17  and  C_18
REMARK                            x       y       z     vdW  Elec       q    Type
REMARK                         _______ _______ _______ _____ _____    ______ ____
ROOT
ATOM      1  C   UNL     1      -0.685   1.228  -1.237  0.00  0.00    +0.061 C 
ATOM      2  C   UNL     1      -0.441  -0.217  -0.889  0.00  0.00    +0.017 C 
ATOM      3  C   UNL     1      -1.369  -0.895  -0.181  0.00  0.00    +0.059 C 
ATOM      4  C   UNL     1      -1.084  -2.347   0.148  0.00  0.00    +0.175 C 
ATOM      5  N   UNL     1       0.191  -2.903  -0.337  0.00  0.00    -0.313 N 
ATOM      6  C   UNL     1       1.018  -2.098  -1.034  0.00  0.00    +0.135 C 
ATOM      7  N   UNL     1       0.712  -0.822  -1.300  0.00  0.00    -0.300 N 
ATOM      8  S   UNL     1       2.503  -2.731  -1.603  0.00  0.00    -0.019 S 
ATOM      9  H   UNL     1       1.348  -0.296  -1.811  0.00  0.00    +0.154 HD
ATOM     10  H   UNL     1       0.430  -3.825  -0.158  0.00  0.00    +0.149 HD
ENDROOT
BRANCH   4  11
ATOM     11  C   UNL     1      -1.117  -2.499   1.647  0.00  0.00    +0.130 A 
ATOM     12  C   UNL     1      -2.045  -3.174   2.349  0.00  0.00    +0.047 A 
ATOM     13  C   UNL     1      -1.690  -3.058   3.713  0.00  0.00    +0.041 A 
ATOM     14  C   UNL     1      -0.567  -2.320   3.762  0.00  0.00    +0.195 A 
ATOM     15  O   UNL     1      -0.221  -1.989   2.508  0.00  0.00    -0.466 OA
ENDBRANCH   4  11
BRANCH   3  16
ATOM     16  C   UNL     1      -2.567  -0.271   0.242  0.00  0.00    +0.248 C 
ATOM     17  O   UNL     1      -2.720   0.926   0.080  0.00  0.00    -0.270 OA
ATOM     18  N   UNL     1      -3.539  -1.001   0.823  0.00  0.00    -0.282 N 
ATOM     19  H   UNL     1      -3.402  -1.948   0.987  0.00  0.00    +0.155 HD
BRANCH  18  20
ATOM     20  C   UNL     1      -4.745  -0.396   1.190  0.00  0.00    +0.034 A 
ATOM     21  C   UNL     1      -4.746   0.886   1.726  0.00  0.00    +0.023 A 
ATOM     22  C   UNL     1      -5.938   1.481   2.087  0.00  0.00    +0.002 A 
ATOM     23  C   UNL     1      -7.131   0.803   1.916  0.00  0.00    +0.000 A 
ATOM     24  C   UNL     1      -7.134  -0.473   1.383  0.00  0.00    +0.002 A 
ATOM     25  C   UNL     1      -5.946  -1.071   1.014  0.00  0.00    +0.023 A 
ENDBRANCH  18  20
ENDBRANCH   3  16
TORSDOF 3
