REMARK  Name = ZINC44912202
REMARK  13 active torsions:
REMARK  status: ('A' for Active; 'I' for Inactive)
REMARK    1  A    between atoms: C_1  and  C_2
REMARK    2  A    between atoms: C_2  and  O_3
REMARK    3  A    between atoms: O_3  and  C_4
REMARK    4  A    between atoms: C_4  and  C_6
REMARK    5  A    between atoms: C_9  and  N_13
REMARK    6  A    between atoms: C_10  and  C_12
REMARK    7  A    between atoms: C_14  and  C_16
REMARK    8  A    between atoms: N_19  and  S_31
REMARK    9  A    between atoms: C_22  and  C_27
REMARK   10  A    between atoms: C_27  and  C_28
REMARK   11  A    between atoms: C_27  and  C_29
REMARK   12  A    between atoms: C_27  and  C_30
REMARK   13  A    between atoms: S_31  and  C_34
REMARK                            x       y       z     vdW  Elec       q    Type
REMARK                         _______ _______ _______ _____ _____    ______ ____
ROOT
ATOM      1  C   UNL     1       4.243  -3.673  -8.413  0.00  0.00    +0.278 C 
ATOM      2  C   UNL     1       5.455  -4.463  -7.897  0.00  0.00    +0.185 C 
ATOM      3  N   UNL     1       6.261  -4.854  -9.066  0.00  0.00    -0.200 N 
ATOM      4  C   UNL     1       6.447  -3.901 -10.080  0.00  0.00    +0.093 A 
ATOM      5  C   UNL     1       7.415  -4.101 -11.052  0.00  0.00    +0.032 A 
ATOM      6  C   UNL     1       7.592  -3.160 -12.050  0.00  0.00    -0.040 A 
ATOM      7  C   UNL     1       6.806  -2.024 -12.079  0.00  0.00    +0.008 A 
ATOM      8  C   UNL     1       5.840  -1.819 -11.111  0.00  0.00    +0.048 A 
ATOM      9  C   UNL     1       5.657  -2.755 -10.104  0.00  0.00    +0.144 A 
ATOM     10  O   UNL     1       4.708  -2.542  -9.154  0.00  0.00    -0.476 OA
ENDROOT
BRANCH   1  12
ATOM     11  N   UNL     1       2.788  -4.106  -6.460  0.00  0.00    -0.282 N 
ATOM     12  C   UNL     1       3.412  -3.206  -7.246  0.00  0.00    +0.260 C 
ATOM     13  O   UNL     1       3.303  -2.020  -7.015  0.00  0.00    -0.271 OA
ATOM     14  H   UNL     1       2.922  -5.055  -6.608  0.00  0.00    +0.155 HD
BRANCH  11  18
ATOM     15  C   UNL     1       0.283  -2.810  -3.394  0.00  0.00    +0.059 A 
ATOM     16  C   UNL     1       1.363  -2.019  -3.799  0.00  0.00    +0.017 A 
ATOM     17  C   UNL     1       2.189  -2.450  -4.812  0.00  0.00    +0.024 A 
ATOM     18  C   UNL     1       1.950  -3.672  -5.434  0.00  0.00    +0.036 A 
ATOM     19  C   UNL     1       0.876  -4.461  -5.035  0.00  0.00    -0.028 A 
ATOM     20  C   UNL     1       0.050  -4.039  -4.018  0.00  0.00    +0.020 A 
ATOM     21  C   UNL     1       0.620  -5.783  -5.712  0.00  0.00    +0.045 C 
BRANCH  15  22
ATOM     22  C   UNL     1      -0.603  -2.351  -2.309  0.00  0.00    +0.339 C 
ATOM     23  O   UNL     1      -1.538  -3.042  -1.955  0.00  0.00    -0.245 OA
BRANCH  22  24
ATOM     24  O   UNL     1      -0.376  -1.166  -1.709  0.00  0.00    -0.461 OA
BRANCH  24  26
ATOM     25  C   UNL     1      -0.860   0.579  -0.109  0.00  0.00    +0.048 C 
ATOM     26  C   UNL     1      -1.274  -0.785  -0.665  0.00  0.00    +0.229 C 
ENDBRANCH  24  26
ENDBRANCH  22  24
ENDBRANCH  15  22
ENDBRANCH  11  18
ENDBRANCH   1  12
BRANCH   6  27
ATOM     27  C   UNL     1       8.643  -3.375 -13.108  0.00  0.00    -0.013 C 
ATOM     28  C   UNL     1       8.346  -4.670 -13.868  0.00  0.00    +0.015 C 
ATOM     29  C   UNL     1       8.633  -2.197 -14.085  0.00  0.00    +0.015 C 
ATOM     30  C   UNL     1      10.019  -3.477 -12.447  0.00  0.00    +0.015 C 
ENDBRANCH   6  27
BRANCH   3  31
ATOM     31  S   UNL     1       6.925  -6.367  -9.181  0.00  0.00    +0.043 S 
ATOM     32  O   UNL     1       6.198  -7.154  -8.247  0.00  0.00    -0.155 OA
ATOM     33  O   UNL     1       6.892  -6.674 -10.568  0.00  0.00    -0.155 OA
ATOM     34  C   UNL     1       8.641  -6.166  -8.626  0.00  0.00    +0.218 C 
ENDBRANCH   3  31
TORSDOF 7
