REMARK  Name = ZINC09934891
REMARK  5 active torsions:
REMARK  status: ('A' for Active; 'I' for Inactive)
REMARK    1  A    between atoms: N_9  and  C_12
REMARK    2  A    between atoms: C_12  and  C_13
REMARK    3  A    between atoms: C_18  and  C_20
REMARK    4  A    between atoms: N_25  and  C_26
REMARK    5  A    between atoms: C_26  and  C_27
REMARK                            x       y       z     vdW  Elec       q    Type
REMARK                         _______ _______ _______ _____ _____    ______ ____
ROOT
ATOM      1  C   UNL     1      -5.996   1.733   0.035  0.00  0.00    +0.268 C 
ATOM      2  O   UNL     1      -6.875   0.898   0.034  0.00  0.00    -0.269 OA
ATOM      3  N   UNL     1      -4.703   1.351   0.028  0.00  0.00    -0.165 N 
ATOM      4  C   UNL     1      -4.228   0.070   0.018  0.00  0.00    +0.222 A 
ATOM      5  N   UNL     1      -2.916   0.127   0.009  0.00  0.00    -0.190 NA
ATOM      6  C   UNL     1      -2.518   1.411   0.020  0.00  0.00    +0.219 A 
ATOM      7  N   UNL     1      -3.577   2.190   0.029  0.00  0.00    -0.138 NA
ATOM      8  N   UNL     1      -4.991  -1.079   0.014  0.00  0.00    -0.309 N 
ATOM      9  H   UNL     1      -5.959  -1.019   0.017  0.00  0.00    +0.149 HD
ENDROOT
BRANCH   6  10
ATOM     10  C   UNL     1      -1.115   1.872   0.017  0.00  0.00    +0.173 A 
ATOM     11  C   UNL     1      -0.013   1.076   0.008  0.00  0.00    +0.053 A 
ATOM     12  C   UNL     1       1.106   1.932   0.002  0.00  0.00    +0.042 A 
ATOM     13  C   UNL     1       0.637   3.195   0.013  0.00  0.00    +0.196 A 
ATOM     14  O   UNL     1      -0.705   3.155   0.025  0.00  0.00    -0.460 OA
ENDBRANCH   6  10
BRANCH   1  15
ATOM     15  C   UNL     1      -6.348   3.198   0.045  0.00  0.00    +0.217 C 
BRANCH  15  24
ATOM     16  C   UNL     1     -12.358   3.822   0.764  0.00  0.00    +0.001 A 
ATOM     17  C   UNL     1     -12.363   3.830  -0.618  0.00  0.00    +0.001 A 
ATOM     18  C   UNL     1     -11.178   3.710  -1.327  0.00  0.00    +0.014 A 
ATOM     19  C   UNL     1      -9.979   3.581  -0.643  0.00  0.00    +0.049 A 
ATOM     20  C   UNL     1      -9.974   3.572   0.766  0.00  0.00    +0.049 A 
ATOM     21  C   UNL     1     -11.167   3.693   1.461  0.00  0.00    +0.014 A 
ATOM     22  C   UNL     1      -8.558   3.422   1.164  0.00  0.00    +0.254 C 
ATOM     23  O   UNL     1      -8.144   3.372   2.305  0.00  0.00    -0.270 OA
ATOM     24  N   UNL     1      -7.806   3.350   0.052  0.00  0.00    -0.225 N 
ATOM     25  C   UNL     1      -8.566   3.441  -1.054  0.00  0.00    +0.254 C 
ATOM     26  O   UNL     1      -8.161   3.410  -2.198  0.00  0.00    -0.270 OA
ENDBRANCH  15  24
ENDBRANCH   1  15
BRANCH   8  27
ATOM     27  C   UNL     1      -4.339  -2.391   0.003  0.00  0.00    +0.139 C 
BRANCH  27  28
ATOM     28  C   UNL     1      -5.388  -3.473   0.000  0.00  0.00    -0.030 A 
ATOM     29  C   UNL     1      -5.860  -3.981   1.196  0.00  0.00    +0.006 A 
ATOM     30  C   UNL     1      -6.826  -4.969   1.194  0.00  0.00    +0.020 A 
ATOM     31  C   UNL     1      -7.312  -5.459  -0.005  0.00  0.00    +0.041 A 
ATOM     32  C   UNL     1      -6.834  -4.954  -1.202  0.00  0.00    +0.020 A 
ATOM     33  C   UNL     1      -5.872  -3.962  -1.198  0.00  0.00    +0.006 A 
ATOM     34 CL   UNL     1      -8.520  -6.705  -0.009  0.00  0.00    -0.084 Cl
ENDBRANCH  27  28
ENDBRANCH   8  27
TORSDOF 5
