REMARK  Name = ZINC39620922
REMARK  6 active torsions:
REMARK  status: ('A' for Active; 'I' for Inactive)
REMARK    1  A    between atoms: C_1  and  C_2
REMARK    2  A    between atoms: C_9  and  C_16
REMARK    3  A    between atoms: C_11  and  O_12
REMARK    4  A    between atoms: C_16  and  S_17
REMARK    5  A    between atoms: S_17  and  C_18
REMARK    6  A    between atoms: C_23  and  C_28
REMARK                            x       y       z     vdW  Elec       q    Type
REMARK                         _______ _______ _______ _____ _____    ______ ____
ROOT
ATOM      1  C   UNL     1       0.076   1.452   0.029  0.00  0.00    +0.109 C 
ATOM      2  C   UNL     1      -0.007  -0.031  -0.226  0.00  0.00    +0.214 C 
ATOM      3  O   UNL     1       0.965  -0.631  -0.650  0.00  0.00    -0.276 OA
ATOM      4  N   UNL     1      -1.131  -0.679   0.009  0.00  0.00    -0.286 N 
ATOM      5  C   UNL     1      -1.167  -2.037  -0.086  0.00  0.00    +0.037 A 
ATOM      6  C   UNL     1      -2.404  -2.699  -0.180  0.00  0.00    +0.024 A 
ATOM      7  C   UNL     1      -2.453  -4.053  -0.276  0.00  0.00    +0.013 A 
ATOM      8  C   UNL     1      -1.261  -4.800  -0.281  0.00  0.00    +0.022 A 
ATOM      9  C   UNL     1      -1.291  -6.207  -0.380  0.00  0.00    -0.020 A 
ATOM     10  C   UNL     1      -0.093  -6.893  -0.381  0.00  0.00    +0.092 A 
ATOM     11  C   UNL     1       1.104  -6.197  -0.285  0.00  0.00    +0.285 A 
ATOM     12  O   UNL     1       1.127  -4.863  -0.192  0.00  0.00    -0.425 OA
ATOM     13  C   UNL     1      -0.014  -4.143  -0.186  0.00  0.00    +0.141 A 
ATOM     14  C   UNL     1       0.025  -2.763  -0.095  0.00  0.00    +0.070 A 
ATOM     15  H   UNL     1      -1.932  -0.188   0.250  0.00  0.00    +0.155 HD
ENDROOT
BRANCH  11  16
ATOM     16  O   UNL     1       2.265  -6.878  -0.288  0.00  0.00    -0.480 OA
ATOM     17  H   UNL     1       3.050  -6.318  -0.218  0.00  0.00    +0.295 HD
ENDBRANCH  11  16
BRANCH   9  18
ATOM     18  C   UNL     1      -2.601  -6.944  -0.482  0.00  0.00    +0.113 C 
BRANCH  18  19
ATOM     19  S   UNL     1      -2.845  -7.510  -2.188  0.00  0.00    -0.084 S 
BRANCH  19  20
ATOM     20  C   UNL     1      -4.397  -8.342  -2.143  0.00  0.00    +0.182 C 
ATOM     21  N   UNL     1      -5.058  -8.404  -0.998  0.00  0.00    -0.151 NA
ATOM     22  C   UNL     1      -6.236  -9.018  -0.897  0.00  0.00    +0.272 C 
ATOM     23  O   UNL     1      -6.828  -9.061   0.171  0.00  0.00    -0.268 OA
ATOM     24  C   UNL     1      -6.817  -9.650  -2.115  0.00  0.00    +0.076 C 
ATOM     25  C   UNL     1      -8.020 -10.328  -2.214  0.00  0.00    -0.009 C 
ATOM     26  C   UNL     1      -8.379 -10.877  -3.577  0.00  0.00    +0.113 C 
ATOM     27  S   UNL     1      -6.927 -10.347  -4.571  0.00  0.00    -0.100 S 
ATOM     28  C   UNL     1      -6.019  -9.521  -3.287  0.00  0.00    +0.112 C 
ATOM     29  N   UNL     1      -4.870  -8.884  -3.263  0.00  0.00    -0.217 NA
BRANCH  25  30
ATOM     30  C   UNL     1      -8.862 -10.499  -1.107  0.00  0.00    +0.017 A 
ATOM     31  C   UNL     1     -10.150  -9.997  -0.893  0.00  0.00    +0.016 A 
ATOM     32  C   UNL     1     -10.726 -10.338   0.301  0.00  0.00    +0.008 A 
ATOM     33  C   UNL     1     -10.031 -11.118   1.174  0.00  0.00    +0.046 A 
ATOM     34  S   UNL     1      -8.574 -11.417   0.394  0.00  0.00    -0.097 S 
ENDBRANCH  25  30
ENDBRANCH  19  20
ENDBRANCH  18  19
ENDBRANCH   9  18
TORSDOF 5
