REMARK  Name = ZINC20405897
REMARK  5 active torsions:
REMARK  status: ('A' for Active; 'I' for Inactive)
REMARK    1  A    between atoms: C_10  and  C_12
REMARK    2  A    between atoms: C_16  and  C_27
REMARK    3  A    between atoms: C_18  and  N_22
REMARK    4  A    between atoms: C_32  and  O_33
REMARK    5  A    between atoms: O_33  and  C_34
REMARK                            x       y       z     vdW  Elec       q    Type
REMARK                         _______ _______ _______ _____ _____    ______ ____
ROOT
ATOM      1  C   UNL     1       4.248  -1.065  -0.643  0.00  0.00    +0.145 C 
ATOM      2  C   UNL     1       4.570  -1.342   0.812  0.00  0.00    +0.146 C 
ATOM      3  O   UNL     1       5.690  -1.633   1.155  0.00  0.00    -0.297 OA
ATOM      4  C   UNL     1       3.448  -1.243   1.821  0.00  0.00    +0.086 C 
ATOM      5  C   UNL     1       2.298  -2.152   1.381  0.00  0.00    +0.062 C 
ATOM      6  C   UNL     1       1.820  -1.738  -0.014  0.00  0.00    +0.183 C 
ATOM      7  C   UNL     1       2.981  -1.825  -0.979  0.00  0.00    +0.170 C 
ATOM      8  O   UNL     1       2.900  -2.482  -1.989  0.00  0.00    -0.294 OA
ENDROOT
BRANCH   1  18
ATOM      9  C   UNL     1       8.900   0.699  -0.554  0.00  0.00    +0.000 A 
ATOM     10  C   UNL     1       7.669   1.321  -0.649  0.00  0.00    +0.000 A 
ATOM     11  C   UNL     1       6.547   0.581  -0.964  0.00  0.00    +0.005 A 
ATOM     12  C   UNL     1       6.647  -0.784  -1.187  0.00  0.00    -0.026 A 
ATOM     13  C   UNL     1       7.874  -1.405  -1.089  0.00  0.00    -0.041 A 
ATOM     14  C   UNL     1       9.001  -0.660  -0.773  0.00  0.00    +0.004 A 
ATOM     15  C   UNL     1       8.031  -2.887  -1.311  0.00  0.00    +0.050 C 
ATOM     16  C   UNL     1       6.803  -3.439  -2.035  0.00  0.00    +0.086 C 
ATOM     17  N   UNL     1       5.597  -2.985  -1.324  0.00  0.00    -0.308 NA
ATOM     18  C   UNL     1       5.395  -1.548  -1.532  0.00  0.00    +0.102 C 
ATOM     19  H   UNL     1       4.720  -3.530  -1.703  0.00  0.00    +0.123 HD
ENDBRANCH   1  18
BRANCH   5  20
ATOM     20  C   UNL     1       1.158  -2.030   2.359  0.00  0.00    +0.001 A 
ATOM     21  C   UNL     1       0.552  -0.806   2.564  0.00  0.00    +0.007 A 
ATOM     22  C   UNL     1      -0.494  -0.693   3.461  0.00  0.00    +0.001 A 
ATOM     23  C   UNL     1      -0.936  -1.804   4.155  0.00  0.00    +0.004 A 
ATOM     24  C   UNL     1      -0.334  -3.030   3.953  0.00  0.00    +0.046 A 
ATOM     25  C   UNL     1       0.713  -3.148   3.050  0.00  0.00    +0.132 A 
BRANCH  25  26
ATOM     26  O   UNL     1       1.304  -4.354   2.846  0.00  0.00    -0.456 OA
BRANCH  26  27
ATOM     27  C   UNL     1       0.769  -5.439   3.464  0.00  0.00    +0.130 A 
ATOM     28  C   UNL     1      -0.390  -6.020   2.968  0.00  0.00    +0.046 A 
ATOM     29  C   UNL     1      -0.932  -7.123   3.598  0.00  0.00    +0.005 A 
ATOM     30  C   UNL     1      -0.322  -7.650   4.722  0.00  0.00    +0.020 A 
ATOM     31  C   UNL     1       0.833  -7.073   5.218  0.00  0.00    +0.044 A 
ATOM     32  C   UNL     1       1.383  -5.972   4.588  0.00  0.00    +0.066 A 
ATOM     33 CL   UNL     1       1.597  -7.736   6.629  0.00  0.00    -0.083 Cl
ENDBRANCH  26  27
ENDBRANCH  25  26
ENDBRANCH   5  20
BRANCH   6  34
ATOM     34  N   UNL     1       1.320  -0.362   0.028  0.00  0.00    -0.241 N 
ATOM     35  C   UNL     1       0.057   0.044  -0.189  0.00  0.00    +0.219 A 
ATOM     36  N   UNL     1       0.021   1.345  -0.060  0.00  0.00    -0.223 NA
ATOM     37  C   UNL     1       1.235   1.804   0.238  0.00  0.00    +0.245 A 
ATOM     38  N   UNL     1       2.065   0.796   0.303  0.00  0.00    -0.158 NA
ENDBRANCH   6  34
TORSDOF 5
