REMARK  Name = ZINC08790241
REMARK  7 active torsions:
REMARK  status: ('A' for Active; 'I' for Inactive)
REMARK    1  A    between atoms: C_1  and  C_2
REMARK    2  A    between atoms: C_7  and  C_8
REMARK    3  A    between atoms: C_17  and  C_19
REMARK    4  A    between atoms: C_19  and  C_21
REMARK    5  A    between atoms: C_19  and  O_22
REMARK    6  A    between atoms: N_25  and  C_28
REMARK    7  A    between atoms: C_28  and  C_29
REMARK                            x       y       z     vdW  Elec       q    Type
REMARK                         _______ _______ _______ _____ _____    ______ ____
ROOT
ATOM      1  C   UNL     1       1.493   7.225   0.144  0.00  0.00    +0.044 C 
ATOM      2  C   UNL     1       0.711   5.938   0.091  0.00  0.00    -0.046 A 
ATOM      3  C   UNL     1      -0.670   5.968   0.169  0.00  0.00    +0.004 A 
ATOM      4  C   UNL     1      -1.388   4.787   0.121  0.00  0.00    +0.005 A 
ATOM      5  C   UNL     1      -0.729   3.584  -0.004  0.00  0.00    -0.027 A 
ATOM      6  C   UNL     1       0.660   3.541  -0.083  0.00  0.00    +0.039 A 
ATOM      7  C   UNL     1       1.375   4.735  -0.034  0.00  0.00    -0.026 A 
ATOM      8  C   UNL     1       2.880   4.714  -0.117  0.00  0.00    +0.046 C 
ATOM      9  N   UNL     1       1.096   2.220  -0.203  0.00  0.00    -0.286 N 
ATOM     10  C   UNL     1       0.071   1.345  -0.213  0.00  0.00    +0.211 C 
ATOM     11  O   UNL     1       0.150   0.139  -0.308  0.00  0.00    -0.277 OA
ATOM     12  C   UNL     1      -1.189   2.156  -0.092  0.00  0.00    +0.050 C 
ATOM     13  C   UNL     1      -1.999   1.751   1.146  0.00  0.00    +0.088 C 
ATOM     14  C   UNL     1      -3.483   1.889   0.705  0.00  0.00    +0.075 C 
ATOM     15  C   UNL     1      -3.418   2.376  -0.758  0.00  0.00    -0.028 C 
ATOM     16  C   UNL     1      -4.006   0.472   0.737  0.00  0.00    +0.224 C 
ATOM     17  O   UNL     1      -5.136   0.136   0.455  0.00  0.00    -0.275 OA
ATOM     18  N   UNL     1      -3.005  -0.349   1.129  0.00  0.00    -0.237 N 
ATOM     19  C   UNL     1      -1.845   0.266   1.389  0.00  0.00    +0.225 C 
ATOM     20  O   UNL     1      -0.830  -0.281   1.760  0.00  0.00    -0.275 OA
ATOM     21  H   UNL     1       2.029   1.962  -0.271  0.00  0.00    +0.155 HD
ATOM     22  N   UNL     1      -2.091   1.956  -1.213  0.00  0.00    +0.396 N 
ATOM     23  H   UNL     1      -2.105   0.966  -1.484  0.00  0.00    -0.083 HD
ATOM     24  H   UNL     1      -1.793   2.525  -2.014  0.00  0.00    -0.083 HD
ENDROOT
BRANCH  15  25
ATOM     25  C   UNL     1      -4.525   1.723  -1.588  0.00  0.00    +0.098 C 
ATOM     26  C   UNL     1      -5.882   2.288  -1.163  0.00  0.00    +0.036 C 
BRANCH  25  27
ATOM     27  O   UNL     1      -4.307   1.999  -2.974  0.00  0.00    -0.394 OA
ATOM     28  H   UNL     1      -4.305   2.941  -3.191  0.00  0.00    +0.210 HD
ENDBRANCH  25  27
ENDBRANCH  15  25
BRANCH  18  29
ATOM     29  C   UNL     1      -3.181  -1.797   1.265  0.00  0.00    +0.151 C 
BRANCH  29  30
ATOM     30  C   UNL     1      -3.636  -2.119   2.665  0.00  0.00    -0.026 A 
ATOM     31  C   UNL     1      -4.987  -2.159   2.959  0.00  0.00    +0.009 A 
ATOM     32  C   UNL     1      -5.410  -2.454   4.241  0.00  0.00    +0.050 A 
ATOM     33  C   UNL     1      -4.481  -2.709   5.237  0.00  0.00    +0.166 A 
ATOM     34  C   UNL     1      -3.120  -2.668   4.941  0.00  0.00    +0.167 A 
ATOM     35  C   UNL     1      -2.704  -2.377   3.652  0.00  0.00    +0.054 A 
ATOM     36  O   UNL     1      -2.418  -2.951   6.077  0.00  0.00    -0.453 OA
ATOM     37  C   UNL     1      -3.348  -2.764   7.160  0.00  0.00    +0.466 C 
ATOM     38  O   UNL     1      -4.631  -3.018   6.558  0.00  0.00    -0.453 OA
ENDBRANCH  29  30
ENDBRANCH  18  29
TORSDOF 4
