REMARK  Name = ZINC24808734
REMARK  9 active torsions:
REMARK  status: ('A' for Active; 'I' for Inactive)
REMARK    1  A    between atoms: C_1  and  C_2
REMARK    2  A    between atoms: C_2  and  C_3
REMARK    3  A    between atoms: C_3  and  C_26
REMARK    4  A    between atoms: N_6  and  N_10
REMARK    5  A    between atoms: C_11  and  C_13
REMARK    6  A    between atoms: C_13  and  N_14
REMARK    7  A    between atoms: N_14  and  C_15
REMARK    8  A    between atoms: C_15  and  C_17
REMARK    9  A    between atoms: C_15  and  C_18
REMARK                            x       y       z     vdW  Elec       q    Type
REMARK                         _______ _______ _______ _____ _____    ______ ____
ROOT
ATOM      1  N   UNL     1      -1.460   4.194  -2.019  0.00  0.00    -0.225 N 
ATOM      2  C   UNL     1      -0.799   3.493  -1.076  0.00  0.00    +0.213 C 
ATOM      3  O   UNL     1      -0.203   4.075  -0.194  0.00  0.00    -0.276 OA
ATOM      4  H   UNL     1      -2.000   3.667  -2.819  0.00  0.00    +0.173 HD
ENDROOT
BRANCH   1   8
ATOM      5  C   UNL     1      -1.043   7.801  -2.403  0.00  0.00    +0.139 C 
ATOM      6  C   UNL     1      -0.732   6.374  -2.807  0.00  0.00    +0.268 C 
ATOM      7  O   UNL     1       0.014   6.009  -3.690  0.00  0.00    -0.271 OA
ATOM      8  N   UNL     1      -1.457   5.595  -1.980  0.00  0.00    -0.137 N 
ATOM      9  C   UNL     1      -2.179   6.324  -1.122  0.00  0.00    +0.327 C 
ATOM     10  O   UNL     1      -2.916   5.846  -0.281  0.00  0.00    -0.251 OA
ATOM     11  N   UNL     1      -1.996   7.646  -1.291  0.00  0.00    -0.280 N 
ATOM     12  H   UNL     1      -2.401   8.536  -0.785  0.00  0.00    +0.152 HD
BRANCH   5  13
ATOM     13  C   UNL     1      -1.675   8.551  -3.547  0.00  0.00    -0.015 A 
ATOM     14  C   UNL     1      -0.882   9.254  -4.435  0.00  0.00    +0.006 A 
ATOM     15  C   UNL     1      -1.462   9.937  -5.487  0.00  0.00    +0.000 A 
ATOM     16  C   UNL     1      -2.835   9.926  -5.646  0.00  0.00    +0.000 A 
ATOM     17  C   UNL     1      -3.628   9.229  -4.755  0.00  0.00    +0.000 A 
ATOM     18  C   UNL     1      -3.048   8.540  -3.705  0.00  0.00    +0.006 A 
ENDBRANCH   5  13
BRANCH   5  20
ATOM     19  C   UNL     1       0.817   7.764  -0.735  0.00  0.00    +0.007 C 
ATOM     20  C   UNL     1       0.225   8.515  -1.929  0.00  0.00    +0.037 C 
ENDBRANCH   5  20
ENDBRANCH   1   8
BRANCH   2  21
ATOM     21  C   UNL     1      -0.802   1.987  -1.117  0.00  0.00    +0.017 C 
BRANCH  21  22
ATOM     22  N   UNL     1      -0.018   1.465   0.010  0.00  0.00    +0.389 N 
ATOM     23  H   UNL     1       1.017   1.832  -0.061  0.00  0.00    -0.084 HD
ATOM     24  H   UNL     1      -0.464   1.806   0.956  0.00  0.00    -0.084 HD
BRANCH  22  25
ATOM     25  C   UNL     1       0.002  -0.004   0.002  0.00  0.00    -0.042 C 
ATOM     26  C   UNL     1      -1.246  -0.535   0.709  0.00  0.00    -0.009 C 
BRANCH  25  27
ATOM     27  C   UNL     1       1.233  -0.494   0.720  0.00  0.00    -0.043 A 
ATOM     28  C   UNL     1       1.842   0.304   1.671  0.00  0.00    +0.005 A 
ATOM     29  C   UNL     1       2.967  -0.146   2.334  0.00  0.00    +0.020 A 
ATOM     30  C   UNL     1       3.492  -1.392   2.039  0.00  0.00    +0.042 A 
ATOM     31  C   UNL     1       2.887  -2.189   1.084  0.00  0.00    +0.040 A 
ATOM     32  C   UNL     1       1.757  -1.739   0.424  0.00  0.00    +0.044 A 
ATOM     33 CL   UNL     1       0.997  -2.738  -0.775  0.00  0.00    -0.083 Cl
ATOM     34 CL   UNL     1       4.910  -1.956   2.868  0.00  0.00    -0.083 Cl
ENDBRANCH  25  27
ENDBRANCH  22  25
ENDBRANCH  21  22
ENDBRANCH   2  21
TORSDOF 7
