REMARK  Name = ZINC19809943
REMARK  9 active torsions:
REMARK  status: ('A' for Active; 'I' for Inactive)
REMARK    1  A    between atoms: C_1  and  C_2
REMARK    2  A    between atoms: C_2  and  O_3
REMARK    3  A    between atoms: O_3  and  C_4
REMARK    4  A    between atoms: C_4  and  C_6
REMARK    5  A    between atoms: C_10  and  N_11
REMARK    6  A    between atoms: C_12  and  C_14
REMARK    7  A    between atoms: C_20  and  O_25
REMARK    8  A    between atoms: O_25  and  C_26
REMARK    9  A    between atoms: C_29  and  C_33
REMARK                            x       y       z     vdW  Elec       q    Type
REMARK                         _______ _______ _______ _____ _____    ______ ____
ROOT
ATOM      1  N   UNL     1       4.611   0.896   4.419  0.00  0.00    -0.275 N 
ATOM      2  C   UNL     1       5.895   1.106   4.066  0.00  0.00    +0.249 C 
ATOM      3  O   UNL     1       6.169   1.401   2.922  0.00  0.00    -0.270 OA
ATOM      4  H   UNL     1       4.362   0.628   5.456  0.00  0.00    +0.156 HD
ENDROOT
BRANCH   2   5
ATOM      5  C   UNL     1       6.965   0.975   5.069  0.00  0.00    +0.041 C 
ATOM      6  C   UNL     1       8.184   1.181   4.680  0.00  0.00    +0.025 C 
ATOM      7  C   UNL     1       9.374   1.107   5.535  0.00  0.00    +0.023 A 
ATOM      8  C   UNL     1      10.625   0.559   4.973  0.00  0.00    +0.031 A 
ATOM      9  C   UNL     1      11.723   0.540   5.695  0.00  0.00    +0.045 A 
ATOM     10  C   UNL     1      11.708   1.065   7.071  0.00  0.00    +0.069 A 
ATOM     11  C   UNL     1      10.591   1.539   7.577  0.00  0.00    +0.164 A 
ATOM     12  C   UNL     1       9.354   1.546   6.773  0.00  0.00    +0.176 A 
ATOM     13  O   UNL     1       8.207   2.011   7.333  0.00  0.00    -0.459 OA
ATOM     14  C   UNL     1       7.170   1.150   7.474  0.00  0.00    +0.196 C 
ATOM     15  C   UNL     1       6.577   0.616   6.436  0.00  0.00    +0.051 C 
ATOM     16 CL   UNL     1      13.190  -0.105   5.027  0.00  0.00    -0.083 Cl
BRANCH  11  17
ATOM     17  O   UNL     1      10.576   2.025   8.850  0.00  0.00    -0.491 OA
ATOM     18  C   UNL     1      11.808   1.988   9.573  0.00  0.00    +0.277 C 
ENDBRANCH  11  17
ENDBRANCH   2   5
BRANCH   1  23
ATOM     19  C   UNL     1       2.236   0.845   3.643  0.00  0.00    +0.091 A 
ATOM     20  C   UNL     1       1.387   1.034   2.479  0.00  0.00    -0.021 A 
ATOM     21  C   UNL     1       2.035   1.365   1.342  0.00  0.00    -0.004 A 
ATOM     22  S   UNL     1       3.745   1.427   1.796  0.00  0.00    -0.077 S 
ATOM     23  C   UNL     1       3.604   1.019   3.474  0.00  0.00    +0.087 A 
ATOM     24  C   UNL     1       1.427   1.620  -0.003  0.00  0.00    +0.046 C 
ATOM     25  C   UNL     1      -0.013   1.086   0.008  0.00  0.00    -0.009 C 
ATOM     26  C   UNL     1      -0.714   1.583   1.276  0.00  0.00    +0.008 C 
ATOM     27  C   UNL     1      -0.129   0.880   2.502  0.00  0.00    +0.037 C 
ATOM     28  C   UNL     1      -0.758   1.595  -1.227  0.00  0.00    +0.008 C 
BRANCH  19  29
ATOM     29  C   UNL     1       1.672   0.484   4.945  0.00  0.00    +0.342 C 
ATOM     30  O   UNL     1       1.337   1.355   5.726  0.00  0.00    -0.245 OA
BRANCH  29  31
ATOM     31  O   UNL     1       1.523  -0.814   5.279  0.00  0.00    -0.461 OA
BRANCH  31  33
ATOM     32  C   UNL     1       0.865  -2.612   6.785  0.00  0.00    +0.048 C 
ATOM     33  C   UNL     1       0.956  -1.098   6.586  0.00  0.00    +0.229 C 
ENDBRANCH  31  33
ENDBRANCH  29  31
ENDBRANCH  19  29
ENDBRANCH   1  23
TORSDOF 6
