REMARK  Name = ZINC09629264
REMARK  10 active torsions:
REMARK  status: ('A' for Active; 'I' for Inactive)
REMARK    1  A    between atoms: C_1  and  C_2
REMARK    2  A    between atoms: C_2  and  N_3
REMARK    3  A    between atoms: C_4  and  C_29
REMARK    4  A    between atoms: C_7  and  S_8
REMARK    5  A    between atoms: S_8  and  C_9
REMARK    6  A    between atoms: C_9  and  C_11
REMARK    7  A    between atoms: C_9  and  C_12
REMARK    8  A    between atoms: C_17  and  C_20
REMARK    9  A    between atoms: C_24  and  N_26
REMARK   10  A    between atoms: C_29  and  C_30
REMARK                            x       y       z     vdW  Elec       q    Type
REMARK                         _______ _______ _______ _____ _____    ______ ____
ROOT
ATOM      1  C   UNL     1      -1.631  -1.988   5.991  0.00  0.00    +0.232 C 
ATOM      2  O   UNL     1      -2.622  -1.352   5.703  0.00  0.00    -0.274 OA
ATOM      3  N   UNL     1      -1.667  -2.869   7.011  0.00  0.00    -0.264 N 
ATOM      4  C   UNL     1      -2.841  -3.047   7.733  0.00  0.00    +0.165 A 
ATOM      5  N   UNL     1      -3.079  -3.845   8.757  0.00  0.00    -0.225 NA
ATOM      6  C   UNL     1      -4.271  -3.890   9.332  0.00  0.00    +0.080 A 
ATOM      7  C   UNL     1      -5.275  -3.093   8.856  0.00  0.00    +0.076 A 
ATOM      8  S   UNL     1      -4.428  -2.251   7.526  0.00  0.00    -0.060 S 
ATOM      9  H   UNL     1      -0.874  -3.377   7.241  0.00  0.00    +0.157 HD
ENDROOT
BRANCH   6  10
ATOM     10  C   UNL     1      -4.514  -4.795  10.481  0.00  0.00    +0.003 A 
ATOM     11  C   UNL     1      -5.772  -4.843  11.080  0.00  0.00    +0.010 A 
ATOM     12  C   UNL     1      -5.993  -5.688  12.149  0.00  0.00    +0.003 A 
ATOM     13  C   UNL     1      -4.968  -6.485  12.627  0.00  0.00    +0.033 A 
ATOM     14  C   UNL     1      -3.718  -6.441  12.037  0.00  0.00    +0.127 A 
ATOM     15  C   UNL     1      -3.487  -5.605  10.963  0.00  0.00    +0.042 A 
BRANCH  14  16
ATOM     16  N   UNL     1      -2.627  -7.297  12.554  0.00  0.00    +0.056 N 
ATOM     17  O   UNL     1      -2.829  -8.034  13.491  0.00  0.00    -0.126 OA
ATOM     18  O   UNL     1      -1.533  -7.260  12.040  0.00  0.00    -0.126 OA
ENDBRANCH  14  16
ENDBRANCH   6  10
BRANCH   1  19
ATOM     19  C   UNL     1      -0.357  -1.795   5.208  0.00  0.00    +0.137 C 
ATOM     20  C   UNL     1       0.585  -0.874   5.986  0.00  0.00    +0.029 C 
BRANCH  19  21
ATOM     21  S   UNL     1      -0.744  -1.047   3.601  0.00  0.00    -0.074 S 
BRANCH  21  26
ATOM     22  N   UNL     1       1.036  -0.549   1.500  0.00  0.00    -0.306 N 
ATOM     23  C   UNL     1       2.373  -0.731   1.276  0.00  0.00    +0.138 A 
ATOM     24  N   UNL     1       2.874  -1.282   2.345  0.00  0.00    -0.133 NA
ATOM     25  N   UNL     1       1.952  -1.460   3.223  0.00  0.00    -0.122 NA
ATOM     26  C   UNL     1       0.804  -1.023   2.759  0.00  0.00    +0.192 A 
BRANCH  22  28
ATOM     27  C   UNL     1       0.043   1.558   0.755  0.00  0.00    +0.027 C 
ATOM     28  C   UNL     1       0.057   0.038   0.581  0.00  0.00    +0.122 C 
ENDBRANCH  22  28
BRANCH  23  29
ATOM     29  C   UNL     1       3.127  -0.363   0.024  0.00  0.00    +0.111 C 
BRANCH  29  30
ATOM     30  C   UNL     1       3.203  -1.561  -0.887  0.00  0.00    -0.040 A 
ATOM     31  C   UNL     1       4.200  -2.502  -0.711  0.00  0.00    +0.004 A 
ATOM     32  C   UNL     1       4.269  -3.600  -1.547  0.00  0.00    +0.000 A 
ATOM     33  C   UNL     1       3.341  -3.759  -2.559  0.00  0.00    +0.000 A 
ATOM     34  C   UNL     1       2.343  -2.819  -2.735  0.00  0.00    +0.000 A 
ATOM     35  C   UNL     1       2.271  -1.722  -1.896  0.00  0.00    +0.004 A 
ENDBRANCH  29  30
ENDBRANCH  23  29
ENDBRANCH  21  26
ENDBRANCH  19  21
ENDBRANCH   1  19
TORSDOF 8
