REMARK  Name = ZINC15681569
REMARK  5 active torsions:
REMARK  status: ('A' for Active; 'I' for Inactive)
REMARK    1  A    between atoms: N_4  and  C_6
REMARK    2  A    between atoms: C_7  and  C_18
REMARK    3  A    between atoms: N_10  and  C_11
REMARK    4  A    between atoms: C_24  and  C_27
REMARK    5  A    between atoms: N_29  and  C_30
REMARK                            x       y       z     vdW  Elec       q    Type
REMARK                         _______ _______ _______ _____ _____    ______ ____
ROOT
ATOM      1  C   UNL     1       2.501   1.813  -0.011  0.00  0.00    +0.252 C 
ATOM      2  O   UNL     1       2.791   0.634   0.060  0.00  0.00    -0.270 OA
ATOM      3  N   UNL     1       3.474   2.741  -0.117  0.00  0.00    -0.297 N 
ATOM      4  C   UNL     1       3.146   4.173  -0.115  0.00  0.00    +0.108 C 
ATOM      5  C   UNL     1       3.981   4.864   0.973  0.00  0.00    +0.020 C 
ATOM      6  C   UNL     1       5.463   4.559   0.742  0.00  0.00    +0.016 C 
ATOM      7  C   UNL     1       5.696   3.050   0.842  0.00  0.00    +0.092 C 
ATOM      8  C   UNL     1       4.881   2.338  -0.243  0.00  0.00    +0.120 C 
ENDROOT
BRANCH   1  10
ATOM      9  C   UNL     1       0.071   1.746  -0.793  0.00  0.00    +0.153 A 
ATOM     10  C   UNL     1       1.091   2.228   0.019  0.00  0.00    +0.099 A 
ATOM     11  C   UNL     1       0.516   3.190   0.881  0.00  0.00    +0.150 A 
ATOM     12  N   UNL     1      -0.755   3.277   0.603  0.00  0.00    -0.172 NA
ATOM     13  N   UNL     1      -1.060   2.394  -0.438  0.00  0.00    -0.215 N 
BRANCH  13  14
ATOM     14  C   UNL     1      -2.325   2.210  -1.014  0.00  0.00    +0.068 A 
ATOM     15  C   UNL     1      -2.439   1.943  -2.371  0.00  0.00    +0.030 A 
ATOM     16  C   UNL     1      -3.685   1.757  -2.935  0.00  0.00    +0.040 A 
ATOM     17  C   UNL     1      -4.822   1.848  -2.150  0.00  0.00    +0.124 A 
ATOM     18  C   UNL     1      -4.711   2.120  -0.796  0.00  0.00    +0.040 A 
ATOM     19  C   UNL     1      -3.466   2.301  -0.228  0.00  0.00    +0.030 A 
ATOM     20  F   UNL     1      -6.041   1.670  -2.704  0.00  0.00    -0.205 F 
ENDBRANCH  13  14
BRANCH   9  24
ATOM     21  C   UNL     1       0.959  -0.342  -3.515  0.00  0.00    +0.019 A 
ATOM     22  C   UNL     1      -0.210  -0.976  -3.044  0.00  0.00    +0.019 A 
ATOM     23  C   UNL     1      -0.658  -0.268  -1.989  0.00  0.00    +0.092 A 
ATOM     24  N   UNL     1       0.192   0.783  -1.788  0.00  0.00    -0.307 N 
ATOM     25  C   UNL     1       1.179   0.733  -2.733  0.00  0.00    +0.092 A 
ENDBRANCH   9  24
ENDBRANCH   1  10
BRANCH   7  26
ATOM     26  C   UNL     1       7.161   2.753   0.646  0.00  0.00    +0.218 C 
ATOM     27  O   UNL     1       7.942   3.660   0.449  0.00  0.00    -0.275 OA
ATOM     28  N   UNL     1       7.603   1.481   0.689  0.00  0.00    -0.312 N 
ATOM     29  H   UNL     1       6.978   0.756   0.847  0.00  0.00    +0.149 HD
BRANCH  28  30
ATOM     30  C   UNL     1       9.026   1.193   0.499  0.00  0.00    +0.073 C 
ATOM     31  C   UNL     1       9.333   1.167  -1.012  0.00  0.00    +0.022 C 
ATOM     32  C   UNL     1      10.809   1.384  -1.204  0.00  0.00    +0.002 C 
ATOM     33  C   UNL     1      11.591   0.060  -1.314  0.00  0.00    +0.000 C 
ATOM     34  C   UNL     1      11.113  -1.001  -0.304  0.00  0.00    +0.000 C 
ATOM     35  C   UNL     1      10.842  -0.419   1.057  0.00  0.00    +0.002 C 
ATOM     36  C   UNL     1       9.343  -0.069   1.151  0.00  0.00    +0.022 C 
ENDBRANCH  28  30
ENDBRANCH   7  26
TORSDOF 5
