REMARK  Name = ZINC01482734
REMARK  8 active torsions:
REMARK  status: ('A' for Active; 'I' for Inactive)
REMARK    1  A    between atoms: C_1  and  C_2
REMARK    2  A    between atoms: C_2  and  C_39
REMARK    3  A    between atoms: C_7  and  C_21
REMARK    4  A    between atoms: C_8  and  N_11
REMARK    5  A    between atoms: C_12  and  C_14
REMARK    6  A    between atoms: C_14  and  C_15
REMARK    7  A    between atoms: C_21  and  S_22
REMARK    8  A    between atoms: S_22  and  N_25
REMARK                            x       y       z     vdW  Elec       q    Type
REMARK                         _______ _______ _______ _____ _____    ______ ____
ROOT
ATOM      1  C   UNL     1      -0.404   1.669  -0.223  0.00  0.00    +0.012 C 
ATOM      2  C   UNL     1      -0.102   0.171  -0.143  0.00  0.00    -0.023 C 
ATOM      3  C   UNL     1      -1.323  -0.646   0.411  0.00  0.00    -0.003 C 
ATOM      4  C   UNL     1      -1.441  -0.049   1.846  0.00  0.00    +0.005 C 
ATOM      5  C   UNL     1       0.015   0.266   2.260  0.00  0.00    +0.011 C 
ATOM      6  C   UNL     1       0.876  -0.171   1.036  0.00  0.00    +0.015 C 
ATOM      7  C   UNL     1       0.794  -1.728   1.036  0.00  0.00    +0.081 C 
ATOM      8  C   UNL     1      -0.667  -2.048   0.603  0.00  0.00    +0.027 C 
ATOM      9  C   UNL     1       0.398  -0.378  -1.481  0.00  0.00    +0.012 C 
ENDROOT
BRANCH   7  10
ATOM     10  N   UNL     1       1.736  -2.289   0.065  0.00  0.00    -0.312 N 
ATOM     11  C   UNL     1       2.110  -3.581   0.157  0.00  0.00    +0.219 C 
ATOM     12  O   UNL     1       1.666  -4.278   1.045  0.00  0.00    -0.275 OA
ATOM     13  H   UNL     1       2.091  -1.731  -0.645  0.00  0.00    +0.149 HD
BRANCH  11  14
ATOM     14  C   UNL     1       3.079  -4.158  -0.842  0.00  0.00    +0.152 C 
BRANCH  14  15
ATOM     15  C   UNL     1       3.330  -5.608  -0.518  0.00  0.00    +0.068 A 
ATOM     16  C   UNL     1       3.175  -6.646  -1.363  0.00  0.00    +0.107 A 
ATOM     17  N   UNL     1       3.509  -7.776  -0.667  0.00  0.00    -0.351 N 
ATOM     18  H   UNL     1       3.498  -8.685  -1.006  0.00  0.00    +0.166 HD
ATOM     19  C   UNL     1       3.857  -7.390   0.579  0.00  0.00    +0.196 A 
ATOM     20  N   UNL     1       3.753  -6.091   0.659  0.00  0.00    -0.240 NA
ENDBRANCH  14  15
ENDBRANCH  11  14
ENDBRANCH   7  10
BRANCH   6  21
ATOM     21  C   UNL     1       2.276   0.440   0.951  0.00  0.00    +0.194 C 
BRANCH  21  22
ATOM     22  S   UNL     1       3.246  -0.070   2.397  0.00  0.00    +0.032 S 
ATOM     23  O   UNL     1       2.717   0.521   3.575  0.00  0.00    -0.158 OA
ATOM     24  O   UNL     1       3.509  -1.466   2.342  0.00  0.00    -0.158 OA
BRANCH  22  25
ATOM     25  N   UNL     1       4.725   0.646   2.191  0.00  0.00    -0.181 NA
ATOM     26  C   UNL     1       5.797  -0.045   1.461  0.00  0.00    +0.110 C 
ATOM     27  C   UNL     1       6.298   0.870   0.339  0.00  0.00    +0.028 C 
ATOM     28  C   UNL     1       6.692   2.223   0.925  0.00  0.00    -0.001 C 
ATOM     29  C   UNL     1       7.837   2.043   1.938  0.00  0.00    +0.016 C 
ATOM     30  C   UNL     1       8.667   3.329   1.730  0.00  0.00    +0.036 C 
ATOM     31  C   UNL     1       8.383   3.758   0.306  0.00  0.00    -0.044 A 
ATOM     32  C   UNL     1       7.245   3.121  -0.156  0.00  0.00    -0.038 A 
ATOM     33  C   UNL     1       6.795   3.366  -1.442  0.00  0.00    +0.004 A 
ATOM     34  C   UNL     1       7.477   4.242  -2.264  0.00  0.00    +0.000 A 
ATOM     35  C   UNL     1       8.614   4.877  -1.802  0.00  0.00    +0.000 A 
ATOM     36  C   UNL     1       9.065   4.636  -0.519  0.00  0.00    +0.004 A 
ATOM     37  C   UNL     1       5.496   2.885   1.602  0.00  0.00    +0.028 C 
ATOM     38  C   UNL     1       4.987   1.988   2.730  0.00  0.00    +0.110 C 
ENDBRANCH  22  25
ENDBRANCH  21  22
ENDBRANCH   6  21
TORSDOF 6
