REMARK  Name = ZINC02070846
REMARK  5 active torsions:
REMARK  status: ('A' for Active; 'I' for Inactive)
REMARK    1  A    between atoms: C_5  and  C_7
REMARK    2  A    between atoms: C_12  and  S_28
REMARK    3  A    between atoms: C_20  and  C_25
REMARK    4  A    between atoms: S_28  and  C_29
REMARK    5  A    between atoms: C_34  and  N_35
REMARK                            x       y       z     vdW  Elec       q    Type
REMARK                         _______ _______ _______ _____ _____    ______ ____
ROOT
ATOM      1  C   UNL     1      -7.579  -1.335   0.985  0.00  0.00    +0.106 C 
ATOM      2  C   UNL     1      -6.111  -1.038   1.263  0.00  0.00    +0.024 C 
ATOM      3  C   UNL     1      -5.386  -0.582  -0.015  0.00  0.00    +0.022 C 
ATOM      4  C   UNL     1      -3.970  -1.184   0.052  0.00  0.00    +0.070 C 
ATOM      5  C   UNL     1      -3.890  -1.972   1.376  0.00  0.00    +0.101 C 
ATOM      6  C   UNL     1      -5.368  -2.308   1.709  0.00  0.00    +0.045 C 
ATOM      7  C   UNL     1      -5.763  -3.503   0.883  0.00  0.00    -0.021 A 
ATOM      8  C   UNL     1      -4.996  -4.649   0.982  0.00  0.00    +0.021 A 
ATOM      9  C   UNL     1      -5.324  -5.781   0.233  0.00  0.00    +0.064 A 
ATOM     10  C   UNL     1      -6.431  -5.754  -0.621  0.00  0.00    +0.017 A 
ATOM     11  C   UNL     1      -7.212  -4.627  -0.691  0.00  0.00    +0.024 A 
ATOM     12  C   UNL     1      -6.877  -3.495   0.050  0.00  0.00    +0.031 A 
ATOM     13  N   UNL     1      -7.667  -2.354  -0.068  0.00  0.00    -0.336 N 
ATOM     14 CL   UNL     1      -3.163  -0.953   2.675  0.00  0.00    -0.120 Cl
ATOM     15  H   UNL     1      -8.260  -2.236  -0.826  0.00  0.00    +0.147 HD
ENDROOT
BRANCH   1  20
ATOM     16  C   UNL     1      -8.946  -3.680   3.609  0.00  0.00    +0.000 A 
ATOM     17  C   UNL     1      -9.442  -2.790   4.544  0.00  0.00    +0.001 A 
ATOM     18  C   UNL     1      -9.336  -1.429   4.327  0.00  0.00    +0.020 A 
ATOM     19  C   UNL     1      -8.727  -0.958   3.177  0.00  0.00    +0.046 A 
ATOM     20  C   UNL     1      -8.236  -1.848   2.240  0.00  0.00    -0.009 A 
ATOM     21  C   UNL     1      -8.344  -3.209   2.457  0.00  0.00    +0.007 A 
ATOM     22 CL   UNL     1      -8.586   0.752   2.909  0.00  0.00    -0.083 Cl
ENDBRANCH   1  20
BRANCH   9  23
ATOM     23  C   UNL     1      -4.505  -7.001   0.342  0.00  0.00    +0.387 C 
ATOM     24  O   UNL     1      -3.543  -7.023   1.084  0.00  0.00    -0.241 OA
ATOM     25  O   UNL     1      -4.823  -8.093  -0.382  0.00  0.00    -0.241 OA
ENDBRANCH   9  23
BRANCH   4  26
ATOM     26  S   UNL     1      -2.731   0.141   0.042  0.00  0.00    -0.118 S 
BRANCH  26  27
ATOM     27  C   UNL     1      -1.191  -0.716   0.015  0.00  0.00    +0.038 A 
ATOM     28  C   UNL     1      -1.167  -2.106   0.003  0.00  0.00    +0.017 A 
ATOM     29  C   UNL     1       0.041  -2.774  -0.012  0.00  0.00    +0.001 A 
ATOM     30  C   UNL     1       1.226  -2.062  -0.020  0.00  0.00    +0.002 A 
ATOM     31  C   UNL     1       1.207  -0.679  -0.013  0.00  0.00    +0.034 A 
ATOM     32  C   UNL     1       0.002  -0.004   0.002  0.00  0.00    +0.140 A 
BRANCH  32  33
ATOM     33  N   UNL     1      -0.018   1.476   0.010  0.00  0.00    +0.058 N 
ATOM     34  O   UNL     1       1.028   2.099   0.004  0.00  0.00    -0.126 OA
ATOM     35  O   UNL     1      -1.081   2.070   0.018  0.00  0.00    -0.126 OA
ENDBRANCH  32  33
ENDBRANCH  26  27
ENDBRANCH   4  26
TORSDOF 5
