REMARK  Name = ZINC08582597
REMARK  9 active torsions:
REMARK  status: ('A' for Active; 'I' for Inactive)
REMARK    1  A    between atoms: C_1  and  C_2
REMARK    2  A    between atoms: C_4  and  C_36
REMARK    3  A    between atoms: C_9  and  C_13
REMARK    4  A    between atoms: C_10  and  O_12
REMARK    5  A    between atoms: C_13  and  C_15
REMARK    6  A    between atoms: C_13  and  N_66
REMARK    7  A    between atoms: N_19  and  C_20
REMARK    8  A    between atoms: C_20  and  C_21
REMARK    9  A    between atoms: C_32  and  C_35
REMARK                            x       y       z     vdW  Elec       q    Type
REMARK                         _______ _______ _______ _____ _____    ______ ____
ROOT
ATOM      1  C   UNL     1       4.239   2.958  -1.744  0.00  0.00    +0.039 C 
ENDROOT
BRANCH   1  10
ATOM      2  C   UNL     1       9.967  -1.715  -2.372  0.00  0.00    +0.044 C 
ATOM      3  C   UNL     1       9.393  -0.376  -1.989  0.00  0.00    -0.050 A 
ATOM      4  C   UNL     1      10.231   0.608  -1.468  0.00  0.00    +0.008 A 
ATOM      5  C   UNL     1       9.744   1.828  -1.111  0.00  0.00    -0.024 A 
ATOM      6  C   UNL     1       8.376   2.107  -1.270  0.00  0.00    +0.078 A 
ATOM      7  C   UNL     1       7.526   1.105  -1.800  0.00  0.00    +0.001 A 
ATOM      8  C   UNL     1       8.062  -0.142  -2.156  0.00  0.00    +0.013 A 
ATOM      9  C   UNL     1       6.154   1.384  -1.959  0.00  0.00    +0.017 A 
ATOM     10  C   UNL     1       5.699   2.616  -1.592  0.00  0.00    +0.008 A 
ATOM     11  C   UNL     1       6.591   3.565  -1.079  0.00  0.00    +0.215 A 
ATOM     12  N   UNL     1       7.870   3.297  -0.927  0.00  0.00    -0.213 NA
ATOM     13  C   UNL     1      10.669   2.877  -0.550  0.00  0.00    +0.046 C 
BRANCH  11  14
ATOM     14  O   UNL     1       6.125   4.788  -0.725  0.00  0.00    -0.492 OA
ATOM     15  H   UNL     1       5.835   4.846   0.196  0.00  0.00    +0.294 HD
ENDBRANCH  11  14
ENDBRANCH   1  10
BRANCH   1  22
ATOM     16  C   UNL     1       4.692   3.274  -4.101  0.00  0.00    -0.077 C 
ATOM     17  C   UNL     1       4.615   4.285  -5.248  0.00  0.00    -0.015 C 
ATOM     18  C   UNL     1       3.147   4.619  -5.530  0.00  0.00    -0.018 C 
ATOM     19  C   UNL     1       2.502   5.164  -4.253  0.00  0.00    -0.015 C 
ATOM     20  C   UNL     1       2.640   4.128  -3.135  0.00  0.00    -0.077 C 
ATOM     21  C   UNL     1       3.066   5.674  -6.635  0.00  0.00    +0.007 C 
ATOM     22  N   UNL     1       4.076   3.869  -2.896  0.00  0.00    +0.389 N 
ATOM     23  H   UNL     1       4.545   4.758  -2.687  0.00  0.00    -0.080 HD
ENDBRANCH   1  22
BRANCH   1  24
ATOM     24  C   UNL     1       3.446   1.693  -1.953  0.00  0.00    +0.143 A 
ATOM     25  N   UNL     1       3.388   0.978  -3.049  0.00  0.00    -0.115 NA
ATOM     26  N   UNL     1       2.607  -0.023  -2.830  0.00  0.00    -0.023 NA
ATOM     27  N   UNL     1       2.169   0.033  -1.621  0.00  0.00    -0.044 NA
ATOM     28  N   UNL     1       2.660   1.080  -1.049  0.00  0.00    -0.226 N 
BRANCH  28  29
ATOM     29  C   UNL     1       2.413   1.516   0.328  0.00  0.00    +0.182 C 
BRANCH  29  30
ATOM     30  C   UNL     1       1.218   2.435   0.357  0.00  0.00    -0.022 A 
ATOM     31  C   UNL     1       1.393   3.798   0.201  0.00  0.00    +0.009 A 
ATOM     32  C   UNL     1       0.300   4.645   0.227  0.00  0.00    +0.050 A 
ATOM     33  C   UNL     1      -0.973   4.129   0.410  0.00  0.00    +0.166 A 
ATOM     34  C   UNL     1      -1.149   2.756   0.560  0.00  0.00    +0.167 A 
ATOM     35  C   UNL     1      -0.049   1.913   0.539  0.00  0.00    +0.055 A 
ATOM     36  O   UNL     1      -2.481   2.501   0.716  0.00  0.00    -0.453 OA
ATOM     37  C   UNL     1      -3.155   3.683   0.245  0.00  0.00    +0.466 C 
ATOM     38  O   UNL     1      -2.194   4.735   0.474  0.00  0.00    -0.453 OA
ENDBRANCH  29  30
ENDBRANCH  28  29
ENDBRANCH   1  24
TORSDOF 6
