REMARK  Name = ZINC13032191
REMARK  14 active torsions:
REMARK  status: ('A' for Active; 'I' for Inactive)
REMARK    1  A    between atoms: C_1  and  C_2
REMARK    2  A    between atoms: C_2  and  C_3
REMARK    3  A    between atoms: C_3  and  C_4
REMARK    4  A    between atoms: C_3  and  C_5
REMARK    5  A    between atoms: C_3  and  N_6
REMARK    6  A    between atoms: C_7  and  C_9
REMARK    7  A    between atoms: C_9  and  C_11
REMARK    8  A    between atoms: C_9  and  N_17
REMARK    9  A    between atoms: C_14  and  C_16
REMARK   10  A    between atoms: N_17  and  C_18
REMARK   11  A    between atoms: C_23  and  O_24
REMARK   12  A    between atoms: O_24  and  C_25
REMARK   13  A    between atoms: C_26  and  C_28
REMARK   14  A    between atoms: C_28  and  N_29
REMARK                            x       y       z     vdW  Elec       q    Type
REMARK                         _______ _______ _______ _____ _____    ______ ____
ROOT
ATOM      1  N   UNL     1      -4.716   3.655  -2.441  0.00  0.00    -0.247 N 
ATOM      2  C   UNL     1      -3.593   3.699  -3.185  0.00  0.00    +0.242 C 
ATOM      3  O   UNL     1      -3.665   3.873  -4.383  0.00  0.00    -0.273 OA
ENDROOT
BRANCH   1   4
ATOM      4  C   UNL     1      -4.633   3.453  -1.057  0.00  0.00    +0.079 A 
ATOM      5  C   UNL     1      -4.603   2.166  -0.542  0.00  0.00    +0.027 A 
ATOM      6  C   UNL     1      -4.521   1.969   0.823  0.00  0.00    +0.002 A 
ATOM      7  C   UNL     1      -4.468   3.054   1.679  0.00  0.00    +0.004 A 
ATOM      8  C   UNL     1      -4.496   4.340   1.173  0.00  0.00    +0.047 A 
ATOM      9  C   UNL     1      -4.574   4.546  -0.195  0.00  0.00    +0.141 A 
BRANCH   9  10
ATOM     10  O   UNL     1      -4.597   5.810  -0.694  0.00  0.00    -0.493 OA
ATOM     11  C   UNL     1      -4.414   6.879   0.237  0.00  0.00    +0.277 C 
ENDBRANCH   9  10
ENDBRANCH   1   4
BRANCH   1  12
ATOM     12  C   UNL     1      -6.024   3.819  -3.080  0.00  0.00    +0.233 C 
BRANCH  12  13
ATOM     13  C   UNL     1      -6.794   4.907  -2.378  0.00  0.00    +0.135 A 
ATOM     14  C   UNL     1      -7.361   5.975  -2.967  0.00  0.00    +0.047 A 
ATOM     15  C   UNL     1      -7.975   6.731  -1.942  0.00  0.00    +0.045 A 
ATOM     16  C   UNL     1      -7.745   6.080  -0.787  0.00  0.00    +0.102 A 
ATOM     17  O   UNL     1      -7.034   4.973  -1.058  0.00  0.00    -0.462 OA
ATOM     18  C   UNL     1      -8.212   6.515   0.578  0.00  0.00    +0.086 C 
ENDBRANCH  12  13
BRANCH  12  20
ATOM     19  N   UNL     1      -7.708   2.220  -3.933  0.00  0.00    -0.308 N 
ATOM     20  C   UNL     1      -6.791   2.524  -2.993  0.00  0.00    +0.242 C 
ATOM     21  O   UNL     1      -6.584   1.757  -2.077  0.00  0.00    -0.273 OA
ATOM     22  H   UNL     1      -7.874   2.833  -4.665  0.00  0.00    +0.149 HD
BRANCH  19  23
ATOM     23  C   UNL     1      -8.454   0.962  -3.847  0.00  0.00    +0.029 C 
ATOM     24  C   UNL     1      -7.477  -0.215  -3.890  0.00  0.00    +0.031 C 
ATOM     25  C   UNL     1      -9.242   0.923  -2.536  0.00  0.00    +0.031 C 
BRANCH  23  27
ATOM     26  C   UNL     1     -10.202  -0.452  -4.939  0.00  0.00    +0.006 C 
ATOM     27  C   UNL     1      -9.423   0.862  -5.027  0.00  0.00    +0.022 C 
ENDBRANCH  23  27
ENDBRANCH  19  23
ENDBRANCH  12  20
ENDBRANCH   1  12
BRANCH   2  28
ATOM     28  C   UNL     1      -2.247   3.530  -2.527  0.00  0.00    +0.242 C 
BRANCH  28  29
ATOM     29  N   UNL     1      -1.194   3.616  -3.542  0.00  0.00    -0.235 N 
ATOM     30  C   UNL     1      -0.663   2.576  -4.267  0.00  0.00    +0.090 A 
ATOM     31  C   UNL     1      -0.903   1.206  -4.310  0.00  0.00    +0.029 A 
ATOM     32  C   UNL     1      -0.183   0.417  -5.162  0.00  0.00    +0.002 A 
ATOM     33  C   UNL     1       0.779   0.972  -5.996  0.00  0.00    +0.002 A 
ATOM     34  C   UNL     1       1.030   2.312  -5.977  0.00  0.00    +0.032 A 
ATOM     35  C   UNL     1       0.310   3.143  -5.108  0.00  0.00    +0.113 A 
ATOM     36  N   UNL     1       0.334   4.470  -4.869  0.00  0.00    -0.129 NA
ATOM     37  N   UNL     1      -0.528   4.776  -3.965  0.00  0.00    -0.064 NA
ENDBRANCH  28  29
ENDBRANCH   2  28
TORSDOF 9
