REMARK  Name = ZINC56159650
REMARK  10 active torsions:
REMARK  status: ('A' for Active; 'I' for Inactive)
REMARK    1  A    between atoms: C_1  and  C_2
REMARK    2  A    between atoms: C_5  and  N_9
REMARK    3  A    between atoms: C_10  and  C_12
REMARK    4  A    between atoms: C_12  and  C_14
REMARK    5  A    between atoms: C_12  and  N_15
REMARK    6  A    between atoms: N_15  and  C_16
REMARK    7  A    between atoms: C_16  and  C_18
REMARK    8  A    between atoms: C_16  and  C_19
REMARK    9  A    between atoms: C_22  and  N_25
REMARK   10  A    between atoms: N_28  and  C_29
REMARK                            x       y       z     vdW  Elec       q    Type
REMARK                         _______ _______ _______ _____ _____    ______ ____
ROOT
ATOM      1  N   UNL     1       0.470  -6.845   2.496  0.00  0.00    +0.391 N 
ATOM      2  H   UNL     1       1.240  -6.389   2.963  0.00  0.00    -0.084 HD
ATOM      3  H   UNL     1      -0.387  -6.649   2.990  0.00  0.00    -0.084 HD
ENDROOT
BRANCH   1   4
ATOM      4  C   UNL     1       0.368  -6.344   1.118  0.00  0.00    +0.014 C 
ATOM      5  C   UNL     1      -0.872  -6.941   0.449  0.00  0.00    -0.004 C 
BRANCH   4   7
ATOM      6  N   UNL     1       0.149  -4.159  -0.020  0.00  0.00    -0.287 N 
ATOM      7  C   UNL     1       0.255  -4.842   1.137  0.00  0.00    +0.203 C 
ATOM      8  O   UNL     1       0.258  -4.247   2.194  0.00  0.00    -0.277 OA
ATOM      9  H   UNL     1       0.071  -4.638  -0.860  0.00  0.00    +0.155 HD
BRANCH   6  14
ATOM     10  C   UNL     1       0.161   1.515   0.025  0.00  0.00    +0.047 C 
ATOM     11  C   UNL     1       0.157   0.009   0.013  0.00  0.00    -0.015 A 
ATOM     12  C   UNL     1       0.904  -0.691   0.943  0.00  0.00    +0.008 A 
ATOM     13  C   UNL     1       0.903  -2.072   0.934  0.00  0.00    +0.024 A 
ATOM     14  C   UNL     1       0.150  -2.760  -0.009  0.00  0.00    +0.036 A 
ATOM     15  C   UNL     1      -0.599  -2.057  -0.942  0.00  0.00    +0.062 A 
ATOM     16  C   UNL     1      -0.599  -0.673  -0.926  0.00  0.00    +0.128 A 
ATOM     17  F   UNL     1      -1.333   0.013  -1.830  0.00  0.00    -0.205 F 
ENDBRANCH   6  14
ENDBRANCH   4   7
ENDBRANCH   1   4
BRANCH   1  18
ATOM     18  C   UNL     1       0.701  -8.296   2.473  0.00  0.00    -0.043 C 
ATOM     19  C   UNL     1       2.061  -8.586   1.835  0.00  0.00    -0.009 C 
BRANCH  18  20
ATOM     20  C   UNL     1       0.683  -8.829   3.883  0.00  0.00    -0.062 A 
ATOM     21  C   UNL     1       1.273  -8.104   4.902  0.00  0.00    +0.004 A 
ATOM     22  C   UNL     1       1.258  -8.590   6.195  0.00  0.00    +0.023 A 
ATOM     23  C   UNL     1       0.651  -9.808   6.470  0.00  0.00    +0.035 A 
ATOM     24  C   UNL     1       0.060 -10.534   5.444  0.00  0.00    +0.023 A 
ATOM     25  C   UNL     1       0.073 -10.040   4.155  0.00  0.00    +0.004 A 
BRANCH  23  26
ATOM     26  N   UNL     1       0.635 -10.303   7.779  0.00  0.00    -0.269 N 
ATOM     27  C   UNL     1       0.515  -9.455   8.819  0.00  0.00    +0.304 C 
ATOM     28  O   UNL     1       0.504  -8.255   8.627  0.00  0.00    -0.253 OA
ATOM     29  N   UNL     1       0.406  -9.937  10.073  0.00  0.00    -0.296 N 
ATOM     30  H   UNL     1       0.711 -11.257   7.937  0.00  0.00    +0.156 HD
ATOM     31  H   UNL     1       0.415 -10.895  10.227  0.00  0.00    +0.151 HD
BRANCH  29  32
ATOM     32  C   UNL     1       0.276  -9.015  11.204  0.00  0.00    +0.075 C 
ATOM     33  C   UNL     1       1.103  -9.311  12.456  0.00  0.00    +0.024 C 
ATOM     34  C   UNL     1      -0.409  -9.540  12.467  0.00  0.00    +0.024 C 
ENDBRANCH  29  32
ENDBRANCH  23  26
ENDBRANCH  18  20
ENDBRANCH   1  18
TORSDOF 7
