REMARK  Name = ZINC60814527
REMARK  10 active torsions:
REMARK  status: ('A' for Active; 'I' for Inactive)
REMARK    1  A    between atoms: C_1  and  C_2
REMARK    2  A    between atoms: C_2  and  C_3
REMARK    3  A    between atoms: C_2  and  N_10
REMARK    4  A    between atoms: C_11  and  C_13
REMARK    5  A    between atoms: C_13  and  O_14
REMARK    6  A    between atoms: O_14  and  C_15
REMARK    7  A    between atoms: C_18  and  N_21
REMARK    8  A    between atoms: N_21  and  C_22
REMARK    9  A    between atoms: N_21  and  S_23
REMARK   10  A    between atoms: S_23  and  C_26
REMARK                            x       y       z     vdW  Elec       q    Type
REMARK                         _______ _______ _______ _____ _____    ______ ____
ROOT
ATOM      1  C   UNL     1       3.505  -0.574   1.749  0.00  0.00    +0.324 C 
ENDROOT
BRANCH   1   3
ATOM      2  N   UNL     1       1.481   0.181   0.544  0.00  0.00    -0.310 N 
ATOM      3  C   UNL     1       2.821   0.035   0.552  0.00  0.00    +0.251 C 
ATOM      4  O   UNL     1       3.476   0.393  -0.404  0.00  0.00    -0.272 OA
ATOM      5  H   UNL     1       0.957  -0.106   1.308  0.00  0.00    +0.149 HD
BRANCH   2   7
ATOM      6  C   UNL     1       0.834   2.297  -0.497  0.00  0.00    +0.028 C 
ATOM      7  C   UNL     1       0.816   0.772  -0.620  0.00  0.00    +0.073 C 
BRANCH   7   8
ATOM      8  C   UNL     1      -0.632   0.283  -0.682  0.00  0.00    +0.012 C 
ATOM      9  C   UNL     1      -1.281   0.691  -2.025  0.00  0.00    +0.009 C 
ATOM     10  C   UNL     1      -1.660  -0.659  -2.707  0.00  0.00    -0.010 C 
ATOM     11  C   UNL     1      -0.292  -1.292  -3.107  0.00  0.00    +0.004 C 
ATOM     12  C   UNL     1       0.357  -1.700  -1.764  0.00  0.00    +0.004 C 
ATOM     13  C   UNL     1      -0.680  -1.276  -0.680  0.00  0.00    -0.006 C 
ATOM     14  C   UNL     1      -2.025  -1.526  -1.450  0.00  0.00    +0.007 C 
ENDBRANCH   7   8
ENDBRANCH   2   7
ENDBRANCH   1   3
BRANCH   1  15
ATOM     15  O   UNL     1       4.915  -0.620   1.519  0.00  0.00    -0.483 OA
BRANCH  15  16
ATOM     16  C   UNL     1       5.685  -1.145   2.510  0.00  0.00    +0.121 A 
ATOM     17  C   UNL     1       5.093  -1.611   3.675  0.00  0.00    +0.047 A 
ATOM     18  C   UNL     1       5.875  -2.144   4.681  0.00  0.00    +0.028 A 
ATOM     19  C   UNL     1       7.253  -2.215   4.526  0.00  0.00    +0.051 A 
ATOM     20  C   UNL     1       7.844  -1.748   3.360  0.00  0.00    +0.028 A 
ATOM     21  C   UNL     1       7.061  -1.221   2.352  0.00  0.00    +0.047 A 
BRANCH  19  22
ATOM     22  N   UNL     1       8.045  -2.754   5.545  0.00  0.00    -0.211 N 
ATOM     23  C   UNL     1       8.940  -3.879   5.260  0.00  0.00    +0.157 C 
BRANCH  22  24
ATOM     24  S   UNL     1       7.971  -2.123   7.074  0.00  0.00    +0.042 S 
ATOM     25  O   UNL     1       9.264  -2.343   7.621  0.00  0.00    -0.155 OA
ATOM     26  O   UNL     1       7.475  -0.803   6.898  0.00  0.00    -0.155 OA
ATOM     27  C   UNL     1       6.744  -3.140   7.941  0.00  0.00    +0.218 C 
ENDBRANCH  22  24
ENDBRANCH  19  22
ENDBRANCH  15  16
ENDBRANCH   1  15
TORSDOF 7
