REMARK  Name = ZINC00830767
REMARK  6 active torsions:
REMARK  status: ('A' for Active; 'I' for Inactive)
REMARK    1  A    between atoms: C_1  and  C_2
REMARK    2  A    between atoms: C_3  and  C_15
REMARK    3  A    between atoms: C_4  and  O_14
REMARK    4  A    between atoms: N_5  and  C_7
REMARK    5  A    between atoms: N_19  and  C_31
REMARK    6  A    between atoms: N_22  and  C_25
REMARK                            x       y       z     vdW  Elec       q    Type
REMARK                         _______ _______ _______ _____ _____    ______ ____
ROOT
ATOM      1  C   UNL     1       1.815   0.843  -1.277  0.00  0.00    +0.033 C 
ATOM      2  C   UNL     1       0.881   1.724  -0.750  0.00  0.00    +0.101 C 
ATOM      3  C   UNL     1      -0.427   1.256  -0.260  0.00  0.00    +0.262 C 
ATOM      4  O   UNL     1      -0.726   0.077  -0.305  0.00  0.00    -0.269 OA
ATOM      5  N   UNL     1      -1.288   2.169   0.233  0.00  0.00    -0.217 N 
ATOM      6  C   UNL     1      -0.970   3.470   0.294  0.00  0.00    +0.158 C 
ATOM      7  S   UNL     1      -2.122   4.557   0.945  0.00  0.00    -0.017 S 
ATOM      8  N   UNL     1       0.200   3.966  -0.132  0.00  0.00    -0.217 N 
ATOM      9  C   UNL     1       1.154   3.169  -0.655  0.00  0.00    +0.262 C 
ATOM     10  O   UNL     1       2.213   3.630  -1.039  0.00  0.00    -0.269 OA
ENDROOT
BRANCH   1  13
ATOM     11  C   UNL     1       2.894   0.844  -4.296  0.00  0.00    +0.068 C 
ATOM     12  C   UNL     1       3.603   1.335  -3.060  0.00  0.00    +0.071 A 
ATOM     13  C   UNL     1       3.076   1.318  -1.694  0.00  0.00    +0.060 A 
ATOM     14  C   UNL     1       4.075   1.875  -0.886  0.00  0.00    +0.223 A 
ATOM     15  N   UNL     1       5.110   2.187  -1.689  0.00  0.00    -0.200 N 
ATOM     16  N   UNL     1       4.797   1.853  -3.009  0.00  0.00    -0.168 NA
BRANCH  15  17
ATOM     17  C   UNL     1       6.315   2.766  -1.267  0.00  0.00    +0.069 A 
ATOM     18  C   UNL     1       6.317   3.687  -0.228  0.00  0.00    +0.029 A 
ATOM     19  C   UNL     1       7.506   4.253   0.190  0.00  0.00    +0.022 A 
ATOM     20  C   UNL     1       8.693   3.910  -0.433  0.00  0.00    +0.041 A 
ATOM     21  C   UNL     1       8.693   2.996  -1.473  0.00  0.00    +0.022 A 
ATOM     22  C   UNL     1       7.507   2.424  -1.891  0.00  0.00    +0.029 A 
ATOM     23 CL   UNL     1      10.185   4.627   0.089  0.00  0.00    -0.084 Cl
ENDBRANCH  15  17
BRANCH  14  24
ATOM     24  O   UNL     1       4.014   2.060   0.452  0.00  0.00    -0.492 OA
ATOM     25  H   UNL     1       4.408   1.342   0.967  0.00  0.00    +0.294 HD
ENDBRANCH  14  24
ENDBRANCH   1  13
BRANCH   8  26
ATOM     26  C   UNL     1       0.437   5.343  -0.033  0.00  0.00    +0.043 A 
ATOM     27  C   UNL     1      -0.055   6.205  -1.003  0.00  0.00    +0.024 A 
ATOM     28  C   UNL     1       0.175   7.563  -0.898  0.00  0.00    +0.002 A 
ATOM     29  C   UNL     1       0.905   8.062   0.165  0.00  0.00    +0.000 A 
ATOM     30  C   UNL     1       1.402   7.205   1.129  0.00  0.00    +0.002 A 
ATOM     31  C   UNL     1       1.170   5.847   1.034  0.00  0.00    +0.024 A 
ENDBRANCH   8  26
BRANCH   5  32
ATOM     32  C   UNL     1      -2.541   1.748   0.699  0.00  0.00    +0.043 A 
ATOM     33  C   UNL     1      -2.667   1.222   1.977  0.00  0.00    +0.024 A 
ATOM     34  C   UNL     1      -3.904   0.814   2.435  0.00  0.00    +0.002 A 
ATOM     35  C   UNL     1      -5.015   0.918   1.618  0.00  0.00    +0.000 A 
ATOM     36  C   UNL     1      -4.891   1.437   0.342  0.00  0.00    +0.002 A 
ATOM     37  C   UNL     1      -3.658   1.852  -0.120  0.00  0.00    +0.024 A 
ENDBRANCH   5  32
TORSDOF 5
