REMARK  Name = ZINC08589505
REMARK  6 active torsions:
REMARK  status: ('A' for Active; 'I' for Inactive)
REMARK    1  A    between atoms: C_1  and  C_2
REMARK    2  A    between atoms: C_2  and  C_3
REMARK    3  A    between atoms: C_6  and  N_9
REMARK    4  A    between atoms: C_10  and  C_12
REMARK    5  A    between atoms: C_22  and  S_25
REMARK    6  A    between atoms: S_25  and  C_28
REMARK                            x       y       z     vdW  Elec       q    Type
REMARK                         _______ _______ _______ _____ _____    ______ ____
ROOT
ATOM      1  C   UNL     1       2.822  -2.415   6.987  0.00  0.00    +0.039 A 
ATOM      2  C   UNL     1       4.206  -2.616   6.933  0.00  0.00    +0.014 A 
ATOM      3  C   UNL     1       4.897  -2.970   8.056  0.00  0.00    +0.014 A 
ATOM      4  C   UNL     1       4.222  -3.132   9.266  0.00  0.00    +0.047 A 
ATOM      5  C   UNL     1       2.833  -2.933   9.335  0.00  0.00    +0.054 A 
ATOM      6  C   UNL     1       2.137  -2.567   8.188  0.00  0.00    +0.039 A 
ATOM      7  N   UNL     1       2.180  -3.097  10.539  0.00  0.00    -0.320 N 
ATOM      8  H   UNL     1       1.221  -2.958  10.580  0.00  0.00    +0.169 HD
ATOM      9  C   UNL     1       2.849  -3.449  11.667  0.00  0.00    +0.278 A 
ATOM     10  O   UNL     1       2.156  -3.595  12.817  0.00  0.00    -0.266 OA
ATOM     11  C   UNL     1       4.195  -3.659  11.679  0.00  0.00    +0.204 A 
ATOM     12  C   UNL     1       4.941  -3.514  10.497  0.00  0.00    +0.218 A 
ATOM     13  O   UNL     1       6.148  -3.698  10.489  0.00  0.00    -0.285 OA
ENDROOT
BRANCH   1  15
ATOM     14  N   UNL     1       2.746  -1.882   4.598  0.00  0.00    -0.282 N 
ATOM     15  C   UNL     1       2.085  -2.031   5.763  0.00  0.00    +0.248 C 
ATOM     16  O   UNL     1       0.884  -1.851   5.808  0.00  0.00    -0.270 OA
ATOM     17  H   UNL     1       3.689  -2.100   4.544  0.00  0.00    +0.155 HD
BRANCH  14  21
ATOM     18  C   UNL     1       0.735  -0.486   1.228  0.00  0.00    -0.048 A 
ATOM     19  C   UNL     1       1.761  -1.402   1.088  0.00  0.00    +0.005 A 
ATOM     20  C   UNL     1       2.430  -1.867   2.204  0.00  0.00    +0.023 A 
ATOM     21  C   UNL     1       2.071  -1.413   3.466  0.00  0.00    +0.034 A 
ATOM     22  C   UNL     1       1.039  -0.493   3.603  0.00  0.00    +0.023 A 
ATOM     23  C   UNL     1       0.378  -0.029   2.483  0.00  0.00    +0.005 A 
BRANCH  18  25
ATOM     24  C   UNL     1       0.713   1.267  -0.526  0.00  0.00    +0.009 C 
ATOM     25  C   UNL     1       0.007   0.019   0.009  0.00  0.00    +0.032 C 
ENDBRANCH  18  25
ENDBRANCH  14  21
ENDBRANCH   1  15
BRANCH  11  26
ATOM     26  S   UNL     1       5.001  -4.115  13.178  0.00  0.00    +0.034 S 
ATOM     27  O   UNL     1       6.125  -3.256  13.312  0.00  0.00    -0.164 OA
ATOM     28  O   UNL     1       3.989  -4.205  14.172  0.00  0.00    -0.164 OA
BRANCH  26  29
ATOM     29  C   UNL     1       5.635  -5.743  12.955  0.00  0.00    +0.094 A 
ATOM     30  C   UNL     1       4.855  -6.839  13.276  0.00  0.00    +0.027 A 
ATOM     31  C   UNL     1       5.352  -8.117  13.101  0.00  0.00    +0.002 A 
ATOM     32  C   UNL     1       6.630  -8.299  12.605  0.00  0.00    +0.000 A 
ATOM     33  C   UNL     1       7.409  -7.204  12.284  0.00  0.00    +0.002 A 
ATOM     34  C   UNL     1       6.910  -5.926  12.454  0.00  0.00    +0.027 A 
ENDBRANCH  26  29
ENDBRANCH  11  26
TORSDOF 5
