REMARK  Name = ZINC12160218
REMARK  7 active torsions:
REMARK  status: ('A' for Active; 'I' for Inactive)
REMARK    1  A    between atoms: C_1  and  C_2
REMARK    2  A    between atoms: C_5  and  C_9
REMARK    3  A    between atoms: C_7  and  C_8
REMARK    4  A    between atoms: C_9  and  N_58
REMARK    5  A    between atoms: C_12  and  C_15
REMARK    6  A    between atoms: C_15  and  C_22
REMARK    7  A    between atoms: C_22  and  C_23
REMARK                            x       y       z     vdW  Elec       q    Type
REMARK                         _______ _______ _______ _____ _____    ______ ____
ROOT
ATOM      1  C   UNL     1       1.422   1.617  -0.003  0.00  0.00    +0.119 C 
ATOM      2  C   UNL     1       2.151   1.157  -1.250  0.00  0.00    +0.245 C 
ATOM      3  O   UNL     1       2.385   0.015  -1.582  0.00  0.00    -0.273 OA
ATOM      4  N   UNL     1       2.485   2.282  -1.912  0.00  0.00    -0.238 N 
ATOM      5  C   UNL     1       2.073   3.377  -1.264  0.00  0.00    +0.307 C 
ATOM      6  O   UNL     1       2.257   4.510  -1.665  0.00  0.00    -0.252 OA
ATOM      7  N   UNL     1       1.431   3.085  -0.118  0.00  0.00    -0.284 N 
ATOM      8  H   UNL     1       2.965   2.296  -2.755  0.00  0.00    +0.159 HD
ATOM      9  H   UNL     1       1.048   3.718   0.509  0.00  0.00    +0.151 HD
ENDROOT
BRANCH   1  12
ATOM     10  C   UNL     1      -2.207   1.109  -1.184  0.00  0.00    -0.078 C 
ATOM     11  C   UNL     1      -0.756   1.594  -1.230  0.00  0.00    -0.013 C 
ATOM     12  C   UNL     1      -0.013   1.086   0.008  0.00  0.00    +0.018 C 
ATOM     13  C   UNL     1      -0.732   1.581   1.266  0.00  0.00    -0.013 C 
ATOM     14  C   UNL     1      -2.185   1.096   1.239  0.00  0.00    -0.078 C 
ATOM     15  N   UNL     1      -2.851   1.640   0.036  0.00  0.00    +0.382 N 
ATOM     16  H   UNL     1      -2.764   2.663   0.041  0.00  0.00    -0.081 HD
BRANCH  15  17
ATOM     17  C   UNL     1      -4.284   1.280   0.048  0.00  0.00    -0.043 C 
BRANCH  17  22
ATOM     18  C   UNL     1      -6.491   2.451   5.258  0.00  0.00    +0.044 C 
ATOM     19  C   UNL     1      -5.915   2.146   3.899  0.00  0.00    -0.048 A 
ATOM     20  C   UNL     1      -5.393   0.893   3.635  0.00  0.00    +0.004 A 
ATOM     21  C   UNL     1      -4.869   0.612   2.388  0.00  0.00    +0.002 A 
ATOM     22  C   UNL     1      -4.859   1.585   1.406  0.00  0.00    -0.064 A 
ATOM     23  C   UNL     1      -5.382   2.837   1.670  0.00  0.00    +0.005 A 
ATOM     24  C   UNL     1      -5.910   3.118   2.917  0.00  0.00    -0.047 A 
ATOM     25  C   UNL     1      -6.480   4.483   3.204  0.00  0.00    +0.044 C 
ENDBRANCH  17  22
ENDBRANCH  15  17
ENDBRANCH   1  12
BRANCH   1  26
ATOM     26  C   UNL     1       2.170   1.168   1.254  0.00  0.00    +0.073 C 
BRANCH  26  27
ATOM     27  C   UNL     1       3.537   1.803   1.280  0.00  0.00    -0.010 A 
ATOM     28  C   UNL     1       4.629   1.112   0.790  0.00  0.00    +0.006 A 
ATOM     29  C   UNL     1       5.881   1.696   0.807  0.00  0.00    +0.000 A 
ATOM     30  C   UNL     1       6.045   2.968   1.325  0.00  0.00    +0.003 A 
ATOM     31  C   UNL     1       4.955   3.658   1.821  0.00  0.00    +0.038 A 
ATOM     32  C   UNL     1       3.699   3.076   1.798  0.00  0.00    +0.127 A 
ATOM     33  F   UNL     1       2.633   3.750   2.282  0.00  0.00    -0.205 F 
ENDBRANCH  26  27
ENDBRANCH   1  26
TORSDOF 5
