REMARK  Name = ZINC12247365
REMARK  10 active torsions:
REMARK  status: ('A' for Active; 'I' for Inactive)
REMARK    1  A    between atoms: C_1  and  C_2
REMARK    2  A    between atoms: C_7  and  C_8
REMARK    3  A    between atoms: C_8  and  C_9
REMARK    4  A    between atoms: C_10  and  C_24
REMARK    5  A    between atoms: C_14  and  C_23
REMARK    6  A    between atoms: N_15  and  C_16
REMARK    7  A    between atoms: C_16  and  C_17
REMARK    8  A    between atoms: N_26  and  C_27
REMARK    9  A    between atoms: C_27  and  C_28
REMARK   10  A    between atoms: C_29  and  C_33
REMARK                            x       y       z     vdW  Elec       q    Type
REMARK                         _______ _______ _______ _____ _____    ______ ____
ROOT
ATOM      1  C   UNL     1      -1.813   2.414   0.830  0.00  0.00    +0.039 A 
ATOM      2  C   UNL     1      -2.573   1.321   1.192  0.00  0.00    +0.103 A 
ATOM      3  C   UNL     1      -3.282   1.362   2.480  0.00  0.00    +0.194 A 
ATOM      4  O   UNL     1      -3.968   0.423   2.852  0.00  0.00    -0.287 OA
ATOM      5  C   UNL     1      -3.142   2.526   3.276  0.00  0.00    +0.072 A 
ATOM      6  C   UNL     1      -2.375   3.542   2.831  0.00  0.00    +0.020 A 
ATOM      7  N   UNL     1      -1.726   3.481   1.642  0.00  0.00    -0.342 N 
ATOM      8  C   UNL     1      -2.231   4.778   3.682  0.00  0.00    +0.063 C 
ENDROOT
BRANCH   2   9
ATOM      9  C   UNL     1      -2.671   0.143   0.313  0.00  0.00    +0.250 C 
ATOM     10  O   UNL     1      -1.808  -0.714   0.346  0.00  0.00    -0.270 OA
ATOM     11  N   UNL     1      -3.716   0.016  -0.529  0.00  0.00    -0.305 N 
ATOM     12  H   UNL     1      -4.403   0.699  -0.555  0.00  0.00    +0.149 HD
BRANCH  11  13
ATOM     13  C   UNL     1      -3.813  -1.156  -1.403  0.00  0.00    +0.165 C 
BRANCH  13  14
ATOM     14  C   UNL     1      -5.064  -1.057  -2.238  0.00  0.00    +0.124 A 
ATOM     15  C   UNL     1      -5.152  -0.444  -3.503  0.00  0.00    +0.106 A 
ATOM     16  N   UNL     1      -6.372  -0.536  -3.943  0.00  0.00    -0.054 NA
ATOM     17  O   UNL     1      -7.127  -1.224  -2.959  0.00  0.00    -0.242 OA
ATOM     18  N   UNL     1      -6.228  -1.528  -1.905  0.00  0.00    -0.052 NA
ATOM     19  C   UNL     1      -4.011   0.215  -4.233  0.00  0.00    +0.071 C 
ENDBRANCH  13  14
ENDBRANCH  11  13
ENDBRANCH   2   9
BRANCH   1  20
ATOM     20  C   UNL     1      -1.072   2.410  -0.482  0.00  0.00    +0.089 C 
BRANCH  20  27
ATOM     21  C   UNL     1      -0.732  -0.044  -1.970  0.00  0.00    +0.044 C 
ATOM     22  C   UNL     1       0.362   0.439  -1.053  0.00  0.00    -0.047 A 
ATOM     23  C   UNL     1       1.530  -0.290  -0.926  0.00  0.00    +0.003 A 
ATOM     24  C   UNL     1       2.534   0.153  -0.086  0.00  0.00    +0.000 A 
ATOM     25  C   UNL     1       2.370   1.326   0.628  0.00  0.00    +0.000 A 
ATOM     26  C   UNL     1       1.202   2.055   0.502  0.00  0.00    +0.004 A 
ATOM     27  C   UNL     1       0.198   1.612  -0.339  0.00  0.00    -0.039 A 
ENDBRANCH  20  27
ENDBRANCH   1  20
BRANCH   7  28
ATOM     28  C   UNL     1      -0.905   4.620   1.226  0.00  0.00    +0.157 C 
BRANCH  28  29
ATOM     29  C   UNL     1      -1.782   5.661   0.578  0.00  0.00    -0.025 A 
ATOM     30  C   UNL     1      -2.262   5.482  -0.710  0.00  0.00    +0.025 A 
ATOM     31  C   UNL     1      -3.067   6.456  -1.270  0.00  0.00    +0.111 A 
ATOM     32  N   UNL     1      -3.371   7.548  -0.598  0.00  0.00    -0.263 NA
ATOM     33  C   UNL     1      -2.929   7.754   0.627  0.00  0.00    +0.111 A 
ATOM     34  C   UNL     1      -2.123   6.822   1.254  0.00  0.00    +0.025 A 
ENDBRANCH  28  29
ENDBRANCH   7  28
TORSDOF 7
