REMARK  Name = ZINC39914490
REMARK  7 active torsions:
REMARK  status: ('A' for Active; 'I' for Inactive)
REMARK    1  A    between atoms: C_1  and  C_2
REMARK    2  A    between atoms: C_5  and  C_8
REMARK    3  A    between atoms: C_11  and  C_22
REMARK    4  A    between atoms: N_18  and  C_19
REMARK    5  A    between atoms: C_19  and  C_20
REMARK    6  A    between atoms: C_25  and  C_29
REMARK    7  A    between atoms: C_27  and  O_28
REMARK                            x       y       z     vdW  Elec       q    Type
REMARK                         _______ _______ _______ _____ _____    ______ ____
ROOT
ATOM      1  C   UNL     1       0.051  -4.237   0.005  0.00  0.00    +0.142 C 
ATOM      2  C   UNL     1      -1.293  -4.796   0.382  0.00  0.00    +0.035 A 
ATOM      3  C   UNL     1      -2.657  -4.890   0.085  0.00  0.00    +0.102 A 
ATOM      4  N   UNL     1      -3.210  -5.653   1.008  0.00  0.00    -0.173 NA
ATOM      5  N   UNL     1      -2.331  -6.050   1.857  0.00  0.00    -0.272 N 
ATOM      6  H   UNL     1      -2.511  -6.621   2.620  0.00  0.00    +0.189 HD
ATOM      7  C   UNL     1      -1.104  -5.549   1.525  0.00  0.00    +0.126 A 
ATOM      8  C   UNL     1       0.316  -5.492   1.892  0.00  0.00    +0.266 C 
ATOM      9  O   UNL     1       0.807  -6.052   2.853  0.00  0.00    -0.268 OA
ATOM     10  N   UNL     1       0.997  -4.732   1.014  0.00  0.00    -0.281 N 
ENDROOT
BRANCH   3  11
ATOM     11  C   UNL     1      -3.353  -4.248  -1.057  0.00  0.00    +0.045 A 
ATOM     12  C   UNL     1      -2.623  -3.572  -2.031  0.00  0.00    +0.034 A 
ATOM     13  C   UNL     1      -3.276  -2.977  -3.093  0.00  0.00    +0.045 A 
ATOM     14  C   UNL     1      -4.655  -3.049  -3.192  0.00  0.00    -0.029 A 
ATOM     15  C   UNL     1      -5.388  -3.717  -2.230  0.00  0.00    +0.050 A 
ATOM     16  C   UNL     1      -4.745  -4.324  -1.163  0.00  0.00    +0.126 A 
ATOM     17  C   UNL     1      -5.359  -2.396  -4.353  0.00  0.00    +0.045 C 
ATOM     18 CL   UNL     1      -2.364  -2.134  -4.306  0.00  0.00    -0.083 Cl
BRANCH  16  19
ATOM     19  O   UNL     1      -5.465  -4.986  -0.220  0.00  0.00    -0.506 OA
ATOM     20  H   UNL     1      -5.750  -4.431   0.519  0.00  0.00    +0.292 HD
ENDBRANCH  16  19
ENDBRANCH   3  11
BRANCH   1  25
ATOM     21  C   UNL     1      -0.099   1.539   0.084  0.00  0.00    +0.044 C 
ATOM     22  C   UNL     1      -0.060   0.032   0.063  0.00  0.00    -0.050 A 
ATOM     23  C   UNL     1      -0.185  -0.679   1.242  0.00  0.00    +0.004 A 
ATOM     24  C   UNL     1      -0.149  -2.060   1.223  0.00  0.00    +0.006 A 
ATOM     25  C   UNL     1       0.011  -2.731   0.025  0.00  0.00    -0.022 A 
ATOM     26  C   UNL     1       0.136  -2.020  -1.154  0.00  0.00    +0.006 A 
ATOM     27  C   UNL     1       0.096  -0.639  -1.135  0.00  0.00    +0.004 A 
ENDBRANCH   1  25
BRANCH  10  28
ATOM     28  C   UNL     1       2.433  -4.447   1.057  0.00  0.00    +0.135 C 
BRANCH  28  29
ATOM     29  C   UNL     1       2.674  -3.201   1.870  0.00  0.00    -0.016 C 
ATOM     30  C   UNL     1       3.498  -3.232   2.887  0.00  0.00    +0.005 C 
ENDBRANCH  28  29
ENDBRANCH  10  28
TORSDOF 5
