REMARK  Name = ZINC36206615
REMARK  11 active torsions:
REMARK  status: ('A' for Active; 'I' for Inactive)
REMARK    1  A    between atoms: C_1  and  N_2
REMARK    2  A    between atoms: N_2  and  C_3
REMARK    3  A    between atoms: N_2  and  C_23
REMARK    4  A    between atoms: C_3  and  C_4
REMARK    5  A    between atoms: C_10  and  C_15
REMARK    6  A    between atoms: C_20  and  O_21
REMARK    7  A    between atoms: O_21  and  C_22
REMARK    8  A    between atoms: C_23  and  C_24
REMARK    9  A    between atoms: C_24  and  C_26
REMARK   10  A    between atoms: C_24  and  O_33
REMARK   11  A    between atoms: C_26  and  C_27
REMARK                            x       y       z     vdW  Elec       q    Type
REMARK                         _______ _______ _______ _____ _____    ______ ____
ROOT
ATOM      1  C   UNL     1      -2.187  -0.017   1.195  0.00  0.00    +0.094 A 
ATOM      2  N   UNL     1      -3.505  -0.291   1.368  0.00  0.00    -0.312 N 
ATOM      3  H   UNL     1      -3.998  -0.727   0.655  0.00  0.00    +0.170 HD
ATOM      4  C   UNL     1      -4.142   0.029   2.510  0.00  0.00    +0.260 A 
ATOM      5  O   UNL     1      -5.326  -0.225   2.650  0.00  0.00    -0.267 OA
ATOM      6  C   UNL     1      -3.408   0.671   3.557  0.00  0.00    +0.080 A 
ATOM      7  C   UNL     1      -3.866   1.111   4.870  0.00  0.00    +0.007 A 
ATOM      8  C   UNL     1      -2.979   1.702   5.705  0.00  0.00    +0.056 A 
ATOM      9  S   UNL     1      -1.464   1.701   4.766  0.00  0.00    -0.076 S 
ATOM     10  C   UNL     1      -2.051   0.914   3.288  0.00  0.00    +0.116 A 
ATOM     11  N   UNL     1      -1.489   0.564   2.134  0.00  0.00    -0.229 NA
ENDROOT
BRANCH   7  12
ATOM     12  C   UNL     1      -5.277   0.914   5.282  0.00  0.00    +0.025 A 
ATOM     13  C   UNL     1      -6.101   2.016   5.503  0.00  0.00    +0.012 A 
ATOM     14  C   UNL     1      -7.413   1.828   5.886  0.00  0.00    +0.001 A 
ATOM     15  C   UNL     1      -7.914   0.549   6.052  0.00  0.00    +0.004 A 
ATOM     16  C   UNL     1      -7.105  -0.551   5.835  0.00  0.00    +0.046 A 
ATOM     17  C   UNL     1      -5.788  -0.377   5.445  0.00  0.00    +0.128 A 
BRANCH  17  18
ATOM     18  O   UNL     1      -4.993  -1.458   5.226  0.00  0.00    -0.495 OA
ATOM     19  C   UNL     1      -5.584  -2.745   5.412  0.00  0.00    +0.277 C 
ENDBRANCH  17  18
ENDBRANCH   7  12
BRANCH   1  20
ATOM     20  C   UNL     1      -1.516  -0.394  -0.100  0.00  0.00    -0.004 C 
BRANCH  20  22
ATOM     21  C   UNL     1       0.004   1.458   0.030  0.00  0.00    -0.095 C 
ATOM     22  N   UNL     1      -0.100  -0.005  -0.049  0.00  0.00    +0.384 N 
ATOM     23  H   UNL     1       0.333  -0.418   0.763  0.00  0.00    -0.082 HD
BRANCH  22  24
ATOM     24  C   UNL     1       0.582  -0.479  -1.261  0.00  0.00    -0.047 C 
BRANCH  24  25
ATOM     25  C   UNL     1       0.603  -2.009  -1.270  0.00  0.00    +0.102 C 
BRANCH  25  26
ATOM     26  O   UNL     1       1.294  -2.482  -0.112  0.00  0.00    -0.393 OA
ATOM     27  H   UNL     1       2.212  -2.185  -0.053  0.00  0.00    +0.210 HD
ENDBRANCH  25  26
BRANCH  25  28
ATOM     28  C   UNL     1       1.319  -2.502  -2.529  0.00  0.00    +0.064 C 
BRANCH  28  29
ATOM     29  C   UNL     1       1.232  -4.005  -2.599  0.00  0.00    -0.045 A 
ATOM     30  C   UNL     1       2.212  -4.782  -2.011  0.00  0.00    +0.004 A 
ATOM     31  C   UNL     1       2.133  -6.161  -2.075  0.00  0.00    +0.000 A 
ATOM     32  C   UNL     1       1.073  -6.762  -2.729  0.00  0.00    +0.000 A 
ATOM     33  C   UNL     1       0.093  -5.985  -3.317  0.00  0.00    +0.000 A 
ATOM     34  C   UNL     1       0.170  -4.606  -3.248  0.00  0.00    +0.004 A 
ENDBRANCH  28  29
ENDBRANCH  25  28
ENDBRANCH  24  25
ENDBRANCH  22  24
ENDBRANCH  20  22
ENDBRANCH   1  20
TORSDOF 9
