REMARK  Name = ZINC15451819
REMARK  6 active torsions:
REMARK  status: ('A' for Active; 'I' for Inactive)
REMARK    1  A    between atoms: C_1  and  C_2
REMARK    2  A    between atoms: C_2  and  C_4
REMARK    3  A    between atoms: C_2  and  N_16
REMARK    4  A    between atoms: C_4  and  C_6
REMARK    5  A    between atoms: N_19  and  S_22
REMARK    6  A    between atoms: S_22  and  C_25
REMARK                            x       y       z     vdW  Elec       q    Type
REMARK                         _______ _______ _______ _____ _____    ______ ____
ROOT
ATOM      1  N   UNL     1       0.713  -0.491   1.192  0.00  0.00    -0.290 NA
ATOM      2  C   UNL     1       0.664  -1.957   1.271  0.00  0.00    +0.102 C 
ATOM      3  C   UNL     1       1.254  -2.412   2.610  0.00  0.00    +0.125 C 
ATOM      4  N   UNL     1       2.595  -1.826   2.754  0.00  0.00    -0.174 NA
ATOM      5  C   UNL     1       2.746  -0.377   2.552  0.00  0.00    +0.125 C 
ATOM      6  C   UNL     1       2.097  -0.001   1.216  0.00  0.00    +0.102 C 
ENDROOT
BRANCH   4   7
ATOM      7  S   UNL     1       3.901  -2.771   3.133  0.00  0.00    +0.067 S 
ATOM      8  O   UNL     1       4.862  -1.914   3.733  0.00  0.00    -0.152 OA
ATOM      9  O   UNL     1       3.391  -3.923   3.791  0.00  0.00    -0.152 OA
BRANCH   7  10
ATOM     10  C   UNL     1       4.600  -3.327   1.614  0.00  0.00    +0.144 A 
ATOM     11  C   UNL     1       5.565  -2.750   0.857  0.00  0.00    +0.038 A 
ATOM     12  C   UNL     1       5.962  -3.373  -0.311  0.00  0.00    +0.030 A 
ATOM     13  C   UNL     1       5.375  -4.543  -0.665  0.00  0.00    +0.080 A 
ATOM     14  S   UNL     1       4.227  -4.801   0.678  0.00  0.00    -0.057 S 
ATOM     15 CL   UNL     1       5.667  -5.536  -2.059  0.00  0.00    -0.076 Cl
ENDBRANCH   7  10
ENDBRANCH   4   7
BRANCH   1  17
ATOM     16  C   UNL     1      -0.019   1.526   0.010  0.00  0.00    +0.032 C 
ATOM     17  C   UNL     1       0.002  -0.004   0.002  0.00  0.00    +0.125 C 
BRANCH  17  18
ATOM     18  C   UNL     1      -1.412  -0.526   0.013  0.00  0.00    +0.182 C 
ATOM     19  O   UNL     1      -1.908  -0.913   1.051  0.00  0.00    -0.290 OA
BRANCH  18  20
ATOM     20  C   UNL     1      -2.162  -0.565  -1.189  0.00  0.00    +0.044 A 
ATOM     21  C   UNL     1      -1.741  -0.170  -2.441  0.00  0.00    +0.095 A 
ATOM     22  N   UNL     1      -2.733  -0.357  -3.332  0.00  0.00    -0.360 N 
ATOM     23  H   UNL     1      -2.671  -0.151  -4.278  0.00  0.00    +0.165 HD
ATOM     24  C   UNL     1      -3.851  -0.881  -2.715  0.00  0.00    +0.047 A 
ATOM     25  C   UNL     1      -3.549  -1.042  -1.353  0.00  0.00    +0.010 A 
ATOM     26  C   UNL     1      -4.501  -1.563  -0.483  0.00  0.00    +0.011 A 
ATOM     27  C   UNL     1      -5.741  -1.924  -0.965  0.00  0.00    +0.001 A 
ATOM     28  C   UNL     1      -6.041  -1.769  -2.310  0.00  0.00    +0.002 A 
ATOM     29  C   UNL     1      -5.109  -1.247  -3.181  0.00  0.00    +0.026 A 
ENDBRANCH  18  20
ENDBRANCH  17  18
ENDBRANCH   1  17
TORSDOF 5
