REMARK  Name = ZINC63208804
REMARK  9 active torsions:
REMARK  status: ('A' for Active; 'I' for Inactive)
REMARK    1  A    between atoms: C_1  and  C_2
REMARK    2  A    between atoms: C_4  and  N_11
REMARK    3  A    between atoms: C_5  and  O_9
REMARK    4  A    between atoms: O_9  and  C_10
REMARK    5  A    between atoms: C_12  and  C_14
REMARK    6  A    between atoms: C_14  and  S_15
REMARK    7  A    between atoms: S_15  and  C_16
REMARK    8  A    between atoms: C_19  and  C_24
REMARK    9  A    between atoms: N_20  and  C_21
REMARK                            x       y       z     vdW  Elec       q    Type
REMARK                         _______ _______ _______ _____ _____    ______ ____
ROOT
ATOM      1  C   UNL     1      -0.525  -2.688  -7.686  0.00  0.00    +0.193 A 
ATOM      2  N   UNL     1      -0.487  -4.013  -7.709  0.00  0.00    -0.122 NA
ATOM      3  N   UNL     1      -0.516  -4.435  -8.922  0.00  0.00    -0.129 NA
ATOM      4  C   UNL     1      -0.574  -3.404  -9.754  0.00  0.00    +0.163 A 
ATOM      5  N   UNL     1      -0.586  -2.259  -8.976  0.00  0.00    -0.299 N 
ENDROOT
BRANCH   4   6
ATOM      6  C   UNL     1      -0.619  -3.463 -11.156  0.00  0.00    +0.025 C 
ATOM      7  C   UNL     1      -0.618  -4.608 -11.952  0.00  0.00    +0.006 A 
ATOM      8  C   UNL     1      -0.576  -5.984 -11.643  0.00  0.00    +0.010 A 
ATOM      9  C   UNL     1      -0.587  -6.900 -12.645  0.00  0.00    +0.001 A 
ATOM     10  C   UNL     1      -0.640  -6.516 -13.986  0.00  0.00    +0.002 A 
ATOM     11  C   UNL     1      -0.682  -5.213 -14.356  0.00  0.00    +0.026 A 
ATOM     12  C   UNL     1      -0.674  -4.197 -13.365  0.00  0.00    +0.043 A 
ATOM     13  N   UNL     1      -0.709  -2.883 -13.462  0.00  0.00    -0.380 N 
ATOM     14  C   UNL     1      -0.685  -2.298 -12.118  0.00  0.00    +0.152 C 
ATOM     15  H   UNL     1      -0.748  -2.382 -14.292  0.00  0.00    +0.160 HD
ENDBRANCH   4   6
BRANCH   5  16
ATOM     16  C   UNL     1      -0.649  -0.873  -9.445  0.00  0.00    +0.091 C 
ATOM     17  C   UNL     1      -0.251   0.226  -8.457  0.00  0.00    +0.027 C 
ATOM     18  C   UNL     1      -1.721   0.032  -8.835  0.00  0.00    +0.027 C 
ENDBRANCH   5  16
BRANCH   1  19
ATOM     19  S   UNL     1      -0.506  -1.669  -6.249  0.00  0.00    -0.077 S 
BRANCH  19  20
ATOM     20  C   UNL     1      -0.416  -2.851  -4.875  0.00  0.00    +0.173 C 
BRANCH  20  22
ATOM     21  N   UNL     1      -0.329  -2.776  -2.404  0.00  0.00    -0.282 N 
ATOM     22  C   UNL     1      -0.394  -2.100  -3.568  0.00  0.00    +0.228 C 
ATOM     23  O   UNL     1      -0.434  -0.888  -3.564  0.00  0.00    -0.275 OA
ATOM     24  H   UNL     1      -0.215  -3.740  -2.408  0.00  0.00    +0.155 HD
BRANCH  21  28
ATOM     25  C   UNL     1      -1.859   1.154   0.125  0.00  0.00    +0.045 C 
ATOM     26  C   UNL     1      -1.162  -0.181   0.068  0.00  0.00    -0.030 A 
ATOM     27  C   UNL     1      -1.067  -0.859  -1.133  0.00  0.00    +0.031 A 
ATOM     28  C   UNL     1      -0.426  -2.087  -1.187  0.00  0.00    +0.076 A 
ATOM     29  C   UNL     1       0.122  -2.635  -0.029  0.00  0.00    +0.143 A 
ATOM     30  C   UNL     1       0.023  -1.951   1.171  0.00  0.00    +0.067 A 
ATOM     31  C   UNL     1      -0.614  -0.723   1.217  0.00  0.00    +0.047 A 
ATOM     32 CL   UNL     1      -0.730   0.137   2.721  0.00  0.00    -0.083 Cl
BRANCH  29  33
ATOM     33  O   UNL     1       0.752  -3.839  -0.076  0.00  0.00    -0.493 OA
ATOM     34  C   UNL     1       1.289  -4.340   1.150  0.00  0.00    +0.277 C 
ENDBRANCH  29  33
ENDBRANCH  21  28
ENDBRANCH  20  22
ENDBRANCH  19  20
ENDBRANCH   1  19
TORSDOF 7
