REMARK  Name = ZINC63818545
REMARK  12 active torsions:
REMARK  status: ('A' for Active; 'I' for Inactive)
REMARK    1  A    between atoms: C_1  and  C_2
REMARK    2  A    between atoms: C_3  and  C_31
REMARK    3  A    between atoms: C_4  and  C_20
REMARK    4  A    between atoms: C_6  and  C_8
REMARK    5  A    between atoms: C_10  and  O_18
REMARK    6  A    between atoms: C_11  and  O_16
REMARK    7  A    between atoms: C_12  and  O_14
REMARK    8  A    between atoms: O_14  and  C_15
REMARK    9  A    between atoms: O_16  and  C_17
REMARK   10  A    between atoms: O_18  and  C_19
REMARK   11  A    between atoms: C_31  and  O_33
REMARK   12  A    between atoms: O_33  and  C_34
REMARK                            x       y       z     vdW  Elec       q    Type
REMARK                         _______ _______ _______ _____ _____    ______ ____
ROOT
ATOM      1  C   UNL     1      -0.240   1.407  -0.127  0.00  0.00    +0.066 C 
ATOM      2  C   UNL     1      -0.131  -0.095  -0.078  0.00  0.00    +0.049 C 
ATOM      3  C   UNL     1      -1.201  -0.932  -0.044  0.00  0.00    +0.067 C 
ATOM      4  C   UNL     1      -0.605  -2.328  -0.002  0.00  0.00    +0.093 C 
ATOM      5  C   UNL     1       0.887  -2.055  -0.021  0.00  0.00    +0.058 C 
ATOM      6  N   UNL     1       1.024  -0.755  -0.070  0.00  0.00    -0.255 NA
ENDROOT
BRANCH   4   7
ATOM      7  C   UNL     1      -1.011  -3.053   1.282  0.00  0.00    +0.120 C 
ATOM      8  C   UNL     1      -0.791  -2.164   2.485  0.00  0.00    -0.013 A 
ATOM      9  C   UNL     1       0.332  -1.577   3.022  0.00  0.00    +0.006 A 
ATOM     10  C   UNL     1       0.225  -0.795   4.159  0.00  0.00    +0.000 A 
ATOM     11  C   UNL     1      -1.011  -0.606   4.750  0.00  0.00    +0.002 A 
ATOM     12  C   UNL     1      -2.138  -1.192   4.213  0.00  0.00    +0.023 A 
ATOM     13  C   UNL     1      -2.038  -1.982   3.069  0.00  0.00    +0.037 A 
ATOM     14  N   UNL     1      -3.014  -2.670   2.348  0.00  0.00    -0.285 N 
ATOM     15  C   UNL     1      -2.501  -3.325   1.289  0.00  0.00    +0.226 C 
ATOM     16  O   UNL     1      -3.113  -4.003   0.491  0.00  0.00    -0.275 OA
ATOM     17  H   UNL     1      -3.956  -2.678   2.583  0.00  0.00    +0.155 HD
ENDBRANCH   4   7
BRANCH   5  18
ATOM     18  C   UNL     1       1.962  -3.052   0.005  0.00  0.00    +0.004 A 
ATOM     19  C   UNL     1       1.657  -4.418  -0.066  0.00  0.00    +0.059 A 
ATOM     20  C   UNL     1       2.672  -5.353  -0.041  0.00  0.00    +0.166 A 
ATOM     21  C   UNL     1       4.000  -4.940   0.054  0.00  0.00    +0.204 A 
ATOM     22  C   UNL     1       4.309  -3.583   0.126  0.00  0.00    +0.166 A 
ATOM     23  C   UNL     1       3.299  -2.641   0.095  0.00  0.00    +0.059 A 
BRANCH  22  24
ATOM     24  O   UNL     1       5.606  -3.185   0.220  0.00  0.00    -0.491 OA
ATOM     25  C   UNL     1       5.850  -1.779   0.289  0.00  0.00    +0.277 C 
ENDBRANCH  22  24
BRANCH  21  26
ATOM     26  O   UNL     1       4.996  -5.863   0.078  0.00  0.00    -0.488 OA
ATOM     27  C   UNL     1       5.548  -6.255  -1.180  0.00  0.00    +0.277 C 
ENDBRANCH  21  26
BRANCH  20  28
ATOM     28  O   UNL     1       2.377  -6.678  -0.110  0.00  0.00    -0.491 OA
ATOM     29  C   UNL     1       0.994  -7.036  -0.092  0.00  0.00    +0.277 C 
ENDBRANCH  20  28
ENDBRANCH   5  18
BRANCH   3  30
ATOM     30  C   UNL     1      -2.569  -0.581  -0.046  0.00  0.00    +0.337 C 
ATOM     31  O   UNL     1      -2.897   0.588   0.036  0.00  0.00    -0.245 OA
BRANCH  30  32
ATOM     32  O   UNL     1      -3.512  -1.542  -0.139  0.00  0.00    -0.465 OA
ATOM     33  C   UNL     1      -4.870  -1.109  -0.247  0.00  0.00    +0.280 C 
ENDBRANCH  30  32
ENDBRANCH   3  30
TORSDOF 7
