REMARK  Name = ZINC28287356
REMARK  9 active torsions:
REMARK  status: ('A' for Active; 'I' for Inactive)
REMARK    1  A    between atoms: C_1  and  C_2
REMARK    2  A    between atoms: C_5  and  C_8
REMARK    3  A    between atoms: C_8  and  C_10
REMARK    4  A    between atoms: C_8  and  N_26
REMARK    5  A    between atoms: C_10  and  N_11
REMARK    6  A    between atoms: C_12  and  C_14
REMARK    7  A    between atoms: C_15  and  C_25
REMARK    8  A    between atoms: C_18  and  C_24
REMARK    9  A    between atoms: C_19  and  C_23
REMARK                            x       y       z     vdW  Elec       q    Type
REMARK                         _______ _______ _______ _____ _____    ______ ____
ROOT
ATOM      1  C   UNL     1       3.103   2.809  -0.730  0.00  0.00    +0.094 C 
ENDROOT
BRANCH   1   2
ATOM      2  N   UNL     1       2.737   4.039  -0.024  0.00  0.00    -0.310 N 
ATOM      3  C   UNL     1       3.659   4.698   0.705  0.00  0.00    +0.280 C 
ATOM      4  O   UNL     1       4.796   4.271   0.777  0.00  0.00    -0.267 OA
ATOM      5  H   UNL     1       1.709   4.425  -0.088  0.00  0.00    +0.149 HD
BRANCH   3   6
ATOM      6  C   UNL     1       3.292   5.932   1.414  0.00  0.00    +0.193 A 
ATOM      7  C   UNL     1       4.134   6.677   2.175  0.00  0.00    +0.008 A 
ATOM      8  C   UNL     1       3.342   7.799   2.676  0.00  0.00    +0.024 A 
ATOM      9  C   UNL     1       3.618   8.897   3.495  0.00  0.00    +0.015 A 
ATOM     10  C   UNL     1       2.627   9.793   3.783  0.00  0.00    -0.047 A 
ATOM     11  C   UNL     1       1.350   9.620   3.267  0.00  0.00    -0.044 A 
ATOM     12  C   UNL     1       1.058   8.544   2.457  0.00  0.00    +0.050 A 
ATOM     13  C   UNL     1       2.049   7.619   2.151  0.00  0.00    +0.136 A 
ATOM     14  O   UNL     1       2.067   6.499   1.401  0.00  0.00    -0.450 OA
ATOM     15  C   UNL     1       0.272  10.620   3.595  0.00  0.00    +0.044 C 
ATOM     16  C   UNL     1       2.923  10.978   4.666  0.00  0.00    +0.044 C 
ATOM     17  C   UNL     1       5.591   6.402   2.448  0.00  0.00    +0.048 C 
ENDBRANCH   3   6
ENDBRANCH   1   2
BRANCH   1  18
ATOM     18  C   UNL     1       1.849   2.176  -1.337  0.00  0.00    -0.020 C 
BRANCH  18  19
ATOM     19  N   UNL     1       0.909   1.827  -0.264  0.00  0.00    +0.385 N 
ATOM     20  C   UNL     1      -0.082   2.906  -0.054  0.00  0.00    -0.078 C 
ATOM     21  C   UNL     1      -1.257   2.809  -0.989  0.00  0.00    -0.019 C 
ATOM     22  C   UNL     1      -2.380   2.022  -0.283  0.00  0.00    -0.002 C 
ATOM     23  C   UNL     1      -2.142   0.583  -0.305  0.00  0.00    -0.002 C 
ATOM     24  C   UNL     1      -0.838   0.197   0.424  0.00  0.00    -0.019 C 
ATOM     25  C   UNL     1       0.323   0.486  -0.489  0.00  0.00    -0.078 C 
ATOM     26  H   UNL     1       1.463   1.749   0.683  0.00  0.00    -0.081 HD
ENDBRANCH  18  19
BRANCH  18  31
ATOM     27  C   UNL     1       3.316  -2.597  -4.246  0.00  0.00    +0.044 C 
ATOM     28  C   UNL     1       2.933  -1.352  -3.487  0.00  0.00    -0.050 A 
ATOM     29  C   UNL     1       2.270  -0.325  -4.133  0.00  0.00    +0.003 A 
ATOM     30  C   UNL     1       1.919   0.817  -3.437  0.00  0.00    +0.002 A 
ATOM     31  C   UNL     1       2.232   0.932  -2.096  0.00  0.00    -0.059 A 
ATOM     32  C   UNL     1       2.900  -0.093  -1.451  0.00  0.00    +0.002 A 
ATOM     33  C   UNL     1       3.246  -1.237  -2.146  0.00  0.00    +0.003 A 
ENDBRANCH  18  31
ENDBRANCH   1  18
TORSDOF 5
