REMARK  Name = ZINC22001839
REMARK  9 active torsions:
REMARK  status: ('A' for Active; 'I' for Inactive)
REMARK    1  A    between atoms: C_5  and  O_7
REMARK    2  A    between atoms: O_7  and  C_8
REMARK    3  A    between atoms: C_8  and  C_9
REMARK    4  A    between atoms: C_9  and  C_11
REMARK    5  A    between atoms: C_9  and  O_28
REMARK    6  A    between atoms: C_11  and  O_12
REMARK    7  A    between atoms: O_12  and  C_13
REMARK    8  A    between atoms: C_22  and  C_25
REMARK    9  A    between atoms: C_32  and  C_36
REMARK                            x       y       z     vdW  Elec       q    Type
REMARK                         _______ _______ _______ _____ _____    ______ ____
ROOT
ATOM      1  C   UNL     1       1.418   1.954  -0.001  0.00  0.00    +0.189 C 
ENDROOT
BRANCH   1   2
ATOM      2  O   UNL     1       2.050   1.592  -1.230  0.00  0.00    -0.385 OA
ATOM      3  H   UNL     1       2.156   0.531  -1.502  0.00  0.00    +0.210 HD
ENDBRANCH   1   2
BRANCH   1   4
ATOM      4  C   UNL     1       1.400   3.478   0.133  0.00  0.00    +0.263 C 
BRANCH   4   5
ATOM      5  O   UNL     1       2.741   3.963   0.240  0.00  0.00    -0.489 OA
BRANCH   5  10
ATOM      6  C   UNL     1       1.952   7.509   0.516  0.00  0.00    +0.004 A 
ATOM      7  C   UNL     1       3.216   8.068   0.626  0.00  0.00    +0.012 A 
ATOM      8  C   UNL     1       4.338   7.249   0.608  0.00  0.00    +0.032 A 
ATOM      9  C   UNL     1       4.183   5.849   0.482  0.00  0.00    +0.069 A 
ATOM     10  C   UNL     1       2.902   5.303   0.366  0.00  0.00    +0.132 A 
ATOM     11  C   UNL     1       1.793   6.144   0.388  0.00  0.00    +0.046 A 
ATOM     12  C   UNL     1       5.376   4.990   0.468  0.00  0.00    +0.169 C 
ATOM     13  O   UNL     1       5.313   3.848   0.066  0.00  0.00    -0.292 OA
ATOM     14  C   UNL     1       6.686   5.562   0.967  0.00  0.00    +0.102 C 
ATOM     15  C   UNL     1       6.875   6.954   0.349  0.00  0.00    +0.180 C 
ATOM     16  C   UNL     1       5.694   7.817   0.726  0.00  0.00    +0.178 C 
ATOM     17  O   UNL     1       5.859   8.948   1.129  0.00  0.00    -0.291 OA
BRANCH  15  18
ATOM     18  C   UNL     1       6.951   6.837  -1.151  0.00  0.00    +0.367 C 
ATOM     19  O   UNL     1       6.863   5.753  -1.678  0.00  0.00    -0.246 OA
ATOM     20  O   UNL     1       7.117   7.937  -1.903  0.00  0.00    -0.246 OA
ENDBRANCH  15  18
ENDBRANCH   5  10
ENDBRANCH   4   5
ENDBRANCH   1   4
BRANCH   1  21
ATOM     21  C   UNL     1      -0.017   1.425   0.010  0.00  0.00    +0.263 C 
BRANCH  21  22
ATOM     22  O   UNL     1       0.002  -0.004   0.002  0.00  0.00    -0.489 OA
BRANCH  22  23
ATOM     23  C   UNL     1      -1.197  -0.636   0.010  0.00  0.00    +0.132 A 
ATOM     24  C   UNL     1      -2.381   0.103   0.025  0.00  0.00    +0.046 A 
ATOM     25  C   UNL     1      -3.602  -0.535   0.033  0.00  0.00    +0.004 A 
ATOM     26  C   UNL     1      -3.675  -1.923   0.025  0.00  0.00    +0.012 A 
ATOM     27  C   UNL     1      -2.510  -2.676   0.010  0.00  0.00    +0.037 A 
ATOM     28  C   UNL     1      -1.257  -2.031  -0.003  0.00  0.00    +0.074 A 
ATOM     29  C   UNL     1      -0.029  -2.846  -0.024  0.00  0.00    +0.191 C 
ATOM     30  O   UNL     1       1.043  -2.334  -0.276  0.00  0.00    -0.287 OA
ATOM     31  C   UNL     1      -0.116  -4.295   0.267  0.00  0.00    +0.070 C 
ATOM     32  C   UNL     1      -1.320  -4.919   0.274  0.00  0.00    +0.114 C 
ATOM     33  C   UNL     1      -2.557  -4.154   0.002  0.00  0.00    +0.201 C 
ATOM     34  O   UNL     1      -3.596  -4.735  -0.238  0.00  0.00    -0.286 OA
BRANCH  32  35
ATOM     35  C   UNL     1      -1.399  -6.366   0.565  0.00  0.00    +0.390 C 
ATOM     36  O   UNL     1      -0.386  -6.995   0.796  0.00  0.00    -0.240 OA
ATOM     37  O   UNL     1      -2.594  -6.987   0.573  0.00  0.00    -0.240 OA
ENDBRANCH  32  35
ENDBRANCH  22  23
ENDBRANCH  21  22
ENDBRANCH   1  21
TORSDOF 9
