REMARK  Name = ZINC20323890
REMARK  11 active torsions:
REMARK  status: ('A' for Active; 'I' for Inactive)
REMARK    1  A    between atoms: C_1  and  C_2
REMARK    2  A    between atoms: C_3  and  C_32
REMARK    3  A    between atoms: C_4  and  C_22
REMARK    4  A    between atoms: C_10  and  C_15
REMARK    5  A    between atoms: C_24  and  O_30
REMARK    6  A    between atoms: C_27  and  O_28
REMARK    7  A    between atoms: O_28  and  C_29
REMARK    8  A    between atoms: O_30  and  C_31
REMARK    9  A    between atoms: C_32  and  O_34
REMARK   10  A    between atoms: O_34  and  C_35
REMARK   11  A    between atoms: C_35  and  C_36
REMARK                            x       y       z     vdW  Elec       q    Type
REMARK                         _______ _______ _______ _____ _____    ______ ____
ROOT
ATOM      1  C   UNL     1      -7.771  -0.306  -2.781  0.00  0.00    +0.061 C 
ATOM      2  C   UNL     1      -8.003   0.622  -1.617  0.00  0.00    +0.016 C 
ATOM      3  C   UNL     1      -6.969   0.993  -0.842  0.00  0.00    +0.065 C 
ATOM      4  C   UNL     1      -7.160   1.926   0.318  0.00  0.00    +0.096 C 
ATOM      5  C   UNL     1      -8.612   1.997   0.722  0.00  0.00    +0.024 C 
ATOM      6  C   UNL     1      -9.582   1.583  -0.120  0.00  0.00    +0.016 C 
ATOM      7  N   UNL     1      -9.265   1.078  -1.353  0.00  0.00    -0.321 N 
ATOM      8  C   UNL     1     -11.037   1.663   0.272  0.00  0.00    +0.059 C 
ATOM      9  C   UNL     1     -11.171   1.494   1.787  0.00  0.00    +0.032 C 
ATOM     10  C   UNL     1     -10.347   2.589   2.473  0.00  0.00    +0.088 C 
ATOM     11  C   UNL     1      -8.923   2.502   1.996  0.00  0.00    +0.162 C 
ATOM     12  O   UNL     1      -8.026   2.875   2.726  0.00  0.00    -0.292 OA
ATOM     13  H   UNL     1     -10.038   1.042  -2.135  0.00  0.00    +0.152 HD
ENDROOT
BRANCH   9  14
ATOM     14  C   UNL     1     -12.618   1.625   2.185  0.00  0.00    -0.043 A 
ATOM     15  C   UNL     1     -13.303   2.797   1.925  0.00  0.00    +0.007 A 
ATOM     16  C   UNL     1     -14.632   2.916   2.285  0.00  0.00    +0.038 A 
ATOM     17  C   UNL     1     -15.274   1.865   2.917  0.00  0.00    +0.123 A 
ATOM     18  C   UNL     1     -14.586   0.693   3.182  0.00  0.00    +0.038 A 
ATOM     19  C   UNL     1     -13.259   0.574   2.816  0.00  0.00    +0.007 A 
ATOM     20  F   UNL     1     -16.572   1.982   3.275  0.00  0.00    -0.205 F 
ENDBRANCH   9  14
BRANCH   4  21
ATOM     21  C   UNL     1      -6.689   3.303  -0.073  0.00  0.00    +0.010 A 
ATOM     22  C   UNL     1      -7.275   3.957  -1.139  0.00  0.00    +0.053 A 
ATOM     23  C   UNL     1      -6.845   5.227  -1.495  0.00  0.00    +0.121 A 
ATOM     24  C   UNL     1      -5.819   5.835  -0.787  0.00  0.00    +0.049 A 
ATOM     25  C   UNL     1      -5.229   5.179   0.276  0.00  0.00    +0.049 A 
ATOM     26  C   UNL     1      -5.664   3.912   0.635  0.00  0.00    +0.124 A 
BRANCH  26  27
ATOM     27  O   UNL     1      -5.083   3.266   1.682  0.00  0.00    -0.495 OA
ATOM     28  C   UNL     1      -4.033   3.952   2.366  0.00  0.00    +0.277 C 
ENDBRANCH  26  27
BRANCH  23  29
ATOM     29  O   UNL     1      -7.425   5.873  -2.541  0.00  0.00    -0.495 OA
ATOM     30  C   UNL     1      -6.929   7.176  -2.855  0.00  0.00    +0.277 C 
ENDBRANCH  23  29
ENDBRANCH   4  21
BRANCH   3  31
ATOM     31  C   UNL     1      -5.675   0.499  -1.129  0.00  0.00    +0.338 C 
ATOM     32  O   UNL     1      -5.524  -0.347  -1.990  0.00  0.00    -0.245 OA
BRANCH  31  33
ATOM     33  O   UNL     1      -4.608   0.966  -0.447  0.00  0.00    -0.459 OA
BRANCH  33  34
ATOM     34  C   UNL     1      -3.332   0.422  -0.789  0.00  0.00    +0.264 C 
BRANCH  34  35
ATOM     35  C   UNL     1      -2.253   1.068   0.082  0.00  0.00    +0.156 C 
ATOM     36  C   UNL     1      -0.860   0.582  -0.362  0.00  0.00    +0.037 C 
ATOM     37  C   UNL     1      -0.264  -0.076   0.906  0.00  0.00    +0.031 C 
ATOM     38  C   UNL     1      -1.108   0.570   2.034  0.00  0.00    +0.160 C 
ATOM     39  O   UNL     1      -2.427   0.668   1.452  0.00  0.00    -0.373 OA
ENDBRANCH  34  35
ENDBRANCH  33  34
ENDBRANCH  31  33
ENDBRANCH   3  31
TORSDOF 8
