REMARK  Name = ZINC09083448
REMARK  13 active torsions:
REMARK  status: ('A' for Active; 'I' for Inactive)
REMARK    1  A    between atoms: C_1  and  C_2
REMARK    2  A    between atoms: C_2  and  C_4
REMARK    3  A    between atoms: C_2  and  O_31
REMARK    4  A    between atoms: C_4  and  C_6
REMARK    5  A    between atoms: C_4  and  N_19
REMARK    6  A    between atoms: C_6  and  O_8
REMARK    7  A    between atoms: O_8  and  C_9
REMARK    8  A    between atoms: C_9  and  C_10
REMARK    9  A    between atoms: N_15  and  C_16
REMARK   10  A    between atoms: C_16  and  C_17
REMARK   11  A    between atoms: C_16  and  C_18
REMARK   12  A    between atoms: N_19  and  S_20
REMARK   13  A    between atoms: S_20  and  C_23
REMARK                            x       y       z     vdW  Elec       q    Type
REMARK                         _______ _______ _______ _____ _____    ______ ____
ROOT
ATOM      1  C   UNL     1       0.857  -0.517   1.294  0.00  0.00    +0.213 C 
ENDROOT
BRANCH   1   3
ATOM      2  C   UNL     1       0.110   1.510   0.040  0.00  0.00    +0.040 C 
ATOM      3  C   UNL     1       0.172  -0.018   0.020  0.00  0.00    +0.141 C 
BRANCH   3   4
ATOM      4  O   UNL     1      -1.153  -0.549  -0.047  0.00  0.00    -0.390 OA
ATOM      5  H   UNL     1      -1.193  -1.514   0.006  0.00  0.00    +0.210 HD
ENDBRANCH   3   4
ENDBRANCH   1   3
BRANCH   1   6
ATOM      6  C   UNL     1       2.301  -0.086   1.290  0.00  0.00    +0.329 C 
ATOM      7  O   UNL     1       3.179  -0.916   1.327  0.00  0.00    -0.249 OA
BRANCH   6   8
ATOM      8  O   UNL     1       2.613   1.219   1.243  0.00  0.00    -0.454 OA
BRANCH   8   9
ATOM      9  C   UNL     1       4.002   1.555   1.242  0.00  0.00    +0.328 C 
BRANCH   9  10
ATOM     10  C   UNL     1       4.156   3.053   1.188  0.00  0.00    +0.258 C 
ATOM     11  O   UNL     1       3.174   3.762   1.153  0.00  0.00    -0.272 OA
ATOM     12  N   UNL     1       5.386   3.604   1.177  0.00  0.00    -0.237 N 
ATOM     13  C   UNL     1       5.524   4.943   1.128  0.00  0.00    +0.306 C 
ATOM     14  O   UNL     1       4.539   5.655   1.094  0.00  0.00    -0.252 OA
ATOM     15  N   UNL     1       6.754   5.494   1.117  0.00  0.00    -0.297 N 
ATOM     16  H   UNL     1       6.172   3.036   1.204  0.00  0.00    +0.159 HD
ATOM     17  H   UNL     1       7.540   4.926   1.145  0.00  0.00    +0.151 HD
BRANCH  15  18
ATOM     18  C   UNL     1       6.904   6.951   1.064  0.00  0.00    +0.068 C 
ATOM     19  C   UNL     1       6.820   7.524   2.481  0.00  0.00    +0.027 C 
ATOM     20  C   UNL     1       8.261   7.302   0.452  0.00  0.00    +0.027 C 
ENDBRANCH  15  18
ENDBRANCH   9  10
ENDBRANCH   8   9
ENDBRANCH   6   8
ENDBRANCH   1   6
BRANCH   1  21
ATOM     21  N   UNL     1       0.784  -1.979   1.348  0.00  0.00    -0.174 NA
ATOM     22  H   UNL     1       0.854  -2.498   0.532  0.00  0.00    +0.149 HD
BRANCH  21  23
ATOM     23  S   UNL     1       0.580  -2.745   2.802  0.00  0.00    +0.059 S 
ATOM     24  O   UNL     1       0.485  -4.134   2.519  0.00  0.00    -0.153 OA
ATOM     25  O   UNL     1       1.561  -2.212   3.682  0.00  0.00    -0.153 OA
BRANCH  23  26
ATOM     26  C   UNL     1      -0.988  -2.251   3.436  0.00  0.00    +0.107 A 
ATOM     27  C   UNL     1      -1.086  -1.130   4.239  0.00  0.00    +0.030 A 
ATOM     28  C   UNL     1      -2.315  -0.741   4.738  0.00  0.00    +0.023 A 
ATOM     29  C   UNL     1      -3.448  -1.474   4.433  0.00  0.00    +0.059 A 
ATOM     30  C   UNL     1      -3.350  -2.596   3.628  0.00  0.00    +0.061 A 
ATOM     31  C   UNL     1      -2.119  -2.981   3.126  0.00  0.00    +0.050 A 
ATOM     32 CL   UNL     1      -4.770  -3.517   3.245  0.00  0.00    -0.082 Cl
ATOM     33 CL   UNL     1      -4.992  -0.987   5.059  0.00  0.00    -0.082 Cl
ENDBRANCH  23  26
ENDBRANCH  21  23
ENDBRANCH   1  21
TORSDOF 10
