REMARK  Name = ZINC08964746
REMARK  7 active torsions:
REMARK  status: ('A' for Active; 'I' for Inactive)
REMARK    1  A    between atoms: C_1  and  C_2
REMARK    2  A    between atoms: C_2  and  C_3
REMARK    3  A    between atoms: C_3  and  C_4
REMARK    4  A    between atoms: C_7  and  C_10
REMARK    5  A    between atoms: C_10  and  C_12
REMARK    6  A    between atoms: C_14  and  C_37
REMARK    7  A    between atoms: C_37  and  C_39
REMARK                            x       y       z     vdW  Elec       q    Type
REMARK                         _______ _______ _______ _____ _____    ______ ____
ROOT
ATOM      1  C   UNL     1      -2.268   1.740  -1.325  0.00  0.00    +0.109 C 
ATOM      2  C   UNL     1      -3.699   1.262  -0.946  0.00  0.00    +0.152 C 
ATOM      3  N   UNL     1      -3.562   0.854   0.456  0.00  0.00    -0.311 N 
ATOM      4  C   UNL     1      -4.695   0.685   1.214  0.00  0.00    +0.038 A 
ATOM      5  C   UNL     1      -5.959   0.535   0.679  0.00  0.00    +0.024 A 
ATOM      6  C   UNL     1      -7.048   0.375   1.516  0.00  0.00    +0.002 A 
ATOM      7  C   UNL     1      -6.882   0.363   2.891  0.00  0.00    +0.001 A 
ATOM      8  C   UNL     1      -5.625   0.508   3.444  0.00  0.00    +0.010 A 
ATOM      9  C   UNL     1      -4.522   0.667   2.616  0.00  0.00    -0.004 A 
ATOM     10  C   UNL     1      -3.153   0.812   3.163  0.00  0.00    +0.007 C 
ATOM     11  C   UNL     1      -2.239   1.435   2.397  0.00  0.00    -0.003 C 
ATOM     12  C   UNL     1      -2.711   1.916   1.059  0.00  0.00    +0.117 C 
ATOM     13  C   UNL     1      -1.620   2.127   0.020  0.00  0.00    +0.108 C 
ATOM     14  C   UNL     1      -1.100   3.524   0.002  0.00  0.00    -0.008 A 
ATOM     15  C   UNL     1      -1.724   4.737  -0.201  0.00  0.00    +0.006 A 
ATOM     16  C   UNL     1      -0.924   5.874  -0.159  0.00  0.00    +0.000 A 
ATOM     17  C   UNL     1       0.433   5.790   0.077  0.00  0.00    +0.002 A 
ATOM     18  C   UNL     1       1.068   4.576   0.281  0.00  0.00    +0.023 A 
ATOM     19  C   UNL     1       0.278   3.426   0.240  0.00  0.00    +0.038 A 
ATOM     20  N   UNL     1       0.645   2.102   0.406  0.00  0.00    -0.284 N 
ATOM     21  C   UNL     1      -0.412   1.266   0.295  0.00  0.00    +0.231 C 
ATOM     22  O   UNL     1      -0.392   0.058   0.392  0.00  0.00    -0.274 OA
ATOM     23  H   UNL     1       1.552   1.808   0.582  0.00  0.00    +0.155 HD
ENDROOT
BRANCH   2  24
ATOM     24  C   UNL     1      -4.112   0.093  -1.802  0.00  0.00    +0.151 C 
ATOM     25  O   UNL     1      -4.138  -1.019  -1.333  0.00  0.00    -0.296 OA
ATOM     26  C   UNL     1      -4.494   0.312  -3.244  0.00  0.00    +0.088 C 
ENDBRANCH   2  24
BRANCH   1  27
ATOM     27  C   UNL     1      -1.496   0.622  -1.978  0.00  0.00    +0.170 C 
ATOM     28  O   UNL     1      -1.702  -0.527  -1.652  0.00  0.00    -0.292 OA
BRANCH  27  32
ATOM     29  C   UNL     1       1.394   1.498  -4.956  0.00  0.00    -0.047 A 
ATOM     30  C   UNL     1       1.083   0.182  -4.665  0.00  0.00    +0.004 A 
ATOM     31  C   UNL     1       0.145  -0.111  -3.698  0.00  0.00    +0.011 A 
ATOM     32  C   UNL     1      -0.493   0.926  -3.011  0.00  0.00    +0.018 A 
ATOM     33  C   UNL     1      -0.177   2.254  -3.314  0.00  0.00    +0.011 A 
ATOM     34  C   UNL     1       0.768   2.531  -4.280  0.00  0.00    +0.004 A 
BRANCH  29  35
ATOM     35  C   UNL     1       2.421   1.810  -6.014  0.00  0.00    +0.035 C 
BRANCH  35  37
ATOM     36  C   UNL     1       2.773   2.255  -8.447  0.00  0.00    +0.004 C 
ATOM     37  C   UNL     1       1.730   1.939  -7.373  0.00  0.00    +0.001 C 
ENDBRANCH  35  37
ENDBRANCH  29  35
ENDBRANCH  27  32
ENDBRANCH   1  27
TORSDOF 5
