REMARK  Name = ZINC21918116
REMARK  8 active torsions:
REMARK  status: ('A' for Active; 'I' for Inactive)
REMARK    1  A    between atoms: C_1  and  C_2
REMARK    2  A    between atoms: C_2  and  C_3
REMARK    3  A    between atoms: C_6  and  C_9
REMARK    4  A    between atoms: N_29  and  C_30
REMARK    5  A    between atoms: C_33  and  O_38
REMARK    6  A    between atoms: C_34  and  O_36
REMARK    7  A    between atoms: O_36  and  C_37
REMARK    8  A    between atoms: O_38  and  C_39
REMARK                            x       y       z     vdW  Elec       q    Type
REMARK                         _______ _______ _______ _____ _____    ______ ____
ROOT
ATOM      1  C   UNL     1       3.812   0.251   0.224  0.00  0.00    +0.155 C 
ATOM      2  C   UNL     1       2.315   0.343   0.201  0.00  0.00    +0.049 A 
ATOM      3  C   UNL     1       1.524   1.404   0.415  0.00  0.00    +0.025 A 
ATOM      4  C   UNL     1       0.187   0.955   0.350  0.00  0.00    +0.020 A 
ATOM      5  C   UNL     1       0.215  -0.372   0.086  0.00  0.00    +0.092 A 
ATOM      6  N   UNL     1       1.509  -0.748  -0.032  0.00  0.00    -0.312 N 
ATOM      7  C   UNL     1       2.087  -1.965  -0.369  0.00  0.00    +0.090 A 
ATOM      8  C   UNL     1       3.099  -2.107  -1.268  0.00  0.00    +0.005 A 
ATOM      9  C   UNL     1       3.599  -3.411  -1.461  0.00  0.00    -0.030 A 
ATOM     10  C   UNL     1       3.008  -4.423  -0.774  0.00  0.00    -0.005 A 
ATOM     11  S   UNL     1       1.757  -3.609   0.188  0.00  0.00    -0.075 S 
ATOM     12  C   UNL     1       3.344  -5.878  -0.819  0.00  0.00    +0.043 C 
ATOM     13  C   UNL     1       4.249  -6.126  -2.037  0.00  0.00    +0.005 C 
ATOM     14  C   UNL     1       5.355  -5.067  -2.049  0.00  0.00    +0.005 C 
ATOM     15  C   UNL     1       4.766  -3.700  -2.402  0.00  0.00    +0.036 C 
ATOM     16  C   UNL     1       3.633  -0.901  -2.008  0.00  0.00    +0.148 C 
ATOM     17  N   UNL     1       4.370   0.026  -1.131  0.00  0.00    -0.268 N 
ATOM     18  C   UNL     1       5.498   0.641  -1.540  0.00  0.00    +0.308 C 
ATOM     19  O   UNL     1       6.082   1.400  -0.792  0.00  0.00    -0.252 OA
ATOM     20  N   UNL     1       5.977   0.413  -2.779  0.00  0.00    -0.269 N 
ATOM     21  H   UNL     1       5.409  -0.213  -3.482  0.00  0.00    +0.156 HD
ENDROOT
BRANCH   1  25
ATOM     22  C   UNL     1       4.969  -2.986   2.760  0.00  0.00    -0.048 A 
ATOM     23  C   UNL     1       5.705  -2.700   1.626  0.00  0.00    +0.004 A 
ATOM     24  C   UNL     1       5.330  -1.653   0.805  0.00  0.00    +0.006 A 
ATOM     25  C   UNL     1       4.220  -0.891   1.119  0.00  0.00    -0.021 A 
ATOM     26  C   UNL     1       3.487  -1.175   2.256  0.00  0.00    +0.006 A 
ATOM     27  C   UNL     1       3.858  -2.225   3.074  0.00  0.00    +0.004 A 
BRANCH  22  29
ATOM     28  C   UNL     1       6.346  -3.617   4.724  0.00  0.00    +0.009 C 
ATOM     29  C   UNL     1       5.377  -4.128   3.656  0.00  0.00    +0.032 C 
ENDBRANCH  22  29
ENDBRANCH   1  25
BRANCH  20  30
ATOM     30  C   UNL     1       7.199   0.975  -3.171  0.00  0.00    +0.038 A 
ATOM     31  C   UNL     1       7.557   2.240  -2.727  0.00  0.00    +0.027 A 
ATOM     32  C   UNL     1       8.764   2.793  -3.108  0.00  0.00    +0.051 A 
ATOM     33  C   UNL     1       9.616   2.091  -3.945  0.00  0.00    +0.162 A 
ATOM     34  C   UNL     1       9.258   0.824  -4.397  0.00  0.00    +0.163 A 
ATOM     35  C   UNL     1       8.051   0.268  -4.010  0.00  0.00    +0.072 A 
BRANCH  34  36
ATOM     36  O   UNL     1      10.094   0.133  -5.218  0.00  0.00    -0.491 OA
ATOM     37  C   UNL     1       9.663  -1.161  -5.642  0.00  0.00    +0.277 C 
ENDBRANCH  34  36
BRANCH  33  38
ATOM     38  O   UNL     1      10.802   2.639  -4.325  0.00  0.00    -0.491 OA
ATOM     39  C   UNL     1      11.105   3.942  -3.823  0.00  0.00    +0.277 C 
ENDBRANCH  33  38
ENDBRANCH  20  30
TORSDOF 5
