REMARK  Name = ZINC16198585
REMARK  11 active torsions:
REMARK  status: ('A' for Active; 'I' for Inactive)
REMARK    1  A    between atoms: C_1  and  C_2
REMARK    2  A    between atoms: C_2  and  C_3
REMARK    3  A    between atoms: C_2  and  C_4
REMARK    4  A    between atoms: C_2  and  C_5
REMARK    5  A    between atoms: C_8  and  C_11
REMARK    6  A    between atoms: C_11  and  C_13
REMARK    7  A    between atoms: C_13  and  O_14
REMARK    8  A    between atoms: O_14  and  C_15
REMARK    9  A    between atoms: C_15  and  C_17
REMARK   10  A    between atoms: C_17  and  N_18
REMARK   11  A    between atoms: C_22  and  C_24
REMARK                            x       y       z     vdW  Elec       q    Type
REMARK                         _______ _______ _______ _____ _____    ______ ____
ROOT
ATOM      1  O   UNL     1      -7.830   2.342   1.712  0.00  0.00    -0.455 OA
ENDROOT
BRANCH   1   2
ATOM      2  C   UNL     1      -6.572   1.947   1.460  0.00  0.00    +0.329 C 
ATOM      3  O   UNL     1      -5.820   1.706   2.374  0.00  0.00    -0.249 OA
BRANCH   2   4
ATOM      4  C   UNL     1      -6.098   1.804   0.036  0.00  0.00    +0.271 C 
BRANCH   4   5
ATOM      5  N   UNL     1      -4.701   1.364   0.029  0.00  0.00    -0.184 N 
ATOM      6  C   UNL     1      -4.260   0.088   0.020  0.00  0.00    +0.439 A 
ATOM      7  O   UNL     1      -4.952  -0.913   0.018  0.00  0.00    -0.221 OA
ATOM      8  O   UNL     1      -2.917   0.124   0.009  0.00  0.00    -0.385 OA
ATOM      9  C   UNL     1      -2.515   1.415   0.020  0.00  0.00    +0.285 A 
ATOM     10  N   UNL     1      -3.566   2.187   0.029  0.00  0.00    -0.123 NA
BRANCH   9  11
ATOM     11  C   UNL     1      -1.117   1.874   0.017  0.00  0.00    +0.191 A 
ATOM     12  C   UNL     1      -0.013   1.076   0.008  0.00  0.00    +0.055 A 
ATOM     13  C   UNL     1       1.106   1.931   0.002  0.00  0.00    +0.042 A 
ATOM     14  C   UNL     1       0.637   3.195   0.013  0.00  0.00    +0.196 A 
ATOM     15  O   UNL     1      -0.705   3.157   0.026  0.00  0.00    -0.458 OA
ENDBRANCH   9  11
ENDBRANCH   4   5
ENDBRANCH   2   4
ENDBRANCH   1   2
BRANCH   1  16
ATOM     16  C   UNL     1      -8.217   2.458   3.107  0.00  0.00    +0.311 C 
BRANCH  16  17
ATOM     17  C   UNL     1      -9.652   2.909   3.193  0.00  0.00    +0.200 C 
ATOM     18  O   UNL     1     -10.286   3.113   2.180  0.00  0.00    -0.288 OA
BRANCH  17  22
ATOM     19  C   UNL     1     -11.475   3.466   6.983  0.00  0.00    -0.042 A 
ATOM     20  C   UNL     1     -12.202   3.700   5.829  0.00  0.00    +0.005 A 
ATOM     21  C   UNL     1     -11.616   3.522   4.593  0.00  0.00    +0.012 A 
ATOM     22  C   UNL     1     -10.285   3.103   4.508  0.00  0.00    +0.021 A 
ATOM     23  C   UNL     1      -9.559   2.863   5.679  0.00  0.00    +0.012 A 
ATOM     24  C   UNL     1     -10.157   3.051   6.907  0.00  0.00    +0.005 A 
BRANCH  19  26
ATOM     25  C   UNL     1     -13.332   2.735   8.455  0.00  0.00    +0.015 C 
ATOM     26  C   UNL     1     -12.123   3.664   8.329  0.00  0.00    -0.013 C 
ATOM     27  C   UNL     1     -11.114   3.341   9.433  0.00  0.00    +0.015 C 
ATOM     28  C   UNL     1     -12.580   5.118   8.466  0.00  0.00    +0.015 C 
ENDBRANCH  19  26
ENDBRANCH  17  22
ENDBRANCH  16  17
ENDBRANCH   1  16
TORSDOF 8
