REMARK  Name = ZINC07260399
REMARK  7 active torsions:
REMARK  status: ('A' for Active; 'I' for Inactive)
REMARK    1  A    between atoms: C_1  and  C_2
REMARK    2  A    between atoms: C_5  and  C_12
REMARK    3  A    between atoms: C_9  and  C_10
REMARK    4  A    between atoms: C_9  and  C_11
REMARK    5  A    between atoms: N_14  and  N_15
REMARK    6  A    between atoms: N_15  and  C_16
REMARK    7  A    between atoms: C_19  and  N_22
REMARK                            x       y       z     vdW  Elec       q    Type
REMARK                         _______ _______ _______ _____ _____    ______ ____
ROOT
ATOM      1  C   UNL     1       1.619  -2.820   0.330  0.00  0.00    +0.237 C 
ATOM      2  O   UNL     1       2.479  -3.033  -0.498  0.00  0.00    -0.274 OA
ATOM      3  N   UNL     1       1.539  -3.592   1.433  0.00  0.00    -0.236 N 
ATOM      4  H   UNL     1       0.851  -3.421   2.095  0.00  0.00    +0.173 HD
ENDROOT
BRANCH   1   9
ATOM      5  C   UNL     1      -0.192   1.675  -0.582  0.00  0.00    +0.013 C 
ATOM      6  C   UNL     1      -0.118   0.182  -0.253  0.00  0.00    -0.013 C 
ATOM      7  C   UNL     1      -1.455  -0.565   0.078  0.00  0.00    +0.009 C 
ATOM      8  C   UNL     1      -0.880  -1.985   0.366  0.00  0.00    +0.018 C 
ATOM      9  C   UNL     1       0.640  -1.692   0.127  0.00  0.00    +0.067 C 
ATOM     10  C   UNL     1       0.844  -0.335   0.847  0.00  0.00    +0.079 C 
ATOM     11 BR   UNL     1       0.093  -0.287   2.663  0.00  0.00    -0.086 Br
ATOM     12  C   UNL     1       0.759  -0.760  -1.132  0.00  0.00    -0.013 C 
ATOM     13  C   UNL     1       0.053  -1.298  -2.378  0.00  0.00    +0.012 C 
ATOM     14  C   UNL     1       2.168  -0.233  -1.411  0.00  0.00    +0.012 C 
ENDBRANCH   1   9
BRANCH   3  15
ATOM     15  N   UNL     1       2.449  -4.640   1.621  0.00  0.00    -0.264 N 
ATOM     16  H   UNL     1       3.136  -4.811   0.959  0.00  0.00    +0.170 HD
BRANCH  15  17
ATOM     17  C   UNL     1       2.366  -5.440   2.763  0.00  0.00    +0.045 A 
ATOM     18  C   UNL     1       1.378  -5.201   3.710  0.00  0.00    +0.026 A 
ATOM     19  C   UNL     1       1.298  -5.994   4.838  0.00  0.00    +0.034 A 
ATOM     20  C   UNL     1       2.200  -7.025   5.025  0.00  0.00    +0.126 A 
ATOM     21  C   UNL     1       3.185  -7.265   4.085  0.00  0.00    +0.034 A 
ATOM     22  C   UNL     1       3.267  -6.480   2.952  0.00  0.00    +0.026 A 
BRANCH  20  23
ATOM     23  N   UNL     1       2.112  -7.873   6.236  0.00  0.00    +0.056 N 
ATOM     24  O   UNL     1       1.252  -7.663   7.059  0.00  0.00    -0.126 OA
ATOM     25  O   UNL     1       2.900  -8.774   6.401  0.00  0.00    -0.126 OA
ENDBRANCH  20  23
ENDBRANCH  15  17
ENDBRANCH   3  15
TORSDOF 4
