REMARK  Name = ZINC07659598
REMARK  10 active torsions:
REMARK  status: ('A' for Active; 'I' for Inactive)
REMARK    1  A    between atoms: C_1  and  C_2
REMARK    2  A    between atoms: C_2  and  C_3
REMARK    3  A    between atoms: C_2  and  C_4
REMARK    4  A    between atoms: C_2  and  N_5
REMARK    5  A    between atoms: C_6  and  C_8
REMARK    6  A    between atoms: C_8  and  N_61
REMARK    7  A    between atoms: C_9  and  N_61
REMARK    8  A    between atoms: C_10  and  C_11
REMARK    9  A    between atoms: C_10  and  N_61
REMARK   10  A    between atoms: N_16  and  C_17
REMARK                            x       y       z     vdW  Elec       q    Type
REMARK                         _______ _______ _______ _____ _____    ______ ____
ROOT
ATOM      1  C   UNL     1      -7.192   1.201   2.099  0.00  0.00    +0.204 C 
ATOM      2  O   UNL     1      -6.796   1.898   3.008  0.00  0.00    -0.277 OA
ATOM      3  N   UNL     1      -6.368   0.892   1.079  0.00  0.00    -0.242 N 
ATOM      4  C   UNL     1      -5.103   1.358   1.069  0.00  0.00    +0.306 C 
ATOM      5  O   UNL     1      -4.707   2.057   1.980  0.00  0.00    -0.252 OA
ATOM      6  N   UNL     1      -4.279   1.049   0.049  0.00  0.00    -0.294 N 
ATOM      7  H   UNL     1      -6.684   0.334   0.351  0.00  0.00    +0.159 HD
ATOM      8  H   UNL     1      -4.595   0.491  -0.679  0.00  0.00    +0.151 HD
ENDROOT
BRANCH   6   9
ATOM      9  C   UNL     1      -2.904   1.556   0.038  0.00  0.00    +0.037 C 
ATOM     10  C   UNL     1      -2.188   1.063  -1.221  0.00  0.00    +0.029 C 
ATOM     11  C   UNL     1      -0.753   1.593  -1.232  0.00  0.00    -0.008 C 
ATOM     12  C   UNL     1      -0.013   1.086   0.008  0.00  0.00    +0.007 C 
ATOM     13  C   UNL     1      -0.729   1.579   1.267  0.00  0.00    -0.008 C 
ATOM     14  C   UNL     1      -2.164   1.050   1.278  0.00  0.00    +0.029 C 
ATOM     15  C   UNL     1      -0.750   3.109   1.275  0.00  0.00    +0.007 C 
ATOM     16  C   UNL     1      -1.490   3.616   0.036  0.00  0.00    -0.008 C 
ATOM     17  C   UNL     1      -0.773   3.123  -1.223  0.00  0.00    +0.007 C 
ATOM     18  C   UNL     1      -2.925   3.086   0.047  0.00  0.00    +0.029 C 
ENDBRANCH   6   9
BRANCH   1  19
ATOM     19  C   UNL     1      -8.606   0.679   2.110  0.00  0.00    +0.019 C 
BRANCH  19  21
ATOM     20  C   UNL     1      -8.696   0.569   4.527  0.00  0.00    -0.095 C 
ATOM     21  N   UNL     1      -9.290   1.181   3.320  0.00  0.00    +0.389 N 
ATOM     22  H   UNL     1      -9.173   2.200   3.371  0.00  0.00    -0.081 HD
BRANCH  21  23
ATOM     23  C   UNL     1     -10.733   0.867   3.251  0.00  0.00    +0.019 C 
BRANCH  23  25
ATOM     24  N   UNL     1     -12.774   1.458   4.517  0.00  0.00    -0.312 N 
ATOM     25  C   UNL     1     -11.439   1.576   4.378  0.00  0.00    +0.197 C 
ATOM     26  O   UNL     1     -10.805   2.252   5.160  0.00  0.00    -0.278 OA
ATOM     27  H   UNL     1     -13.281   0.916   3.892  0.00  0.00    +0.149 HD
BRANCH  24  29
ATOM     28  C   UNL     1     -13.234   3.655   5.489  0.00  0.00    +0.031 C 
ATOM     29  C   UNL     1     -13.460   2.147   5.613  0.00  0.00    +0.026 C 
ATOM     30  C   UNL     1     -14.959   1.849   5.543  0.00  0.00    +0.031 C 
ATOM     31  C   UNL     1     -12.905   1.656   6.952  0.00  0.00    +0.031 C 
ENDBRANCH  24  29
ENDBRANCH  23  25
ENDBRANCH  21  23
ENDBRANCH  19  21
ENDBRANCH   1  19
TORSDOF 6
