REMARK  Name = ZINC33435869
REMARK  4 active torsions:
REMARK  status: ('A' for Active; 'I' for Inactive)
REMARK    1  A    between atoms: C_3  and  C_35
REMARK    2  A    between atoms: C_5  and  N_7
REMARK    3  A    between atoms: N_9  and  C_10
REMARK    4  A    between atoms: C_20  and  N_30
REMARK                            x       y       z     vdW  Elec       q    Type
REMARK                         _______ _______ _______ _____ _____    ______ ____
ROOT
ATOM      1  N   UNL     1      -1.130   2.533   0.942  0.00  0.00    -0.254 N 
ATOM      2  C   UNL     1      -0.443   3.696   1.172  0.00  0.00    +0.098 C 
ATOM      3  N   UNL     1      -0.889   4.718   1.824  0.00  0.00    -0.369 N 
ATOM      4  C   UNL     1       0.930   3.584   0.542  0.00  0.00    +0.131 C 
ATOM      5  C   UNL     1       0.924   2.182  -0.090  0.00  0.00    +0.038 C 
ATOM      6  C   UNL     1      -0.440   1.628   0.235  0.00  0.00    +0.069 C 
ATOM      7  S   UNL     1      -0.977   0.184  -0.193  0.00  0.00    -0.039 S 
ATOM      8  C   UNL     1       2.016   1.320   0.534  0.00  0.00    +0.015 C 
ATOM      9  C   UNL     1       3.386   1.929   0.226  0.00  0.00    +0.001 C 
ATOM     10  C   UNL     1       3.579   2.007  -1.290  0.00  0.00    +0.000 C 
ATOM     11  C   UNL     1       2.489   2.891  -1.900  0.00  0.00    +0.001 C 
ATOM     12  C   UNL     1       1.116   2.286  -1.599  0.00  0.00    +0.015 C 
ATOM     13  H   UNL     1      -1.561   4.572   2.683  0.00  0.00    +0.161 HD
ENDROOT
BRANCH   3  14
ATOM     14  C   UNL     1      -0.501   6.072   1.420  0.00  0.00    +0.040 C 
ATOM     15  C   UNL     1      -1.703   6.782   0.796  0.00  0.00    +0.031 C 
ATOM     16  C   UNL     1      -1.298   8.196   0.374  0.00  0.00    -0.008 C 
ATOM     17  C   UNL     1      -0.163   8.117  -0.650  0.00  0.00    +0.007 C 
ATOM     18  C   UNL     1       1.039   7.407  -0.025  0.00  0.00    -0.008 C 
ATOM     19  C   UNL     1       0.633   5.993   0.397  0.00  0.00    +0.031 C 
ATOM     20  C   UNL     1       1.513   8.189   1.202  0.00  0.00    +0.007 C 
ATOM     21  C   UNL     1       0.378   8.268   2.225  0.00  0.00    -0.008 C 
ATOM     22  C   UNL     1      -0.824   8.978   1.601  0.00  0.00    +0.007 C 
ATOM     23  C   UNL     1      -0.027   6.854   2.647  0.00  0.00    +0.031 C 
ENDBRANCH   3  14
BRANCH   1  28
ATOM     24  C   UNL     1      -4.767   1.979   0.949  0.00  0.00    +0.002 A 
ATOM     25  C   UNL     1      -5.013   1.877   2.306  0.00  0.00    +0.012 A 
ATOM     26  C   UNL     1      -3.975   1.994   3.211  0.00  0.00    +0.057 A 
ATOM     27  C   UNL     1      -2.687   2.211   2.762  0.00  0.00    +0.036 A 
ATOM     28  C   UNL     1      -2.436   2.313   1.401  0.00  0.00    +0.041 A 
ATOM     29  C   UNL     1      -3.482   2.201   0.494  0.00  0.00    +0.024 A 
BRANCH  26  30
ATOM     30  C   UNL     1      -4.248   1.883   4.689  0.00  0.00    +0.417 C 
ATOM     31  F   UNL     1      -4.532   3.152   5.207  0.00  0.00    -0.166 F 
ATOM     32  F   UNL     1      -5.343   1.039   4.899  0.00  0.00    -0.166 F 
ATOM     33  F   UNL     1      -3.123   1.358   5.333  0.00  0.00    -0.166 F 
ENDBRANCH  26  30
ENDBRANCH   1  28
BRANCH   4  34
ATOM     34  N   UNL     1       1.978   3.688   1.565  0.00  0.00    -0.292 NA
ATOM     35  C   UNL     1       1.572   4.617   2.651  0.00  0.00    +0.085 C 
ATOM     36  C   UNL     1       2.491   4.207   3.830  0.00  0.00    +0.017 C 
ATOM     37  C   UNL     1       2.570   2.670   3.689  0.00  0.00    +0.017 C 
ATOM     38  C   UNL     1       2.213   2.382   2.219  0.00  0.00    +0.085 C 
ENDBRANCH   4  34
TORSDOF 4
