REMARK  Name = ZINC09076656
REMARK  5 active torsions:
REMARK  status: ('A' for Active; 'I' for Inactive)
REMARK    1  A    between atoms: C_4  and  C_7
REMARK    2  A    between atoms: C_18  and  C_20
REMARK    3  A    between atoms: C_20  and  N_66
REMARK    4  A    between atoms: C_23  and  C_26
REMARK    5  A    between atoms: N_28  and  C_29
REMARK                            x       y       z     vdW  Elec       q    Type
REMARK                         _______ _______ _______ _____ _____    ______ ____
ROOT
ATOM      1  C   UNL     1      -1.976   3.509  -1.625  0.00  0.00    -0.077 C 
ATOM      2  C   UNL     1      -2.524   2.098  -1.852  0.00  0.00    -0.006 C 
ATOM      3  C   UNL     1      -1.877   1.137  -0.851  0.00  0.00    +0.072 C 
ATOM      4  C   UNL     1      -2.154   1.629   0.572  0.00  0.00    -0.006 C 
ATOM      5  C   UNL     1      -1.618   3.054   0.728  0.00  0.00    -0.077 C 
ATOM      6  N   UNL     1      -2.298   3.933  -0.246  0.00  0.00    +0.385 N 
ATOM      7  H   UNL     1      -3.313   3.864  -0.105  0.00  0.00    -0.081 HD
ENDROOT
BRANCH   3   8
ATOM      8  C   UNL     1      -2.457  -0.242  -1.029  0.00  0.00    +0.220 C 
ATOM      9  O   UNL     1      -3.304  -0.439  -1.875  0.00  0.00    -0.275 OA
ATOM     10  N   UNL     1      -2.035  -1.257  -0.248  0.00  0.00    -0.285 N 
ATOM     11  H   UNL     1      -1.299  -1.120   0.369  0.00  0.00    +0.155 HD
BRANCH  10  12
ATOM     12  C   UNL     1      -2.659  -2.508  -0.329  0.00  0.00    +0.037 A 
ATOM     13  C   UNL     1      -3.119  -2.978  -1.552  0.00  0.00    +0.027 A 
ATOM     14  C   UNL     1      -3.735  -4.212  -1.632  0.00  0.00    +0.051 A 
ATOM     15  C   UNL     1      -3.896  -4.985  -0.493  0.00  0.00    +0.166 A 
ATOM     16  C   UNL     1      -3.436  -4.516   0.735  0.00  0.00    +0.168 A 
ATOM     17  C   UNL     1      -2.814  -3.281   0.814  0.00  0.00    +0.072 A 
ATOM     18  O   UNL     1      -3.712  -5.452   1.690  0.00  0.00    -0.453 OA
ATOM     19  C   UNL     1      -3.976  -6.670   0.970  0.00  0.00    +0.466 C 
ATOM     20  O   UNL     1      -4.460  -6.215  -0.307  0.00  0.00    -0.453 OA
ENDBRANCH  10  12
ENDBRANCH   3   8
BRANCH   6  21
ATOM     21  C   UNL     1      -1.879   5.335  -0.040  0.00  0.00    +0.019 C 
BRANCH  21  32
ATOM     22  C   UNL     1      -1.186   7.933   0.954  0.00  0.00    +0.149 C 
ATOM     23  C   UNL     1      -0.042   8.568   1.757  0.00  0.00    +0.256 C 
ATOM     24  O   UNL     1      -0.585   9.177   2.931  0.00  0.00    -0.488 OA
ATOM     25  C   UNL     1      -1.430   8.436   3.695  0.00  0.00    +0.142 A 
ATOM     26  C   UNL     1      -1.650   8.793   5.018  0.00  0.00    +0.047 A 
ATOM     27  C   UNL     1      -2.526   8.054   5.797  0.00  0.00    +0.004 A 
ATOM     28  C   UNL     1      -3.171   6.951   5.268  0.00  0.00    +0.002 A 
ATOM     29  C   UNL     1      -2.951   6.585   3.953  0.00  0.00    +0.027 A 
ATOM     30  C   UNL     1      -2.083   7.325   3.166  0.00  0.00    +0.079 A 
ATOM     31  N   UNL     1      -1.855   6.955   1.830  0.00  0.00    -0.259 N 
ATOM     32  C   UNL     1      -2.238   5.750   1.364  0.00  0.00    +0.204 C 
ATOM     33  O   UNL     1      -2.872   4.999   2.075  0.00  0.00    -0.277 OA
BRANCH  22  37
ATOM     34  C   UNL     1      -3.968  10.947  -0.240  0.00  0.00    +0.000 A 
ATOM     35  C   UNL     1      -3.051  10.453  -1.150  0.00  0.00    +0.000 A 
ATOM     36  C   UNL     1      -2.151   9.478  -0.763  0.00  0.00    +0.005 A 
ATOM     37  C   UNL     1      -2.167   8.997   0.533  0.00  0.00    -0.023 A 
ATOM     38  C   UNL     1      -3.087   9.487   1.441  0.00  0.00    +0.005 A 
ATOM     39  C   UNL     1      -3.984  10.466   1.056  0.00  0.00    +0.000 A 
ENDBRANCH  22  37
ENDBRANCH  21  32
ENDBRANCH   6  21
TORSDOF 5
