REMARK  Name = ZINC39877711
REMARK  8 active torsions:
REMARK  status: ('A' for Active; 'I' for Inactive)
REMARK    1  A    between atoms: C_1  and  C_2
REMARK    2  A    between atoms: C_5  and  N_9
REMARK    3  A    between atoms: C_10  and  C_27
REMARK    4  A    between atoms: C_17  and  C_26
REMARK    5  A    between atoms: C_18  and  C_25
REMARK    6  A    between atoms: C_30  and  O_35
REMARK    7  A    between atoms: C_31  and  O_33
REMARK    8  A    between atoms: O_33  and  C_34
REMARK                            x       y       z     vdW  Elec       q    Type
REMARK                         _______ _______ _______ _____ _____    ______ ____
ROOT
ATOM      1  N   UNL     1       0.059  -4.169  -0.022  0.00  0.00    -0.253 N 
ATOM      2  C   UNL     1       0.070  -5.041   1.164  0.00  0.00    +0.150 C 
ATOM      3  C   UNL     1       0.091  -6.440   0.640  0.00  0.00    +0.072 A 
ATOM      4  C   UNL     1       0.119  -7.731   1.335  0.00  0.00    +0.199 A 
ATOM      5  O   UNL     1      -0.047  -7.846   2.536  0.00  0.00    -0.287 OA
ATOM      6  C   UNL     1       0.367  -8.885   0.434  0.00  0.00    +0.065 A 
ATOM      7  C   UNL     1       0.620 -10.151   0.961  0.00  0.00    +0.019 A 
ATOM      8  C   UNL     1       0.852 -11.203   0.118  0.00  0.00    -0.047 A 
ATOM      9  C   UNL     1       0.838 -11.013  -1.256  0.00  0.00    -0.044 A 
ATOM     10  C   UNL     1       0.589  -9.770  -1.794  0.00  0.00    +0.050 A 
ATOM     11  C   UNL     1       0.346  -8.682  -0.956  0.00  0.00    +0.140 A 
ATOM     12  O   UNL     1       0.094  -7.472  -1.506  0.00  0.00    -0.450 OA
ATOM     13  C   UNL     1       0.086  -6.374  -0.725  0.00  0.00    +0.199 A 
ATOM     14  C   UNL     1       0.063  -4.955  -1.118  0.00  0.00    +0.287 C 
ATOM     15  O   UNL     1       0.051  -4.551  -2.264  0.00  0.00    -0.266 OA
ATOM     16  C   UNL     1       1.098 -12.181  -2.172  0.00  0.00    +0.044 C 
ATOM     17  C   UNL     1       1.125 -12.572   0.684  0.00  0.00    +0.044 C 
ENDROOT
BRANCH   1  22
ATOM     18  C   UNL     1      -0.018   1.503   0.010  0.00  0.00    +0.045 C 
ATOM     19  C   UNL     1       0.002  -0.004   0.002  0.00  0.00    -0.032 A 
ATOM     20  C   UNL     1       0.006  -0.688  -1.200  0.00  0.00    +0.006 A 
ATOM     21  C   UNL     1       0.025  -2.068  -1.212  0.00  0.00    +0.024 A 
ATOM     22  C   UNL     1       0.040  -2.772  -0.013  0.00  0.00    +0.039 A 
ATOM     23  C   UNL     1       0.037  -2.083   1.193  0.00  0.00    +0.043 A 
ATOM     24  C   UNL     1       0.023  -0.701   1.198  0.00  0.00    +0.046 A 
ATOM     25 CL   UNL     1       0.025   0.161   2.704  0.00  0.00    -0.083 Cl
ENDBRANCH   1  22
BRANCH   2  26
ATOM     26  C   UNL     1       1.301  -4.776   1.992  0.00  0.00    -0.018 A 
ATOM     27  C   UNL     1       2.515  -4.547   1.370  0.00  0.00    +0.009 A 
ATOM     28  C   UNL     1       3.647  -4.303   2.125  0.00  0.00    +0.049 A 
ATOM     29  C   UNL     1       3.567  -4.288   3.508  0.00  0.00    +0.158 A 
ATOM     30  C   UNL     1       2.345  -4.519   4.134  0.00  0.00    +0.162 A 
ATOM     31  C   UNL     1       1.214  -4.758   3.371  0.00  0.00    +0.055 A 
BRANCH  30  32
ATOM     32  O   UNL     1       2.262  -4.505   5.492  0.00  0.00    -0.491 OA
ATOM     33  C   UNL     1       0.976  -4.750   6.065  0.00  0.00    +0.277 C 
ENDBRANCH  30  32
BRANCH  29  34
ATOM     34  O   UNL     1       4.680  -4.049   4.253  0.00  0.00    -0.503 OA
ATOM     35  H   UNL     1       4.828  -3.114   4.449  0.00  0.00    +0.292 HD
ENDBRANCH  29  34
ENDBRANCH   2  26
TORSDOF 4
