REMARK  Name = ZINC59307550
REMARK  3 active torsions:
REMARK  status: ('A' for Active; 'I' for Inactive)
REMARK    1  A    between atoms: C_1  and  C_2
REMARK    2  A    between atoms: N_11  and  C_12
REMARK    3  A    between atoms: C_12  and  C_13
REMARK                            x       y       z     vdW  Elec       q    Type
REMARK                         _______ _______ _______ _____ _____    ______ ____
ROOT
ATOM      1  C   UNL     1       2.432  -6.340   1.885  0.00  0.00    -0.014 A 
ATOM      2  C   UNL     1       2.113  -6.877   3.126  0.00  0.00    +0.010 A 
ATOM      3  C   UNL     1       1.754  -8.211   3.195  0.00  0.00    +0.042 A 
ATOM      4  C   UNL     1       1.724  -8.965   2.026  0.00  0.00    +0.099 A 
ATOM      5  N   UNL     1       2.035  -8.416   0.862  0.00  0.00    -0.349 N 
ATOM      6  C   UNL     1       2.375  -7.145   0.765  0.00  0.00    +0.089 A 
ATOM      7  N   UNL     1       1.366 -10.307   2.082  0.00  0.00    -0.312 N 
ATOM      8  C   UNL     1       0.902 -10.925   3.335  0.00  0.00    +0.111 C 
ATOM      9  C   UNL     1      -0.549 -11.357   3.136  0.00  0.00    +0.054 C 
ATOM     10  C   UNL     1      -0.713 -12.104   1.839  0.00  0.00    -0.041 A 
ATOM     11  C   UNL     1      -1.830 -12.920   1.701  0.00  0.00    +0.004 A 
ATOM     12  C   UNL     1      -2.045 -13.624   0.535  0.00  0.00    +0.000 A 
ATOM     13  C   UNL     1      -1.145 -13.518  -0.509  0.00  0.00    +0.000 A 
ATOM     14  C   UNL     1      -0.034 -12.711  -0.374  0.00  0.00    +0.005 A 
ATOM     15  C   UNL     1       0.187 -12.007   0.802  0.00  0.00    -0.027 A 
ATOM     16  C   UNL     1       1.429 -11.163   0.892  0.00  0.00    +0.141 C 
ATOM     17  H   UNL     1       2.008  -8.961   0.060  0.00  0.00    +0.167 HD
ENDROOT
BRANCH   1  18
ATOM     18  C   UNL     1       2.828  -4.891   1.762  0.00  0.00    +0.142 C 
BRANCH  18  28
ATOM     19  C   UNL     1      -0.019   1.531   0.029  0.00  0.00    +0.009 C 
ATOM     20  C   UNL     1       0.002   0.002   0.015  0.00  0.00    +0.003 C 
ATOM     21  C   UNL     1      -1.433  -0.529   0.023  0.00  0.00    +0.006 C 
ATOM     22  C   UNL     1      -1.413  -2.059  -0.025  0.00  0.00    +0.019 C 
ATOM     23  C   UNL     1      -0.692  -2.595   1.216  0.00  0.00    +0.109 C 
ATOM     24  N   UNL     1       0.638  -1.977   1.293  0.00  0.00    -0.285 N 
ATOM     25  C   UNL     1       0.740  -0.512   1.255  0.00  0.00    +0.112 C 
ATOM     26  C   UNL     1       1.745  -2.739   1.398  0.00  0.00    +0.302 C 
ATOM     27  O   UNL     1       2.845  -2.222   1.365  0.00  0.00    -0.253 OA
ATOM     28  N   UNL     1       1.632  -4.075   1.539  0.00  0.00    -0.295 N 
ATOM     29  H   UNL     1       0.759  -4.495   1.493  0.00  0.00    +0.151 HD
ENDBRANCH  18  28
ENDBRANCH   1  18
TORSDOF 2
