REMARK  Name = ZINC20180811
REMARK  5 active torsions:
REMARK  status: ('A' for Active; 'I' for Inactive)
REMARK    1  A    between atoms: N_7  and  C_20
REMARK    2  A    between atoms: C_11  and  C_12
REMARK    3  A    between atoms: C_20  and  C_21
REMARK    4  A    between atoms: N_23  and  C_24
REMARK    5  A    between atoms: C_24  and  C_25
REMARK                            x       y       z     vdW  Elec       q    Type
REMARK                         _______ _______ _______ _____ _____    ______ ____
ROOT
ATOM      1  C   UNL     1      -0.812   3.529   0.853  0.00  0.00    +0.002 A 
ATOM      2  C   UNL     1      -0.986   2.183   0.586  0.00  0.00    +0.004 A 
ATOM      3  C   UNL     1       0.110   1.375   0.347  0.00  0.00    +0.048 A 
ATOM      4  C   UNL     1       1.385   1.915   0.364  0.00  0.00    +0.150 A 
ATOM      5  C   UNL     1       1.561   3.273   0.628  0.00  0.00    +0.080 A 
ATOM      6  C   UNL     1       0.457   4.076   0.872  0.00  0.00    +0.027 A 
ATOM      7  N   UNL     1       2.848   3.826   0.645  0.00  0.00    -0.253 N 
ATOM      8  C   UNL     1       3.877   3.101   0.143  0.00  0.00    +0.287 C 
ATOM      9  O   UNL     1       5.011   3.542   0.125  0.00  0.00    -0.266 OA
ATOM     10  C   UNL     1       3.570   1.754  -0.382  0.00  0.00    +0.191 C 
ATOM     11  C   UNL     1       4.346   1.171  -1.323  0.00  0.00    +0.059 C 
ATOM     12  O   UNL     1       2.467   1.124   0.126  0.00  0.00    -0.449 OA
ENDROOT
BRANCH  11  13
ATOM     13  C   UNL     1       5.404   1.946  -1.989  0.00  0.00    -0.021 A 
ATOM     14  C   UNL     1       5.198   3.295  -2.297  0.00  0.00    +0.011 A 
ATOM     15  C   UNL     1       6.196   4.017  -2.916  0.00  0.00    +0.039 A 
ATOM     16  C   UNL     1       7.396   3.406  -3.244  0.00  0.00    +0.123 A 
ATOM     17  C   UNL     1       7.605   2.068  -2.947  0.00  0.00    +0.039 A 
ATOM     18  C   UNL     1       6.618   1.336  -2.322  0.00  0.00    +0.011 A 
ATOM     19  F   UNL     1       8.368   4.119  -3.856  0.00  0.00    -0.205 F 
ENDBRANCH  11  13
BRANCH   7  20
ATOM     20  C   UNL     1       3.078   5.164   1.195  0.00  0.00    +0.209 C 
BRANCH  20  21
ATOM     21  C   UNL     1       2.930   6.189   0.101  0.00  0.00    +0.231 C 
ATOM     22  O   UNL     1       2.659   5.837  -1.028  0.00  0.00    -0.274 OA
ATOM     23  N   UNL     1       3.098   7.498   0.377  0.00  0.00    -0.310 N 
ATOM     24  H   UNL     1       3.343   7.817   1.401  0.00  0.00    +0.149 HD
BRANCH  23  25
ATOM     25  C   UNL     1       2.954   8.495  -0.687  0.00  0.00    +0.139 C 
BRANCH  25  26
ATOM     26  C   UNL     1       3.191   9.871  -0.120  0.00  0.00    -0.027 A 
ATOM     27  C   UNL     1       2.130  10.601   0.383  0.00  0.00    +0.009 A 
ATOM     28  C   UNL     1       2.342  11.863   0.908  0.00  0.00    +0.050 A 
ATOM     29  C   UNL     1       3.618  12.402   0.921  0.00  0.00    +0.166 A 
ATOM     30  C   UNL     1       4.686  11.669   0.410  0.00  0.00    +0.167 A 
ATOM     31  C   UNL     1       4.466  10.404  -0.110  0.00  0.00    +0.054 A 
ATOM     32  O   UNL     1       5.824  12.411   0.536  0.00  0.00    -0.453 OA
ATOM     33  C   UNL     1       5.512  13.434   1.499  0.00  0.00    +0.466 C 
ATOM     34  O   UNL     1       4.088  13.603   1.368  0.00  0.00    -0.453 OA
ENDBRANCH  25  26
ENDBRANCH  23  25
ENDBRANCH  20  21
ENDBRANCH   7  20
TORSDOF 5
