REMARK  Name = ZINC39944800
REMARK  16 active torsions:
REMARK  status: ('A' for Active; 'I' for Inactive)
REMARK    1  A    between atoms: C_1  and  C_2
REMARK    2  A    between atoms: C_4  and  C_12
REMARK    3  A    between atoms: C_12  and  C_14
REMARK    4  A    between atoms: C_14  and  C_16
REMARK    5  A    between atoms: C_14  and  O_17
REMARK    6  A    between atoms: O_17  and  C_18
REMARK    7  A    between atoms: C_18  and  C_20
REMARK    8  A    between atoms: C_20  and  C_22
REMARK    9  A    between atoms: C_20  and  N_25
REMARK   10  A    between atoms: C_22  and  C_23
REMARK   11  A    between atoms: C_22  and  C_24
REMARK   12  A    between atoms: C_26  and  C_28
REMARK   13  A    between atoms: C_31  and  C_34
REMARK   14  A    between atoms: C_34  and  C_35
REMARK   15  A    between atoms: C_34  and  C_36
REMARK   16  A    between atoms: C_34  and  C_37
REMARK                            x       y       z     vdW  Elec       q    Type
REMARK                         _______ _______ _______ _____ _____    ______ ____
ROOT
ATOM      1  C   UNL     1       2.126   0.180  -5.670  0.00  0.00    +0.329 C 
ATOM      2  O   UNL     1       3.185  -0.337  -5.404  0.00  0.00    -0.249 OA
ENDROOT
BRANCH   1   3
ATOM      3  O   UNL     1       1.076   0.020  -4.849  0.00  0.00    -0.452 OA
BRANCH   3   4
ATOM      4  C   UNL     1       1.283  -0.772  -3.678  0.00  0.00    +0.244 C 
ATOM      5  C   UNL     1       0.965  -2.236  -3.990  0.00  0.00    +0.061 C 
BRANCH   4   6
ATOM      6  C   UNL     1       0.379  -0.286  -2.575  0.00  0.00    +0.202 C 
ATOM      7  O   UNL     1      -0.610   0.367  -2.844  0.00  0.00    -0.288 OA
BRANCH   6  10
ATOM      8  C   UNL     1      -0.032   1.408   0.087  0.00  0.00    +0.035 C 
ATOM      9  C   UNL     1      -0.063  -0.120   0.002  0.00  0.00    +0.111 C 
ATOM     10  C   UNL     1       0.680  -0.588  -1.230  0.00  0.00    +0.030 C 
ATOM     11  C   UNL     1       1.717  -1.374  -0.761  0.00  0.00    +0.007 A 
ATOM     12  C   UNL     1       2.750  -2.091  -1.410  0.00  0.00    +0.010 A 
ATOM     13  C   UNL     1       3.650  -2.794  -0.686  0.00  0.00    +0.001 A 
ATOM     14  C   UNL     1       3.610  -2.850   0.716  0.00  0.00    +0.002 A 
ATOM     15  C   UNL     1       2.666  -2.202   1.431  0.00  0.00    +0.026 A 
ATOM     16  C   UNL     1       1.646  -1.413   0.720  0.00  0.00    +0.043 A 
ATOM     17  N   UNL     1       0.639  -0.704   1.148  0.00  0.00    -0.377 N 
ATOM     18  H   UNL     1       0.393  -0.582   2.079  0.00  0.00    +0.160 HD
ENDBRANCH   6  10
ENDBRANCH   4   6
ENDBRANCH   3   4
ENDBRANCH   1   3
BRANCH   1  19
ATOM     19  C   UNL     1       1.983   1.002  -6.925  0.00  0.00    +0.185 C 
BRANCH  19  20
ATOM     20  N   UNL     1       3.259   1.023  -7.643  0.00  0.00    -0.298 N 
ATOM     21  C   UNL     1       3.548   2.044  -8.475  0.00  0.00    +0.245 C 
ATOM     22  O   UNL     1       2.749   2.947  -8.628  0.00  0.00    -0.270 OA
ATOM     23  H   UNL     1       3.896   0.302  -7.521  0.00  0.00    +0.150 HD
BRANCH  21  24
ATOM     24  C   UNL     1       4.836   2.064  -9.200  0.00  0.00    +0.037 A 
ATOM     25  C   UNL     1       5.752   1.025  -9.031  0.00  0.00    +0.013 A 
ATOM     26  C   UNL     1       6.952   1.050  -9.711  0.00  0.00    +0.005 A 
ATOM     27  C   UNL     1       7.248   2.103 -10.559  0.00  0.00    -0.042 A 
ATOM     28  C   UNL     1       6.344   3.136 -10.732  0.00  0.00    +0.005 A 
ATOM     29  C   UNL     1       5.138   3.120 -10.062  0.00  0.00    +0.013 A 
BRANCH  27  30
ATOM     30  C   UNL     1       8.561   2.124 -11.299  0.00  0.00    -0.013 C 
ATOM     31  C   UNL     1       8.663   0.886 -12.193  0.00  0.00    +0.015 C 
ATOM     32  C   UNL     1       8.640   3.384 -12.163  0.00  0.00    +0.015 C 
ATOM     33  C   UNL     1       9.713   2.123 -10.293  0.00  0.00    +0.015 C 
ENDBRANCH  27  30
ENDBRANCH  21  24
ENDBRANCH  19  20
BRANCH  19  34
ATOM     34  C   UNL     1       0.904   0.387  -7.818  0.00  0.00    +0.014 C 
ATOM     35  C   UNL     1      -0.429   0.366  -7.067  0.00  0.00    +0.009 C 
ATOM     36  C   UNL     1       0.758   1.223  -9.091  0.00  0.00    +0.009 C 
ENDBRANCH  19  34
ENDBRANCH   1  19
TORSDOF 9
