REMARK  Name = ZINC39694813
REMARK  10 active torsions:
REMARK  status: ('A' for Active; 'I' for Inactive)
REMARK    1  A    between atoms: C_1  and  C_2
REMARK    2  A    between atoms: C_4  and  C_36
REMARK    3  A    between atoms: C_6  and  C_8
REMARK    4  A    between atoms: C_8  and  N_9
REMARK    5  A    between atoms: C_10  and  C_12
REMARK    6  A    between atoms: C_23  and  C_25
REMARK    7  A    between atoms: C_29  and  O_32
REMARK    8  A    between atoms: C_30  and  C_31
REMARK    9  A    between atoms: O_32  and  C_33
REMARK   10  A    between atoms: C_33  and  C_35
REMARK                            x       y       z     vdW  Elec       q    Type
REMARK                         _______ _______ _______ _____ _____    ______ ____
ROOT
ATOM      1  C   UNL     1       2.788  -3.981   5.235  0.00  0.00    +0.100 C 
ATOM      2  C   UNL     1       3.623  -2.682   5.191  0.00  0.00    +0.121 C 
ATOM      3  N   UNL     1       3.531  -2.131   6.564  0.00  0.00    -0.296 N 
ATOM      4  C   UNL     1       3.612  -3.322   7.444  0.00  0.00    +0.115 C 
ATOM      5  C   UNL     1       2.786  -4.400   6.715  0.00  0.00    -0.004 C 
ATOM      6  C   UNL     1       3.441  -5.768   6.878  0.00  0.00    -0.010 C 
ATOM      7  C   UNL     1       3.376  -6.189   8.348  0.00  0.00    -0.082 C 
ATOM      8  N   UNL     1       1.974  -6.241   8.782  0.00  0.00    +0.379 N 
ATOM      9  C   UNL     1       1.378  -4.901   8.710  0.00  0.00    -0.082 C 
ATOM     10  C   UNL     1       1.359  -4.426   7.255  0.00  0.00    -0.010 C 
ATOM     11  C   UNL     1       3.405  -0.841   6.930  0.00  0.00    +0.247 C 
ATOM     12  O   UNL     1       3.437  -0.536   8.107  0.00  0.00    -0.270 OA
ATOM     13  H   UNL     1       1.461  -6.868   8.182  0.00  0.00    -0.086 HD
ATOM     14  H   UNL     1       1.930  -6.577   9.732  0.00  0.00    -0.086 HD
ENDROOT
BRANCH  11  15
ATOM     15  C   UNL     1       3.225   0.205   5.901  0.00  0.00    +0.043 A 
ATOM     16  C   UNL     1       3.880   0.099   4.673  0.00  0.00    +0.013 A 
ATOM     17  C   UNL     1       3.711   1.077   3.714  0.00  0.00    +0.004 A 
ATOM     18  C   UNL     1       2.893   2.163   3.966  0.00  0.00    +0.047 A 
ATOM     19  C   UNL     1       2.238   2.278   5.184  0.00  0.00    +0.135 A 
ATOM     20  C   UNL     1       2.397   1.299   6.151  0.00  0.00    +0.004 A 
ATOM     21  C   UNL     1       1.682   1.419   7.472  0.00  0.00    +0.048 C 
BRANCH  19  22
ATOM     22  O   UNL     1       1.435   3.348   5.426  0.00  0.00    -0.426 OA
BRANCH  22  23
ATOM     23  C   UNL     1       1.971   4.410   6.049  0.00  0.00    +0.309 C 
ATOM     24  O   UNL     1       3.155   4.433   6.293  0.00  0.00    -0.251 OA
ATOM     25  C   UNL     1       1.098   5.572   6.443  0.00  0.00    +0.136 C 
ENDBRANCH  22  23
ENDBRANCH  19  22
ENDBRANCH  11  15
BRANCH   1  27
ATOM     26  N   UNL     1       0.661  -4.708   4.201  0.00  0.00    -0.311 N 
ATOM     27  C   UNL     1       1.381  -3.716   4.763  0.00  0.00    +0.218 C 
ATOM     28  O   UNL     1       0.897  -2.611   4.889  0.00  0.00    -0.275 OA
ATOM     29  H   UNL     1       1.048  -5.591   4.101  0.00  0.00    +0.149 HD
BRANCH  26  30
ATOM     30  C   UNL     1      -0.706  -4.451   3.742  0.00  0.00    +0.139 C 
BRANCH  30  36
ATOM     31  C   UNL     1      -1.498  -7.439  -0.193  0.00  0.00    +0.044 C 
ATOM     32  C   UNL     1      -1.665  -7.142   1.275  0.00  0.00    -0.050 A 
ATOM     33  C   UNL     1      -2.350  -8.028   2.085  0.00  0.00    +0.006 A 
ATOM     34  C   UNL     1      -2.503  -7.756   3.432  0.00  0.00    -0.050 A 
ATOM     35  C   UNL     1      -1.971  -6.599   3.968  0.00  0.00    +0.008 A 
ATOM     36  C   UNL     1      -1.286  -5.713   3.158  0.00  0.00    -0.030 A 
ATOM     37  C   UNL     1      -1.129  -5.987   1.812  0.00  0.00    +0.008 A 
ATOM     38  C   UNL     1      -3.250  -8.722   4.316  0.00  0.00    +0.044 C 
ENDBRANCH  30  36
ENDBRANCH  26  30
ENDBRANCH   1  27
TORSDOF 6
