REMARK  Name = ZINC36556036
REMARK  16 active torsions:
REMARK  status: ('A' for Active; 'I' for Inactive)
REMARK    1  A    between atoms: C_1  and  C_2
REMARK    2  A    between atoms: C_5  and  S_8
REMARK    3  A    between atoms: S_8  and  C_11
REMARK    4  A    between atoms: C_11  and  N_12
REMARK    5  A    between atoms: C_13  and  C_15
REMARK    6  A    between atoms: C_15  and  C_17
REMARK    7  A    between atoms: C_15  and  N_25
REMARK    8  A    between atoms: C_20  and  C_24
REMARK    9  A    between atoms: C_22  and  C_23
REMARK   10  A    between atoms: N_25  and  C_26
REMARK   11  A    between atoms: C_26  and  C_27
REMARK   12  A    between atoms: C_30  and  C_32
REMARK   13  A    between atoms: C_33  and  C_35
REMARK   14  A    between atoms: C_35  and  C_36
REMARK   15  A    between atoms: C_36  and  C_37
REMARK   16  A    between atoms: C_36  and  C_38
REMARK                            x       y       z     vdW  Elec       q    Type
REMARK                         _______ _______ _______ _____ _____    ______ ____
ROOT
ATOM      1  C   UNL     1       3.254  -4.982   3.429  0.00  0.00    +0.193 C 
ENDROOT
BRANCH   1   2
ATOM      2  C   UNL     1       2.625  -3.814   4.144  0.00  0.00    -0.015 A 
ATOM      3  C   UNL     1       1.280  -3.543   3.974  0.00  0.00    +0.006 A 
ATOM      4  C   UNL     1       0.703  -2.472   4.630  0.00  0.00    +0.004 A 
ATOM      5  C   UNL     1       1.471  -1.672   5.457  0.00  0.00    -0.050 A 
ATOM      6  C   UNL     1       2.815  -1.944   5.628  0.00  0.00    +0.007 A 
ATOM      7  C   UNL     1       3.391  -3.018   4.975  0.00  0.00    -0.045 A 
ATOM      8  C   UNL     1       4.856  -3.318   5.166  0.00  0.00    +0.044 C 
ATOM      9  C   UNL     1       0.842  -0.504   6.171  0.00  0.00    +0.044 C 
ENDBRANCH   1   2
BRANCH   1  11
ATOM     10  N   UNL     1       2.337  -4.756   1.143  0.00  0.00    -0.294 N 
ATOM     11  C   UNL     1       2.351  -5.431   2.309  0.00  0.00    +0.239 C 
ATOM     12  O   UNL     1       1.637  -6.400   2.458  0.00  0.00    -0.273 OA
ATOM     13  H   UNL     1       2.856  -3.942   1.048  0.00  0.00    +0.150 HD
BRANCH  10  14
ATOM     14  C   UNL     1       1.538  -5.251   0.019  0.00  0.00    +0.278 C 
BRANCH  14  15
ATOM     15  S   UNL     1      -0.078  -4.427   0.018  0.00  0.00    +0.013 S 
ATOM     16  O   UNL     1      -0.638  -4.444   1.323  0.00  0.00    -0.168 OA
ATOM     17  O   UNL     1      -0.842  -4.851  -1.104  0.00  0.00    -0.168 OA
BRANCH  15  22
ATOM     18  C   UNL     1       1.141   1.383  -1.057  0.00  0.00    +0.044 C 
ATOM     19  C   UNL     1       0.837  -0.068  -0.789  0.00  0.00    -0.050 A 
ATOM     20  C   UNL     1       0.600  -0.931  -1.843  0.00  0.00    +0.005 A 
ATOM     21  C   UNL     1       0.320  -2.262  -1.596  0.00  0.00    +0.027 A 
ATOM     22  C   UNL     1       0.279  -2.731  -0.296  0.00  0.00    +0.090 A 
ATOM     23  C   UNL     1       0.518  -1.868   0.757  0.00  0.00    +0.027 A 
ATOM     24  C   UNL     1       0.801  -0.538   0.511  0.00  0.00    +0.005 A 
ENDBRANCH  15  22
ENDBRANCH  14  15
ENDBRANCH  10  14
ENDBRANCH   1  11
BRANCH   1  25
ATOM     25  N   UNL     1       3.448  -6.086   4.373  0.00  0.00    -0.279 N 
ATOM     26  C   UNL     1       4.117  -7.191   3.989  0.00  0.00    +0.217 C 
ATOM     27  O   UNL     1       4.197  -8.142   4.738  0.00  0.00    -0.276 OA
BRANCH  25  28
ATOM     28  C   UNL     1       2.915  -5.988   5.734  0.00  0.00    +0.183 C 
BRANCH  28  29
ATOM     29  C   UNL     1       1.513  -6.540   5.765  0.00  0.00    +0.122 A 
ATOM     30  C   UNL     1       1.177  -7.819   6.013  0.00  0.00    +0.046 A 
ATOM     31  C   UNL     1      -0.233  -7.893   5.944  0.00  0.00    +0.045 A 
ATOM     32  C   UNL     1      -0.675  -6.655   5.657  0.00  0.00    +0.102 A 
ATOM     33  O   UNL     1       0.387  -5.838   5.556  0.00  0.00    -0.463 OA
ATOM     34  C   UNL     1      -2.116  -6.251   5.485  0.00  0.00    +0.086 C 
ENDBRANCH  28  29
ENDBRANCH  25  28
BRANCH  26  35
ATOM     35  C   UNL     1       4.764  -7.246   2.629  0.00  0.00    +0.099 C 
BRANCH  35  36
ATOM     36  C   UNL     1       5.308  -8.654   2.380  0.00  0.00    -0.008 C 
ATOM     37  C   UNL     1       4.145  -9.646   2.314  0.00  0.00    +0.008 C 
ATOM     38  C   UNL     1       6.074  -8.678   1.055  0.00  0.00    +0.008 C 
ENDBRANCH  35  36
ENDBRANCH  26  35
ENDBRANCH   1  25
TORSDOF 10
