REMARK  Name = ZINC04551350
REMARK  8 active torsions:
REMARK  status: ('A' for Active; 'I' for Inactive)
REMARK    1  A    between atoms: C_1  and  O_2
REMARK    2  A    between atoms: O_2  and  C_3
REMARK    3  A    between atoms: C_3  and  C_5
REMARK    4  A    between atoms: C_5  and  C_7
REMARK    5  A    between atoms: C_5  and  N_15
REMARK    6  A    between atoms: C_7  and  C_8
REMARK    7  A    between atoms: C_11  and  O_14
REMARK    8  A    between atoms: N_15  and  C_16
REMARK                            x       y       z     vdW  Elec       q    Type
REMARK                         _______ _______ _______ _____ _____    ______ ____
ROOT
ATOM      1  N   UNL     1       2.114  -2.449  -0.319  0.00  0.00    -0.330 N 
ATOM      2  H   UNL     1       1.728  -3.365  -0.145  0.00  0.00    +0.147 HD
ENDROOT
BRANCH   1   3
ATOM      3  C   UNL     1       1.137  -1.573  -0.742  0.00  0.00    +0.046 A 
ATOM      4  C   UNL     1       0.932  -0.341  -0.089  0.00  0.00    +0.020 A 
ATOM      5  C   UNL     1       1.720   0.033   1.013  0.00  0.00    +0.012 A 
ATOM      6  C   UNL     1       1.501   1.230   1.622  0.00  0.00    +0.001 A 
ATOM      7  C   UNL     1       0.503   2.092   1.168  0.00  0.00    +0.002 A 
ATOM      8  C   UNL     1      -0.278   1.765   0.105  0.00  0.00    +0.026 A 
ATOM      9  C   UNL     1      -0.084   0.534  -0.556  0.00  0.00    +0.049 A 
ATOM     10  C   UNL     1      -0.685  -0.952  -2.244  0.00  0.00    +0.049 A 
ATOM     11  C   UNL     1       0.310  -1.880  -1.840  0.00  0.00    +0.020 A 
ATOM     12  C   UNL     1       0.456  -3.091  -2.539  0.00  0.00    +0.012 A 
ATOM     13  C   UNL     1      -0.357  -3.361  -3.596  0.00  0.00    +0.001 A 
ATOM     14  C   UNL     1      -1.336  -2.452  -3.997  0.00  0.00    +0.002 A 
ATOM     15  C   UNL     1      -1.507  -1.271  -3.345  0.00  0.00    +0.026 A 
ATOM     16  N   UNL     1      -0.900   0.254  -1.624  0.00  0.00    -0.354 N 
ATOM     17  H   UNL     1      -1.627   0.907  -1.939  0.00  0.00    +0.166 HD
ENDBRANCH   1   3
BRANCH   1  18
ATOM     18  C   UNL     1       3.216  -2.517  -1.288  0.00  0.00    +0.184 C 
BRANCH  18  19
ATOM     19  C   UNL     1       4.112  -1.318  -1.115  0.00  0.00    +0.328 C 
ATOM     20  O   UNL     1       4.206  -0.785  -0.034  0.00  0.00    -0.249 OA
BRANCH  19  22
ATOM     21  C   UNL     1       5.648   0.317  -1.921  0.00  0.00    +0.280 C 
ATOM     22  O   UNL     1       4.805  -0.841  -2.161  0.00  0.00    -0.467 OA
ENDBRANCH  19  22
ENDBRANCH  18  19
BRANCH  18  23
ATOM     23  C   UNL     1       4.023  -3.795  -1.054  0.00  0.00    +0.068 C 
BRANCH  23  24
ATOM     24  C   UNL     1       3.160  -4.995  -1.346  0.00  0.00    -0.045 A 
ATOM     25  C   UNL     1       2.408  -5.567  -0.337  0.00  0.00    +0.007 A 
ATOM     26  C   UNL     1       1.612  -6.664  -0.604  0.00  0.00    +0.045 A 
ATOM     27  C   UNL     1       1.576  -7.198  -1.883  0.00  0.00    +0.117 A 
ATOM     28  C   UNL     1       2.336  -6.626  -2.893  0.00  0.00    +0.045 A 
ATOM     29  C   UNL     1       3.126  -5.526  -2.622  0.00  0.00    +0.007 A 
BRANCH  27  30
ATOM     30  O   UNL     1       0.798  -8.281  -2.147  0.00  0.00    -0.507 OA
ATOM     31  H   UNL     1       1.246  -9.128  -2.019  0.00  0.00    +0.292 HD
ENDBRANCH  27  30
ENDBRANCH  23  24
ENDBRANCH  18  23
ENDBRANCH   1  18
TORSDOF 7
