REMARK  Name = ZINC61700394
REMARK  5 active torsions:
REMARK  status: ('A' for Active; 'I' for Inactive)
REMARK    1  A    between atoms: C_1  and  C_2
REMARK    2  A    between atoms: C_2  and  C_4
REMARK    3  A    between atoms: C_2  and  N_22
REMARK    4  A    between atoms: C_7  and  S_11
REMARK    5  A    between atoms: S_11  and  C_12
REMARK                            x       y       z     vdW  Elec       q    Type
REMARK                         _______ _______ _______ _____ _____    ______ ____
ROOT
ATOM      1  C   UNL     1       0.084  -0.812   1.570  0.00  0.00    -0.061 A 
ATOM      2  C   UNL     1       1.450  -0.726   1.374  0.00  0.00    +0.003 A 
ATOM      3  C   UNL     1       2.319  -1.089   2.384  0.00  0.00    +0.017 A 
ATOM      4  C   UNL     1       1.819  -1.540   3.599  0.00  0.00    +0.033 A 
ATOM      5  C   UNL     1       0.445  -1.625   3.794  0.00  0.00    +0.055 A 
ATOM      6  C   UNL     1      -0.418  -1.255   2.780  0.00  0.00    +0.023 A 
ATOM      7 CL   UNL     1      -0.185  -2.188   5.310  0.00  0.00    -0.082 Cl
ENDROOT
BRANCH   1   9
ATOM      8  C   UNL     1      -0.992   1.109   0.429  0.00  0.00    -0.009 C 
ATOM      9  C   UNL     1      -0.860  -0.415   0.464  0.00  0.00    -0.047 C 
BRANCH   9  10
ATOM     10  N   UNL     1      -0.335  -0.891  -0.823  0.00  0.00    +0.382 N 
ATOM     11  H   UNL     1       0.571  -0.479  -0.989  0.00  0.00    -0.089 HD
ATOM     12  H   UNL     1      -0.248  -1.896  -0.799  0.00  0.00    -0.089 HD
ATOM     13  H   UNL     1      -0.967  -0.625  -1.563  0.00  0.00    -0.089 HD
ENDBRANCH   9  10
ENDBRANCH   1   9
BRANCH   4  14
ATOM     14  S   UNL     1       2.924  -2.005   4.891  0.00  0.00    -0.066 S 
BRANCH  14  15
ATOM     15  C   UNL     1       2.873  -0.642   6.007  0.00  0.00    +0.130 A 
ATOM     16  C   UNL     1       3.552  -0.691   7.226  0.00  0.00    +0.118 A 
ATOM     17  C   UNL     1       3.481   0.420   8.081  0.00  0.00    +0.182 A 
ATOM     18  N   UNL     1       4.211   0.120   9.172  0.00  0.00    -0.216 NA
ATOM     19  H   UNL     1       4.584  -2.498   7.539  0.00  0.00    +0.167 HD
ATOM     20  C   UNL     1       4.717  -1.075   9.050  0.00  0.00    +0.199 A 
ATOM     21  N   UNL     1       4.342  -1.619   7.870  0.00  0.00    -0.341 N 
ATOM     22  N   UNL     1       2.765   1.482   7.695  0.00  0.00    -0.214 NA
ATOM     23  C   UNL     1       2.142   1.483   6.537  0.00  0.00    +0.224 A 
ATOM     24  N   UNL     1       2.190   0.460   5.704  0.00  0.00    -0.227 NA
ENDBRANCH  14  15
ENDBRANCH   4  14
TORSDOF 4
