REMARK  Name = ZINC16136551
REMARK  4 active torsions:
REMARK  status: ('A' for Active; 'I' for Inactive)
REMARK    1  A    between atoms: C_1  and  C_2
REMARK    2  A    between atoms: C_2  and  C_5
REMARK    3  A    between atoms: N_3  and  N_4
REMARK    4  A    between atoms: N_13  and  C_16
REMARK                            x       y       z     vdW  Elec       q    Type
REMARK                         _______ _______ _______ _____ _____    ______ ____
ROOT
ATOM      1  C   UNL     1       0.025  -0.637  -1.328  0.00  0.00    +0.109 A 
ATOM      2  C   UNL     1      -0.003  -2.051  -1.445  0.00  0.00    +0.202 A 
ATOM      3  C   UNL     1       0.021  -2.631  -2.800  0.00  0.00    +0.046 A 
ATOM      4  C   UNL     1      -0.005  -4.013  -2.993  0.00  0.00    +0.014 A 
ATOM      5  C   UNL     1       0.018  -4.521  -4.262  0.00  0.00    +0.001 A 
ATOM      6  C   UNL     1       0.066  -3.673  -5.359  0.00  0.00    +0.002 A 
ATOM      7  C   UNL     1       0.092  -2.305  -5.190  0.00  0.00    +0.026 A 
ATOM      8  C   UNL     1       0.069  -1.767  -3.906  0.00  0.00    +0.055 A 
ATOM      9  N   UNL     1       0.094  -0.401  -3.714  0.00  0.00    -0.310 N 
ATOM     10  C   UNL     1       0.067   0.145  -2.473  0.00  0.00    +0.264 A 
ATOM     11  O   UNL     1       0.087   1.489  -2.348  0.00  0.00    -0.267 OA
ATOM     12  C   UNL     1       0.145   0.482  -4.881  0.00  0.00    +0.152 C 
ATOM     13  O   UNL     1      -0.045  -2.764  -0.456  0.00  0.00    -0.286 OA
ENDROOT
BRANCH   1  15
ATOM     14  C   UNL     1       1.293   0.396   0.668  0.00  0.00    +0.068 C 
ATOM     15  C   UNL     1       0.002  -0.004   0.002  0.00  0.00    +0.072 C 
ATOM     16  N   UNL     1      -1.130   0.210   0.600  0.00  0.00    -0.194 NA
BRANCH  16  17
ATOM     17  N   UNL     1      -1.151   0.812   1.865  0.00  0.00    -0.282 N 
ATOM     18  H   UNL     1      -1.997   0.972   2.312  0.00  0.00    +0.164 HD
ATOM     19  H   UNL     1      -0.320   1.069   2.293  0.00  0.00    +0.164 HD
ENDBRANCH  16  17
ENDBRANCH   1  15
TORSDOF 2
