REMARK  Name = ZINC02543217
REMARK  11 active torsions:
REMARK  status: ('A' for Active; 'I' for Inactive)
REMARK    1  A    between atoms: C_1  and  C_2
REMARK    2  A    between atoms: C_2  and  O_3
REMARK    3  A    between atoms: O_3  and  C_4
REMARK    4  A    between atoms: C_7  and  C_10
REMARK    5  A    between atoms: C_10  and  O_12
REMARK    6  A    between atoms: O_12  and  C_13
REMARK    7  A    between atoms: C_16  and  C_21
REMARK    8  A    between atoms: C_18  and  O_19
REMARK    9  A    between atoms: O_19  and  C_20
REMARK   10  A    between atoms: N_22  and  N_23
REMARK   11  A    between atoms: C_24  and  C_26
REMARK                            x       y       z     vdW  Elec       q    Type
REMARK                         _______ _______ _______ _____ _____    ______ ____
ROOT
ATOM      1  C   UNL     1       1.172   2.091   0.001  0.00  0.00    +0.173 A 
ATOM      2  C   UNL     1       2.380   1.409   0.013  0.00  0.00    +0.051 A 
ATOM      3  C   UNL     1       2.398   0.031   0.004  0.00  0.00    +0.013 A 
ATOM      4  C   UNL     1       1.197  -0.683  -0.018  0.00  0.00    -0.002 A 
ATOM      5  C   UNL     1      -0.020   0.004  -0.030  0.00  0.00    +0.059 A 
ATOM      6  C   UNL     1      -0.030   1.386  -0.021  0.00  0.00    +0.163 A 
ENDROOT
BRANCH   6   7
ATOM      7  O   UNL     1      -1.212   2.058  -0.038  0.00  0.00    -0.491 OA
ATOM      8  C   UNL     1      -2.405   1.271  -0.066  0.00  0.00    +0.277 C 
ENDBRANCH   6   7
BRANCH   4   9
ATOM      9  C   UNL     1       1.214  -2.157  -0.028  0.00  0.00    +0.138 C 
ATOM     10  N   UNL     1       2.345  -2.793  -0.016  0.00  0.00    -0.187 NA
BRANCH  10  11
ATOM     11  N   UNL     1       2.361  -4.194  -0.026  0.00  0.00    -0.203 N 
ATOM     12  C   UNL     1       3.535  -4.855  -0.014  0.00  0.00    +0.263 C 
ATOM     13  O   UNL     1       4.582  -4.235   0.005  0.00  0.00    -0.268 OA
ATOM     14  H   UNL     1       1.526  -4.689  -0.041  0.00  0.00    +0.178 HD
BRANCH  12  15
ATOM     15  C   UNL     1       3.552  -6.333  -0.024  0.00  0.00    +0.039 A 
ATOM     16  C   UNL     1       2.353  -7.047  -0.040  0.00  0.00    +0.013 A 
ATOM     17  C   UNL     1       2.375  -8.427  -0.056  0.00  0.00    +0.002 A 
ATOM     18  C   UNL     1       3.583  -9.102  -0.043  0.00  0.00    +0.015 A 
ATOM     19  C   UNL     1       4.775  -8.400  -0.022  0.00  0.00    +0.019 A 
ATOM     20  C   UNL     1       4.767  -7.020  -0.012  0.00  0.00    +0.028 A 
ATOM     21 BR   UNL     1       6.420  -9.334  -0.004  0.00  0.00    -0.050 Br
ENDBRANCH  12  15
ENDBRANCH  10  11
ENDBRANCH   4   9
BRANCH   1  22
ATOM     22  O   UNL     1       1.160   3.450   0.009  0.00  0.00    -0.419 OA
BRANCH  22  23
ATOM     23  C   UNL     1       0.954   4.053   1.196  0.00  0.00    +0.345 C 
ATOM     24  O   UNL     1       0.887   3.388   2.212  0.00  0.00    -0.245 OA
BRANCH  23  28
ATOM     25  C   UNL     1       0.538   8.274   1.391  0.00  0.00    +0.121 A 
ATOM     26  C   UNL     1       0.461   7.515   2.554  0.00  0.00    +0.046 A 
ATOM     27  C   UNL     1       0.595   6.146   2.495  0.00  0.00    +0.018 A 
ATOM     28  C   UNL     1       0.809   5.519   1.264  0.00  0.00    +0.060 A 
ATOM     29  C   UNL     1       0.891   6.286   0.098  0.00  0.00    +0.018 A 
ATOM     30  C   UNL     1       0.750   7.654   0.165  0.00  0.00    +0.046 A 
BRANCH  25  31
ATOM     31  O   UNL     1       0.406   9.623   1.454  0.00  0.00    -0.492 OA
BRANCH  31  33
ATOM     32  C   UNL     1       0.323  11.837   0.490  0.00  0.00    +0.048 C 
ATOM     33  C   UNL     1       0.495  10.341   0.222  0.00  0.00    +0.225 C 
ENDBRANCH  31  33
ENDBRANCH  25  31
ENDBRANCH  23  28
ENDBRANCH  22  23
ENDBRANCH   1  22
TORSDOF 9
