REMARK  Name = ZINC64024233
REMARK  4 active torsions:
REMARK  status: ('A' for Active; 'I' for Inactive)
REMARK    1  A    between atoms: C_5  and  C_7
REMARK    2  A    between atoms: C_10  and  C_33
REMARK    3  A    between atoms: C_12  and  C_13
REMARK    4  A    between atoms: C_20  and  C_22
REMARK                            x       y       z     vdW  Elec       q    Type
REMARK                         _______ _______ _______ _____ _____    ______ ____
ROOT
ATOM      1  C   UNL     1       1.246  -2.165  -0.023  0.00  0.00    +0.025 A 
ATOM      2  C   UNL     1       0.746  -2.884  -1.113  0.00  0.00    +0.123 A 
ATOM      3  N   UNL     1       0.787  -4.203  -1.084  0.00  0.00    -0.235 NA
ATOM      4  C   UNL     1       1.293  -4.846  -0.039  0.00  0.00    +0.161 A 
ATOM      5  N   UNL     1       1.777  -4.199   1.013  0.00  0.00    -0.231 NA
ATOM      6  C   UNL     1       1.777  -2.879   1.056  0.00  0.00    +0.057 A 
ENDROOT
BRANCH   6   7
ATOM      7  C   UNL     1       2.335  -2.153   2.253  0.00  0.00    +0.056 C 
ATOM      8  C   UNL     1       1.559  -2.563   3.506  0.00  0.00    +0.013 C 
ATOM      9  C   UNL     1       2.103  -1.802   4.717  0.00  0.00    +0.020 C 
ATOM     10  C   UNL     1       3.578  -2.163   4.921  0.00  0.00    +0.108 C 
ATOM     11  N   UNL     1       4.305  -1.907   3.671  0.00  0.00    -0.299 N 
ATOM     12  C   UNL     1       3.812  -2.518   2.429  0.00  0.00    +0.117 C 
ATOM     13  C   UNL     1       5.404  -1.127   3.663  0.00  0.00    +0.242 C 
ATOM     14  O   UNL     1       5.995  -0.923   2.624  0.00  0.00    -0.273 OA
BRANCH  13  15
ATOM     15  C   UNL     1       5.897  -0.507   4.944  0.00  0.00    +0.190 C 
ATOM     16  C   UNL     1       6.293  -1.586   5.927  0.00  0.00    +0.016 C 
ATOM     17  C   UNL     1       7.608  -1.399   6.180  0.00  0.00    -0.001 A 
ATOM     18  C   UNL     1       8.566  -2.107   7.038  0.00  0.00    +0.048 A 
ATOM     19  C   UNL     1       9.849  -1.676   7.085  0.00  0.00    +0.124 A 
ATOM     20  C   UNL     1      10.283  -0.571   6.336  0.00  0.00    +0.040 A 
ATOM     21  C   UNL     1       9.461   0.129   5.526  0.00  0.00    +0.029 A 
ATOM     22  C   UNL     1       8.092  -0.237   5.400  0.00  0.00    +0.043 A 
ATOM     23  N   UNL     1       7.113   0.275   4.693  0.00  0.00    -0.370 N 
ATOM     24  F   UNL     1      10.733  -2.325   7.874  0.00  0.00    -0.205 F 
ATOM     25  H   UNL     1       7.181   1.042   4.102  0.00  0.00    +0.161 HD
ENDBRANCH  13  15
ENDBRANCH   6   7
BRANCH   1  30
ATOM     26  C   UNL     1      -0.017   1.376   0.010  0.00  0.00    +0.001 A 
ATOM     27  C   UNL     1       1.170   2.087   0.002  0.00  0.00    +0.003 A 
ATOM     28  C   UNL     1       2.382   1.422  -0.013  0.00  0.00    +0.039 A 
ATOM     29  C   UNL     1       2.414   0.040  -0.021  0.00  0.00    +0.131 A 
ATOM     30  C   UNL     1       1.220  -0.682  -0.014  0.00  0.00    +0.020 A 
ATOM     31  C   UNL     1       0.002  -0.004   0.002  0.00  0.00    +0.011 A 
ATOM     32  F   UNL     1       3.598  -0.610  -0.037  0.00  0.00    -0.205 F 
ENDBRANCH   1  30
BRANCH   4  33
ATOM     33  C   UNL     1       1.319  -6.328  -0.048  0.00  0.00    +0.037 A 
ATOM     34  C   UNL     1       0.823  -7.040  -1.144  0.00  0.00    +0.014 A 
ATOM     35  C   UNL     1       0.871  -8.423  -1.104  0.00  0.00    +0.020 A 
ATOM     36  C   UNL     1       1.403  -9.050   0.009  0.00  0.00    +0.111 A 
ATOM     37  N   UNL     1       1.864  -8.351   1.028  0.00  0.00    -0.263 NA
ATOM     38  C   UNL     1       1.845  -7.033   1.033  0.00  0.00    +0.122 A 
ENDBRANCH   4  33
TORSDOF 4
