REMARK  Name = ZINC00759631
REMARK  7 active torsions:
REMARK  status: ('A' for Active; 'I' for Inactive)
REMARK    1  A    between atoms: C_1  and  C_2
REMARK    2  A    between atoms: C_6  and  C_7
REMARK    3  A    between atoms: C_9  and  C_23
REMARK    4  A    between atoms: C_15  and  C_19
REMARK    5  A    between atoms: C_25  and  O_30
REMARK    6  A    between atoms: C_28  and  O_29
REMARK    7  A    between atoms: O_30  and  C_31
REMARK                            x       y       z     vdW  Elec       q    Type
REMARK                         _______ _______ _______ _____ _____    ______ ____
ROOT
ATOM      1  C   UNL     1       0.123  -4.219  -0.023  0.00  0.00    +0.061 C 
ATOM      2  C   UNL     1      -1.188  -4.913   0.090  0.00  0.00    +0.075 C 
ATOM      3  C   UNL     1      -1.112  -6.158   0.927  0.00  0.00    +0.091 C 
ATOM      4  S   UNL     1      -0.272  -7.513   0.116  0.00  0.00    -0.115 S 
ATOM      5  C   UNL     1       1.436  -7.141   0.068  0.00  0.00    +0.034 A 
ATOM      6  C   UNL     1       2.319  -8.223   0.164  0.00  0.00    +0.017 A 
ATOM      7  C   UNL     1       3.683  -8.046   0.127  0.00  0.00    +0.013 A 
ATOM      8  C   UNL     1       4.203  -6.771  -0.013  0.00  0.00    +0.057 A 
ATOM      9  C   UNL     1       3.357  -5.695  -0.105  0.00  0.00    +0.041 A 
ATOM     10  C   UNL     1       1.953  -5.850  -0.060  0.00  0.00    +0.078 A 
ATOM     11  N   UNL     1       1.262  -4.712  -0.130  0.00  0.00    -0.250 NA
ENDROOT
BRANCH   1  17
ATOM     12  C   UNL     1      -0.103   1.500  -0.069  0.00  0.00    +0.086 C 
ATOM     13  C   UNL     1      -0.043  -0.005  -0.041  0.00  0.00    +0.110 A 
ATOM     14  C   UNL     1      -0.007  -0.639   1.149  0.00  0.00    +0.093 A 
ATOM     15  C   UNL     1       0.049  -2.045   1.196  0.00  0.00    +0.198 A 
ATOM     16  O   UNL     1       0.085  -2.696   2.380  0.00  0.00    -0.287 OA
ATOM     17  C   UNL     1       0.066  -2.756  -0.014  0.00  0.00    +0.127 A 
ATOM     18  C   UNL     1       0.026  -2.024  -1.228  0.00  0.00    +0.350 A 
ATOM     19  O   UNL     1       0.039  -2.610  -2.295  0.00  0.00    -0.244 OA
ATOM     20  O   UNL     1      -0.032  -0.681  -1.198  0.00  0.00    -0.427 OA
ENDBRANCH   1  17
BRANCH   3  21
ATOM     21  C   UNL     1      -2.512  -6.597   1.268  0.00  0.00    +0.011 A 
ATOM     22  C   UNL     1      -3.146  -7.550   0.493  0.00  0.00    +0.054 A 
ATOM     23  C   UNL     1      -4.434  -7.954   0.807  0.00  0.00    +0.121 A 
ATOM     24  C   UNL     1      -5.088  -7.402   1.899  0.00  0.00    +0.049 A 
ATOM     25  C   UNL     1      -4.455  -6.450   2.674  0.00  0.00    +0.049 A 
ATOM     26  C   UNL     1      -3.163  -6.049   2.363  0.00  0.00    +0.121 A 
BRANCH  26  27
ATOM     27  O   UNL     1      -2.538  -5.116   3.129  0.00  0.00    -0.506 OA
ATOM     28  H   UNL     1      -2.683  -4.206   2.836  0.00  0.00    +0.292 HD
ENDBRANCH  26  27
BRANCH  23  29
ATOM     29  O   UNL     1      -5.058  -8.891   0.044  0.00  0.00    -0.495 OA
ATOM     30  C   UNL     1      -6.385  -9.260   0.426  0.00  0.00    +0.277 C 
ENDBRANCH  23  29
ENDBRANCH   3  21
BRANCH   8  31
ATOM     31  C   UNL     1       5.695  -6.565  -0.063  0.00  0.00    +0.417 C 
ATOM     32  F   UNL     1       6.340  -7.801   0.050  0.00  0.00    -0.166 F 
ATOM     33  F   UNL     1       6.043  -5.967  -1.278  0.00  0.00    -0.166 F 
ATOM     34  F   UNL     1       6.087  -5.736   0.994  0.00  0.00    -0.166 F 
ENDBRANCH   8  31
TORSDOF 5
