REMARK  Name = ZINC36501667
REMARK  16 active torsions:
REMARK  status: ('A' for Active; 'I' for Inactive)
REMARK    1  A    between atoms: C_1  and  C_2
REMARK    2  A    between atoms: C_2  and  C_4
REMARK    3  A    between atoms: C_2  and  C_32
REMARK    4  A    between atoms: C_4  and  C_5
REMARK    5  A    between atoms: N_7  and  C_8
REMARK    6  A    between atoms: N_7  and  C_14
REMARK    7  A    between atoms: C_8  and  C_9
REMARK    8  A    between atoms: C_14  and  C_16
REMARK    9  A    between atoms: C_14  and  C_25
REMARK   10  A    between atoms: C_17  and  O_24
REMARK   11  A    between atoms: C_19  and  O_23
REMARK   12  A    between atoms: C_21  and  O_22
REMARK   13  A    between atoms: N_27  and  C_28
REMARK   14  A    between atoms: C_28  and  C_29
REMARK   15  A    between atoms: C_28  and  C_30
REMARK   16  A    between atoms: C_28  and  C_31
REMARK                            x       y       z     vdW  Elec       q    Type
REMARK                         _______ _______ _______ _____ _____    ______ ____
ROOT
ATOM      1  C   UNL     1      -3.862  -0.209  -2.332  0.00  0.00    +0.200 C 
ENDROOT
BRANCH   1   2
ATOM      2  C   UNL     1      -3.430  -0.967  -3.561  0.00  0.00    +0.065 A 
ATOM      3  C   UNL     1      -3.099  -2.310  -3.466  0.00  0.00    +0.129 A 
ATOM      4  C   UNL     1      -2.702  -3.007  -4.598  0.00  0.00    +0.091 A 
ATOM      5  C   UNL     1      -2.638  -2.361  -5.823  0.00  0.00    +0.124 A 
ATOM      6  C   UNL     1      -2.970  -1.019  -5.918  0.00  0.00    +0.091 A 
ATOM      7  C   UNL     1      -3.371  -0.322  -4.787  0.00  0.00    +0.129 A 
BRANCH   7   8
ATOM      8  O   UNL     1      -3.701   0.992  -4.881  0.00  0.00    -0.506 OA
ATOM      9  H   UNL     1      -2.957   1.595  -4.750  0.00  0.00    +0.292 HD
ENDBRANCH   7   8
BRANCH   5  10
ATOM     10  O   UNL     1      -2.248  -3.045  -6.931  0.00  0.00    -0.507 OA
ATOM     11  H   UNL     1      -2.976  -3.462  -7.412  0.00  0.00    +0.292 HD
ENDBRANCH   5  10
BRANCH   3  12
ATOM     12  O   UNL     1      -3.162  -2.943  -2.266  0.00  0.00    -0.506 OA
ATOM     13  H   UNL     1      -3.993  -3.412  -2.111  0.00  0.00    +0.292 HD
ENDBRANCH   3  12
ENDBRANCH   1   2
BRANCH   1  14
ATOM     14  C   UNL     1      -5.258  -0.627  -1.948  0.00  0.00    +0.239 C 
ATOM     15  O   UNL     1      -5.520  -0.874  -0.790  0.00  0.00    -0.273 OA
ATOM     16  N   UNL     1      -6.215  -0.726  -2.892  0.00  0.00    -0.309 N 
ATOM     17  H   UNL     1      -5.987  -0.611  -3.827  0.00  0.00    +0.149 HD
BRANCH  16  18
ATOM     18  C   UNL     1      -7.599  -1.008  -2.504  0.00  0.00    +0.026 C 
ATOM     19  C   UNL     1      -8.122   0.125  -1.619  0.00  0.00    +0.031 C 
ATOM     20  C   UNL     1      -8.468  -1.117  -3.759  0.00  0.00    +0.031 C 
ATOM     21  C   UNL     1      -7.653  -2.327  -1.730  0.00  0.00    +0.031 C 
ENDBRANCH  16  18
ENDBRANCH   1  14
BRANCH   1  24
ATOM     22  C   UNL     1      -1.713   0.046  -1.211  0.00  0.00    +0.217 C 
ATOM     23  O   UNL     1      -1.366   0.785  -2.108  0.00  0.00    -0.276 OA
ATOM     24  N   UNL     1      -2.943  -0.504  -1.229  0.00  0.00    -0.278 N 
BRANCH  22  25
ATOM     25  C   UNL     1      -0.768  -0.258  -0.077  0.00  0.00    +0.104 C 
BRANCH  25  27
ATOM     26  C   UNL     1       0.302   1.995  -0.226  0.00  0.00    +0.013 C 
ATOM     27  C   UNL     1       0.550   0.487  -0.298  0.00  0.00    +0.025 C 
BRANCH  27  28
ATOM     28  C   UNL     1       1.537   0.089   0.769  0.00  0.00    -0.044 A 
ATOM     29  C   UNL     1       1.242   0.311   2.101  0.00  0.00    +0.004 A 
ATOM     30  C   UNL     1       2.147  -0.055   3.079  0.00  0.00    +0.000 A 
ATOM     31  C   UNL     1       3.348  -0.643   2.726  0.00  0.00    +0.000 A 
ATOM     32  C   UNL     1       3.642  -0.865   1.394  0.00  0.00    +0.000 A 
ATOM     33  C   UNL     1       2.735  -0.504   0.415  0.00  0.00    +0.004 A 
ENDBRANCH  27  28
ENDBRANCH  25  27
ENDBRANCH  22  25
BRANCH  24  34
ATOM     34  C   UNL     1      -3.362  -1.397  -0.146  0.00  0.00    +0.183 C 
BRANCH  34  35
ATOM     35  C   UNL     1      -3.765  -0.577   1.053  0.00  0.00    +0.122 A 
ATOM     36  C   UNL     1      -5.027  -0.291   1.422  0.00  0.00    +0.046 A 
ATOM     37  C   UNL     1      -4.942   0.496   2.594  0.00  0.00    +0.041 A 
ATOM     38  C   UNL     1      -3.634   0.643   2.871  0.00  0.00    +0.195 A 
ATOM     39  O   UNL     1      -2.926  -0.014   1.938  0.00  0.00    -0.466 OA
ENDBRANCH  34  35
ENDBRANCH  24  34
ENDBRANCH   1  24
TORSDOF 12
