REMARK  Name = ZINC39452268
REMARK  6 active torsions:
REMARK  status: ('A' for Active; 'I' for Inactive)
REMARK    1  A    between atoms: C_1  and  C_2
REMARK    2  A    between atoms: C_2  and  C_3
REMARK    3  A    between atoms: C_2  and  S_4
REMARK    4  A    between atoms: S_4  and  C_7
REMARK    5  A    between atoms: C_17  and  C_20
REMARK    6  A    between atoms: C_20  and  C_21
REMARK                            x       y       z     vdW  Elec       q    Type
REMARK                         _______ _______ _______ _____ _____    ______ ____
ROOT
ATOM      1  C   UNL     1      -0.108   0.075   2.833  0.00  0.00    +0.222 C 
ATOM      2  C   UNL     1       0.496  -0.357   4.175  0.00  0.00    +0.127 C 
ATOM      3  C   UNL     1       0.310  -1.841   4.352  0.00  0.00    +0.187 C 
ATOM      4  O   UNL     1       1.118  -2.475   5.000  0.00  0.00    -0.290 OA
ATOM      5  C   UNL     1      -0.796  -2.503   3.770  0.00  0.00    +0.144 A 
ATOM      6  C   UNL     1      -1.684  -1.794   2.983  0.00  0.00    +0.085 A 
ATOM      7  C   UNL     1      -2.837  -2.481   2.385  0.00  0.00    +0.099 A 
ATOM      8  C   UNL     1      -2.992  -3.862   2.631  0.00  0.00    +0.069 A 
ATOM      9  C   UNL     1      -4.079  -4.537   2.072  0.00  0.00    +0.021 A 
ATOM     10  C   UNL     1      -4.964  -3.810   1.295  0.00  0.00    -0.024 A 
ATOM     11  C   UNL     1      -4.748  -2.453   1.097  0.00  0.00    +0.115 A 
ATOM     12  N   UNL     1      -3.717  -1.835   1.631  0.00  0.00    -0.253 NA
ATOM     13  C   UNL     1      -2.001  -4.550   3.470  0.00  0.00    +0.289 A 
ATOM     14  O   UNL     1      -2.114  -5.741   3.693  0.00  0.00    -0.265 OA
ATOM     15  N   UNL     1      -0.969  -3.863   3.993  0.00  0.00    -0.136 N 
ATOM     16  F   UNL     1      -0.104  -4.493   4.731  0.00  0.00    -0.090 F 
ATOM     17  N   UNL     1      -1.482  -0.445   2.758  0.00  0.00    -0.319 N 
ATOM     18  H   UNL     1      -2.226   0.143   2.556  0.00  0.00    +0.148 HD
ENDROOT
BRANCH   1  19
ATOM     19  S   UNL     1       0.879  -0.605   1.472  0.00  0.00    -0.010 S 
ATOM     20  O   UNL     1       0.779  -2.022   1.507  0.00  0.00    -0.172 OA
ATOM     21  O   UNL     1       2.166  -0.003   1.505  0.00  0.00    -0.172 OA
BRANCH  19  23
ATOM     22  C   UNL     1      -0.019   1.526   0.010  0.00  0.00    +0.031 C 
ATOM     23  C   UNL     1       0.002  -0.004   0.002  0.00  0.00    +0.126 C 
ATOM     24  C   UNL     1       0.718  -0.497  -1.257  0.00  0.00    +0.031 C 
ENDBRANCH  19  23
ENDBRANCH   1  19
BRANCH  10  25
ATOM     25  C   UNL     1      -6.154  -4.488   0.667  0.00  0.00    +0.071 C 
BRANCH  25  26
ATOM     26  C   UNL     1      -7.326  -4.422   1.613  0.00  0.00    -0.043 A 
ATOM     27  C   UNL     1      -7.525  -5.430   2.538  0.00  0.00    +0.004 A 
ATOM     28  C   UNL     1      -8.599  -5.370   3.406  0.00  0.00    +0.000 A 
ATOM     29  C   UNL     1      -9.475  -4.301   3.348  0.00  0.00    +0.000 A 
ATOM     30  C   UNL     1      -9.276  -3.293   2.424  0.00  0.00    +0.000 A 
ATOM     31  C   UNL     1      -8.199  -3.351   1.559  0.00  0.00    +0.004 A 
ENDBRANCH  25  26
ENDBRANCH  10  25
TORSDOF 4
