REMARK  Name = ZINC26278909
REMARK  6 active torsions:
REMARK  status: ('A' for Active; 'I' for Inactive)
REMARK    1  A    between atoms: C_1  and  C_2
REMARK    2  A    between atoms: C_4  and  C_32
REMARK    3  A    between atoms: C_6  and  C_29
REMARK    4  A    between atoms: C_10  and  C_11
REMARK    5  A    between atoms: N_16  and  C_19
REMARK    6  A    between atoms: C_19  and  C_20
REMARK                            x       y       z     vdW  Elec       q    Type
REMARK                         _______ _______ _______ _____ _____    ______ ____
ROOT
ATOM      1  C   UNL     1      -1.885   0.567   2.013  0.00  0.00    +0.254 C 
ATOM      2  O   UNL     1      -1.090  -0.328   1.798  0.00  0.00    -0.269 OA
ATOM      3  N   UNL     1      -2.687   1.009   1.024  0.00  0.00    -0.295 N 
ATOM      4  C   UNL     1      -2.537   0.506  -0.350  0.00  0.00    +0.123 C 
ATOM      5  C   UNL     1      -3.908   0.043  -0.856  0.00  0.00    +0.103 C 
ATOM      6  N   UNL     1      -4.878   1.134  -0.696  0.00  0.00    -0.295 NA
ATOM      7  C   UNL     1      -5.062   1.481   0.719  0.00  0.00    +0.103 C 
ATOM      8  C   UNL     1      -3.738   2.003   1.289  0.00  0.00    +0.123 C 
ENDROOT
BRANCH   1  18
ATOM      9  C   UNL     1      -1.599  -0.925   4.639  0.00  0.00    +0.046 C 
ATOM     10  C   UNL     1      -1.853   0.559   4.562  0.00  0.00    -0.020 A 
ATOM     11  C   UNL     1      -1.965   1.316   5.739  0.00  0.00    +0.032 A 
ATOM     12  C   UNL     1      -1.873   0.896   7.090  0.00  0.00    +0.050 A 
ATOM     13  N   UNL     1      -2.015   1.781   8.051  0.00  0.00    -0.236 NA
ATOM     14  C   UNL     1      -2.244   3.060   7.809  0.00  0.00    +0.134 A 
ATOM     15  N   UNL     1      -2.341   3.519   6.576  0.00  0.00    -0.225 NA
ATOM     16  C   UNL     1      -2.212   2.702   5.553  0.00  0.00    +0.113 A 
ATOM     17  S   UNL     1      -2.266   2.873   3.788  0.00  0.00    -0.064 S 
ATOM     18  C   UNL     1      -1.972   1.167   3.352  0.00  0.00    +0.080 A 
ATOM     19  C   UNL     1      -1.615  -0.552   7.420  0.00  0.00    +0.066 C 
BRANCH  14  20
ATOM     20  C   UNL     1      -2.395   4.015   8.965  0.00  0.00    +0.057 C 
ATOM     21  C   UNL     1      -2.857   5.439   8.649  0.00  0.00    +0.012 C 
ATOM     22  C   UNL     1      -1.405   5.178   9.055  0.00  0.00    +0.012 C 
ENDBRANCH  14  20
ENDBRANCH   1  18
BRANCH   6  23
ATOM     23  C   UNL     1      -6.161   0.793  -1.325  0.00  0.00    +0.119 C 
BRANCH  23  24
ATOM     24  C   UNL     1      -7.044   2.014  -1.360  0.00  0.00    -0.033 A 
ATOM     25  C   UNL     1      -7.902   2.280  -0.308  0.00  0.00    +0.008 A 
ATOM     26  C   UNL     1      -8.711   3.396  -0.334  0.00  0.00    +0.046 A 
ATOM     27  C   UNL     1      -8.680   4.260  -1.426  0.00  0.00    +0.124 A 
ATOM     28  C   UNL     1      -7.814   3.983  -2.476  0.00  0.00    -0.002 A 
ATOM     29  C   UNL     1      -7.004   2.869  -2.446  0.00  0.00    +0.012 A 
ATOM     30  C   UNL     1      -7.986   5.090  -3.498  0.00  0.00    +0.080 C 
ATOM     31  C   UNL     1      -8.734   6.168  -2.679  0.00  0.00    +0.234 C 
ATOM     32  O   UNL     1      -9.395   5.394  -1.663  0.00  0.00    -0.491 OA
ENDBRANCH  23  24
ENDBRANCH   6  23
TORSDOF 4
