REMARK  Name = ZINC09666364
REMARK  7 active torsions:
REMARK  status: ('A' for Active; 'I' for Inactive)
REMARK    1  A    between atoms: N_9  and  S_10
REMARK    2  A    between atoms: S_10  and  C_13
REMARK    3  A    between atoms: C_17  and  C_19
REMARK    4  A    between atoms: N_21  and  C_22
REMARK    5  A    between atoms: C_22  and  C_23
REMARK    6  A    between atoms: C_23  and  C_25
REMARK    7  A    between atoms: C_23  and  N_60
REMARK                            x       y       z     vdW  Elec       q    Type
REMARK                         _______ _______ _______ _____ _____    ______ ____
ROOT
ATOM      1  C   UNL     1       0.939   3.219   0.003  0.00  0.00    +0.109 A 
ATOM      2  C   UNL     1       1.948   2.415  -0.495  0.00  0.00    +0.029 A 
ATOM      3  C   UNL     1       1.705   1.082  -0.775  0.00  0.00    +0.003 A 
ATOM      4  C   UNL     1       0.452   0.546  -0.559  0.00  0.00    +0.013 A 
ATOM      5  C   UNL     1      -0.572   1.353  -0.062  0.00  0.00    +0.039 A 
ATOM      6  C   UNL     1      -0.319   2.696   0.224  0.00  0.00    +0.041 A 
ENDROOT
BRANCH   5   7
ATOM      7  C   UNL     1      -1.919   0.787   0.166  0.00  0.00    +0.244 C 
ATOM      8  O   UNL     1      -2.809   1.493   0.599  0.00  0.00    -0.270 OA
ATOM      9  N   UNL     1      -2.160  -0.510  -0.107  0.00  0.00    -0.313 N 
ATOM     10  H   UNL     1      -1.450  -1.073  -0.453  0.00  0.00    +0.149 HD
BRANCH   9  11
ATOM     11  C   UNL     1      -3.494  -1.071   0.119  0.00  0.00    +0.094 C 
BRANCH  11  12
ATOM     12  C   UNL     1      -3.460  -2.582  -0.121  0.00  0.00    -0.013 C 
BRANCH  12  17
ATOM     13  C   UNL     1      -2.718  -4.691   0.842  0.00  0.00    -0.078 C 
ATOM     14  C   UNL     1      -1.404  -5.189   1.494  0.00  0.00    -0.020 C 
ATOM     15  C   UNL     1      -0.350  -4.197   0.949  0.00  0.00    -0.020 C 
ATOM     16  C   UNL     1      -1.150  -2.948   0.535  0.00  0.00    -0.078 C 
ATOM     17  N   UNL     1      -2.547  -3.230   0.868  0.00  0.00    +0.386 N 
ATOM     18  H   UNL     1      -2.759  -2.872   1.806  0.00  0.00    -0.081 HD
ENDBRANCH  12  17
BRANCH  12  19
ATOM     19  C   UNL     1      -4.850  -3.145   0.027  0.00  0.00    -0.022 A 
ATOM     20  C   UNL     1      -5.707  -3.567  -0.935  0.00  0.00    +0.009 A 
ATOM     21  C   UNL     1      -6.946  -4.054  -0.562  0.00  0.00    +0.008 A 
ATOM     22  C   UNL     1      -7.267  -4.095   0.754  0.00  0.00    +0.045 A 
ATOM     23  S   UNL     1      -5.791  -3.438   1.515  0.00  0.00    -0.103 S 
ENDBRANCH  12  19
ENDBRANCH  11  12
ENDBRANCH   9  11
ENDBRANCH   5   7
BRANCH   1  24
ATOM     24  S   UNL     1       1.259   4.915   0.356  0.00  0.00    +0.075 S 
ATOM     25  O   UNL     1       0.300   5.317   1.325  0.00  0.00    -0.150 OA
ATOM     26  O   UNL     1       2.658   5.027   0.578  0.00  0.00    -0.150 OA
BRANCH  24  35
ATOM     27  C   UNL     1       3.373   6.829  -4.222  0.00  0.00    +0.000 A 
ATOM     28  C   UNL     1       3.953   6.096  -3.203  0.00  0.00    +0.002 A 
ATOM     29  C   UNL     1       3.204   5.712  -2.112  0.00  0.00    +0.025 A 
ATOM     30  C   UNL     1       1.853   6.059  -2.027  0.00  0.00    +0.054 A 
ATOM     31  C   UNL     1       1.281   6.791  -3.055  0.00  0.00    -0.023 A 
ATOM     32  C   UNL     1       2.035   7.170  -4.149  0.00  0.00    +0.005 A 
ATOM     33  C   UNL     1      -0.172   7.037  -2.719  0.00  0.00    +0.058 C 
ATOM     34  C   UNL     1      -0.376   6.348  -1.359  0.00  0.00    +0.136 C 
ATOM     35  N   UNL     1       0.928   5.773  -1.021  0.00  0.00    -0.202 N 
ENDBRANCH  24  35
ENDBRANCH   1  24
TORSDOF 7
