REMARK  Name = ZINC46560566
REMARK  11 active torsions:
REMARK  status: ('A' for Active; 'I' for Inactive)
REMARK    1  A    between atoms: C_1  and  C_2
REMARK    2  A    between atoms: C_2  and  C_3
REMARK    3  A    between atoms: C_8  and  N_9
REMARK    4  A    between atoms: C_10  and  C_12
REMARK    5  A    between atoms: C_12  and  N_13
REMARK    6  A    between atoms: N_13  and  C_14
REMARK    7  A    between atoms: N_13  and  C_15
REMARK    8  A    between atoms: C_15  and  C_17
REMARK    9  A    between atoms: C_15  and  C_18
REMARK   10  A    between atoms: C_20  and  C_23
REMARK   11  A    between atoms: C_26  and  C_30
REMARK                            x       y       z     vdW  Elec       q    Type
REMARK                         _______ _______ _______ _____ _____    ______ ____
ROOT
ATOM      1  N   UNL     1       6.366  -0.516   0.937  0.00  0.00    +0.391 N 
ATOM      2  C   UNL     1       6.527  -1.950   0.664  0.00  0.00    -0.094 C 
ATOM      3  H   UNL     1       6.695   0.017   0.146  0.00  0.00    -0.080 HD
ENDROOT
BRANCH   1   4
ATOM      4  C   UNL     1       7.145  -0.154   2.129  0.00  0.00    +0.019 C 
ATOM      5  C   UNL     1       6.977   1.340   2.413  0.00  0.00    -0.003 C 
BRANCH   4   6
ATOM      6  C   UNL     1       8.601  -0.458   1.888  0.00  0.00    +0.214 A 
ATOM      7  N   UNL     1       9.402  -1.056   2.724  0.00  0.00    -0.193 NA
ATOM      8  C   UNL     1      10.630  -1.166   2.187  0.00  0.00    +0.202 A 
ATOM      9  N   UNL     1      10.614  -0.630   0.991  0.00  0.00    -0.056 NA
ATOM     10  O   UNL     1       9.289  -0.165   0.777  0.00  0.00    -0.339 OA
BRANCH   8  11
ATOM     11  C   UNL     1      11.808  -1.789   2.840  0.00  0.00    +0.025 A 
ATOM     12  C   UNL     1      11.693  -2.331   4.119  0.00  0.00    +0.012 A 
ATOM     13  C   UNL     1      12.791  -2.910   4.722  0.00  0.00    +0.007 A 
ATOM     14  C   UNL     1      14.005  -2.953   4.061  0.00  0.00    -0.015 A 
ATOM     15  C   UNL     1      14.126  -2.416   2.790  0.00  0.00    +0.127 A 
ATOM     16  C   UNL     1      13.031  -1.840   2.174  0.00  0.00    +0.050 A 
ATOM     17  F   UNL     1      15.315  -2.460   2.149  0.00  0.00    -0.205 F 
ATOM     18  C   UNL     1      15.200  -3.586   4.726  0.00  0.00    +0.047 C 
ENDBRANCH   8  11
ENDBRANCH   4   6
ENDBRANCH   1   4
BRANCH   1  19
ATOM     19  C   UNL     1       4.947  -0.219   1.171  0.00  0.00    +0.020 C 
BRANCH  19  21
ATOM     20  N   UNL     1       2.833  -0.268  -0.113  0.00  0.00    -0.287 N 
ATOM     21  C   UNL     1       4.165  -0.474  -0.091  0.00  0.00    +0.201 C 
ATOM     22  O   UNL     1       4.734  -0.865  -1.088  0.00  0.00    -0.278 OA
ATOM     23  H   UNL     1       2.388   0.106   0.663  0.00  0.00    +0.155 HD
BRANCH  20  29
ATOM     24  C   UNL     1       0.800  -1.084  -1.129  0.00  0.00    -0.026 A 
ATOM     25  C   UNL     1       0.070  -1.399  -2.258  0.00  0.00    +0.005 A 
ATOM     26  C   UNL     1       0.627  -1.234  -3.513  0.00  0.00    +0.000 A 
ATOM     27  C   UNL     1       1.917  -0.751  -3.641  0.00  0.00    +0.002 A 
ATOM     28  C   UNL     1       2.652  -0.433  -2.516  0.00  0.00    +0.023 A 
ATOM     29  C   UNL     1       2.093  -0.594  -1.255  0.00  0.00    +0.036 A 
BRANCH  24  31
ATOM     30  C   UNL     1      -0.422   0.058   0.702  0.00  0.00    +0.009 C 
ATOM     31  C   UNL     1       0.191  -1.265   0.238  0.00  0.00    +0.033 C 
ENDBRANCH  24  31
ENDBRANCH  20  29
ENDBRANCH  19  21
ENDBRANCH   1  19
TORSDOF 7
