REMARK  Name = ZINC39323259
REMARK  4 active torsions:
REMARK  status: ('A' for Active; 'I' for Inactive)
REMARK    1  A    between atoms: C_12  and  C_27
REMARK    2  A    between atoms: C_12  and  C_29
REMARK    3  A    between atoms: C_13  and  C_20
REMARK    4  A    between atoms: C_15  and  C_17
REMARK                            x       y       z     vdW  Elec       q    Type
REMARK                         _______ _______ _______ _____ _____    ______ ____
ROOT
ATOM      1  C   UNL     1      -0.017   1.375   0.010  0.00  0.00    +0.001 A 
ATOM      2  C   UNL     1       1.168   2.090   0.002  0.00  0.00    +0.000 A 
ATOM      3  C   UNL     1       2.384   1.427  -0.011  0.00  0.00    +0.006 A 
ATOM      4  C   UNL     1       2.416   0.052  -0.017  0.00  0.00    -0.017 A 
ATOM      5  C   UNL     1       1.223  -0.682  -0.014  0.00  0.00    -0.019 A 
ATOM      6  C   UNL     1       0.002  -0.004   0.002  0.00  0.00    +0.008 A 
ATOM      7  C   UNL     1       1.253  -2.158  -0.035  0.00  0.00    +0.023 C 
ATOM      8  C   UNL     1       2.389  -2.800   0.309  0.00  0.00    +0.072 C 
ATOM      9  N   UNL     1       3.468  -1.995   0.641  0.00  0.00    -0.314 N 
ATOM     10  C   UNL     1       3.722  -0.699  -0.022  0.00  0.00    +0.139 C 
ATOM     11  C   UNL     1       4.782   0.023   0.827  0.00  0.00    +0.174 C 
ATOM     12  C   UNL     1       5.583  -1.167   1.427  0.00  0.00    +0.086 C 
ATOM     13  C   UNL     1       4.463  -2.203   1.695  0.00  0.00    +0.169 C 
ENDROOT
BRANCH  12  14
ATOM     14  C   UNL     1       6.264  -0.765   2.710  0.00  0.00    -0.021 A 
ATOM     15  C   UNL     1       5.512  -0.328   3.785  0.00  0.00    +0.005 A 
ATOM     16  C   UNL     1       6.136   0.040   4.962  0.00  0.00    +0.000 A 
ATOM     17  C   UNL     1       7.513  -0.028   5.065  0.00  0.00    +0.001 A 
ATOM     18  C   UNL     1       8.266  -0.464   3.991  0.00  0.00    +0.020 A 
ATOM     19  C   UNL     1       7.641  -0.839   2.815  0.00  0.00    +0.045 A 
ATOM     20 CL   UNL     1       8.586  -1.394   1.468  0.00  0.00    -0.083 Cl
ENDBRANCH  12  14
BRANCH  13  21
ATOM     21  C   UNL     1       5.019  -3.602   1.616  0.00  0.00    +0.232 C 
ATOM     22  O   UNL     1       4.897  -4.246   0.596  0.00  0.00    -0.274 OA
ATOM     23  N   UNL     1       5.652  -4.136   2.679  0.00  0.00    -0.328 N 
ATOM     24  H   UNL     1       5.749  -3.621   3.495  0.00  0.00    +0.145 HD
ATOM     25  H   UNL     1       6.010  -5.037   2.628  0.00  0.00    +0.145 HD
ENDBRANCH  13  21
BRANCH  11  26
ATOM     26  C   UNL     1       5.646   0.866  -0.015  0.00  0.00    +0.087 C 
ATOM     27  N   UNL     1       6.312   1.517  -0.665  0.00  0.00    -0.195 NA
ENDBRANCH  11  26
BRANCH  11  28
ATOM     28  C   UNL     1       4.149   0.820   1.891  0.00  0.00    +0.087 C 
ATOM     29  N   UNL     1       3.661   1.435   2.712  0.00  0.00    -0.195 NA
ENDBRANCH  11  28
TORSDOF 4
