REMARK  Name = ZINC63855733
REMARK  6 active torsions:
REMARK  status: ('A' for Active; 'I' for Inactive)
REMARK    1  A    between atoms: C_5  and  C_11
REMARK    2  A    between atoms: C_11  and  C_12
REMARK    3  A    between atoms: C_12  and  N_13
REMARK    4  A    between atoms: C_14  and  C_16
REMARK    5  A    between atoms: N_21  and  C_23
REMARK    6  A    between atoms: C_23  and  C_24
REMARK                            x       y       z     vdW  Elec       q    Type
REMARK                         _______ _______ _______ _____ _____    ______ ____
ROOT
ATOM      1  N   UNL     1       6.506  -0.496  -0.872  0.00  0.00    -0.315 N 
ATOM      2  C   UNL     1       7.399  -0.542   0.137  0.00  0.00    +0.214 C 
ATOM      3  O   UNL     1       7.020  -0.729   1.274  0.00  0.00    -0.276 OA
ATOM      4  H   UNL     1       6.809  -0.346  -1.781  0.00  0.00    +0.149 HD
ENDROOT
BRANCH   2   5
ATOM      5  C   UNL     1       8.867  -0.360  -0.148  0.00  0.00    +0.058 C 
ATOM      6  C   UNL     1       9.341  -1.455  -1.109  0.00  0.00    +0.009 C 
ATOM      7  C   UNL     1      10.849  -1.309  -1.330  0.00  0.00    -0.018 C 
ATOM      8  C   UNL     1      11.566  -1.372   0.021  0.00  0.00    -0.078 C 
ATOM      9  N   UNL     1      11.089  -0.285   0.884  0.00  0.00    +0.386 N 
ATOM     10  C   UNL     1       9.657  -0.458   1.159  0.00  0.00    -0.065 C 
ATOM     11  H   UNL     1      11.236   0.600   0.421  0.00  0.00    -0.081 HD
BRANCH   9  12
ATOM     12  C   UNL     1      11.835  -0.302   2.149  0.00  0.00    +0.018 C 
BRANCH  12  13
ATOM     13  C   UNL     1      13.285   0.007   1.881  0.00  0.00    +0.194 C 
ATOM     14  O   UNL     1      13.660   0.222   0.748  0.00  0.00    -0.278 OA
ATOM     15  N   UNL     1      14.165   0.046   2.901  0.00  0.00    -0.331 N 
ATOM     16  H   UNL     1      13.865  -0.125   3.808  0.00  0.00    +0.145 HD
ATOM     17  H   UNL     1      15.099   0.245   2.729  0.00  0.00    +0.145 HD
ENDBRANCH  12  13
ENDBRANCH   9  12
ENDBRANCH   2   5
BRANCH   1  18
ATOM     18  C   UNL     1       5.078  -0.673  -0.594  0.00  0.00    +0.110 C 
BRANCH  18  19
ATOM     19  C   UNL     1       4.289  -0.578  -1.902  0.00  0.00    +0.076 C 
BRANCH  19  24
ATOM     20  C   UNL     1      -0.019   1.529   0.010  0.00  0.00    +0.003 C 
ATOM     21  C   UNL     1       1.393   2.110   0.000  0.00  0.00    +0.005 C 
ATOM     22  C   UNL     1       2.125   1.710  -1.294  0.00  0.00    +0.035 C 
ATOM     23  C   UNL     1       1.966   0.221  -1.426  0.00  0.00    -0.021 C 
ATOM     24  C   UNL     1       2.821  -0.759  -1.617  0.00  0.00    +0.066 C 
ATOM     25  N   UNL     1       2.192  -1.958  -1.521  0.00  0.00    -0.158 NA
ATOM     26  N   UNL     1       0.971  -1.883  -1.327  0.00  0.00    -0.180 NA
ATOM     27  C   UNL     1       0.607  -0.466  -1.325  0.00  0.00    +0.156 C 
ATOM     28  C   UNL     1       0.002  -0.004   0.002  0.00  0.00    +0.033 C 
ENDBRANCH  19  24
ENDBRANCH  18  19
ENDBRANCH   1  18
TORSDOF 6
