REMARK  Name = ZINC63941361
REMARK  8 active torsions:
REMARK  status: ('A' for Active; 'I' for Inactive)
REMARK    1  A    between atoms: C_4  and  C_7
REMARK    2  A    between atoms: C_7  and  N_8
REMARK    3  A    between atoms: C_9  and  C_11
REMARK    4  A    between atoms: C_16  and  N_17
REMARK    5  A    between atoms: C_18  and  C_20
REMARK    6  A    between atoms: N_25  and  C_27
REMARK    7  A    between atoms: C_27  and  C_28
REMARK    8  A    between atoms: C_28  and  C_29
REMARK                            x       y       z     vdW  Elec       q    Type
REMARK                         _______ _______ _______ _____ _____    ______ ____
ROOT
ATOM      1  N   UNL     1       7.579  -3.075   2.071  0.00  0.00    -0.285 N 
ATOM      2  C   UNL     1       8.635  -3.890   2.260  0.00  0.00    +0.222 C 
ATOM      3  O   UNL     1       8.919  -4.265   3.378  0.00  0.00    -0.275 OA
ATOM      4  H   UNL     1       7.315  -2.823   1.171  0.00  0.00    +0.155 HD
ENDROOT
BRANCH   1  10
ATOM      5  C   UNL     1       6.461  -1.250   3.208  0.00  0.00    +0.058 A 
ATOM      6  C   UNL     1       5.742  -0.781   4.309  0.00  0.00    +0.015 A 
ATOM      7  C   UNL     1       5.440  -1.635   5.348  0.00  0.00    +0.001 A 
ATOM      8  C   UNL     1       5.846  -2.959   5.306  0.00  0.00    +0.002 A 
ATOM      9  C   UNL     1       6.558  -3.437   4.224  0.00  0.00    +0.024 A 
ATOM     10  C   UNL     1       6.866  -2.593   3.166  0.00  0.00    +0.046 A 
BRANCH   5  12
ATOM     11  N   UNL     1       6.295   0.913   2.080  0.00  0.00    -0.307 N 
ATOM     12  C   UNL     1       6.787  -0.342   2.093  0.00  0.00    +0.246 C 
ATOM     13  O   UNL     1       7.499  -0.725   1.185  0.00  0.00    -0.270 OA
ATOM     14  H   UNL     1       5.727   1.219   2.804  0.00  0.00    +0.149 HD
BRANCH  11  15
ATOM     15  C   UNL     1       6.619   1.816   0.973  0.00  0.00    +0.139 C 
BRANCH  15  19
ATOM     16  C   UNL     1       4.724   5.591   1.609  0.00  0.00    +0.000 A 
ATOM     17  C   UNL     1       5.995   5.364   2.102  0.00  0.00    +0.000 A 
ATOM     18  C   UNL     1       6.609   4.142   1.896  0.00  0.00    +0.005 A 
ATOM     19  C   UNL     1       5.950   3.147   1.198  0.00  0.00    -0.030 A 
ATOM     20  C   UNL     1       4.678   3.374   0.705  0.00  0.00    +0.005 A 
ATOM     21  C   UNL     1       4.066   4.596   0.910  0.00  0.00    +0.000 A 
ENDBRANCH  15  19
ENDBRANCH  11  15
ENDBRANCH   5  12
ENDBRANCH   1  10
BRANCH   2  22
ATOM     22  C   UNL     1       9.463  -4.337   1.082  0.00  0.00    +0.101 C 
ATOM     23  C   UNL     1       8.627  -5.209   0.117  0.00  0.00    +0.110 C 
ATOM     24  C   UNL     1       9.600  -6.261  -0.368  0.00  0.00    +0.216 C 
ATOM     25  O   UNL     1       9.433  -6.967  -1.340  0.00  0.00    -0.276 OA
ATOM     26  N   UNL     1      10.678  -6.300   0.435  0.00  0.00    -0.300 N 
ATOM     27  C   UNL     1      10.567  -5.322   1.525  0.00  0.00    +0.121 C 
BRANCH  26  28
ATOM     28  C   UNL     1      11.818  -7.200   0.245  0.00  0.00    +0.112 C 
BRANCH  28  29
ATOM     29  C   UNL     1      12.863  -6.521  -0.642  0.00  0.00    +0.052 C 
BRANCH  29  30
ATOM     30  C   UNL     1      14.035  -7.447  -0.837  0.00  0.00    -0.040 C 
ATOM     31  C   UNL     1      14.240  -8.293  -1.872  0.00  0.00    +0.002 A 
ATOM     32  C   UNL     1      13.462  -8.592  -3.080  0.00  0.00    +0.048 A 
ATOM     33  C   UNL     1      13.935  -9.511  -3.955  0.00  0.00    +0.124 A 
ATOM     34  C   UNL     1      15.149 -10.182  -3.736  0.00  0.00    +0.040 A 
ATOM     35  C   UNL     1      15.917  -9.960  -2.649  0.00  0.00    +0.029 A 
ATOM     36  C   UNL     1      15.516  -9.015  -1.665  0.00  0.00    +0.043 A 
ATOM     37  N   UNL     1      16.078  -8.630  -0.545  0.00  0.00    -0.380 N 
ATOM     38  C   UNL     1      15.224  -7.614   0.082  0.00  0.00    +0.144 C 
ATOM     39  F   UNL     1      13.221  -9.789  -5.068  0.00  0.00    -0.205 F 
ATOM     40  H   UNL     1      16.920  -8.958  -0.191  0.00  0.00    +0.160 HD
ENDBRANCH  29  30
ENDBRANCH  28  29
ENDBRANCH  26  28
ENDBRANCH   2  22
TORSDOF 8
