REMARK  Name = ZINC13051925
REMARK  12 active torsions:
REMARK  status: ('A' for Active; 'I' for Inactive)
REMARK    1  A    between atoms: C_1  and  C_2
REMARK    2  A    between atoms: C_2  and  C_3
REMARK    3  A    between atoms: C_3  and  N_4
REMARK    4  A    between atoms: N_4  and  C_5
REMARK    5  A    between atoms: C_13  and  C_15
REMARK    6  A    between atoms: C_15  and  S_16
REMARK    7  A    between atoms: S_16  and  C_17
REMARK    8  A    between atoms: C_21  and  C_33
REMARK    9  A    between atoms: N_27  and  C_28
REMARK   10  A    between atoms: C_28  and  C_29
REMARK   11  A    between atoms: C_29  and  C_31
REMARK   12  A    between atoms: C_29  and  O_32
REMARK                            x       y       z     vdW  Elec       q    Type
REMARK                         _______ _______ _______ _____ _____    ______ ____
ROOT
ATOM      1  C   UNL     1      -0.431  -3.618  -5.007  0.00  0.00    +0.173 A 
ATOM      2  N   UNL     1       0.040  -2.798  -5.913  0.00  0.00    -0.223 NA
ATOM      3  C   UNL     1       0.408  -3.234  -7.141  0.00  0.00    +0.080 A 
ATOM      4  C   UNL     1       0.916  -2.358  -8.105  0.00  0.00    +0.043 A 
ATOM      5  C   UNL     1       1.276  -2.851  -9.353  0.00  0.00    +0.065 A 
ATOM      6  C   UNL     1       1.133  -4.213  -9.647  0.00  0.00    +0.016 A 
ATOM      7  C   UNL     1       0.638  -5.078  -8.714  0.00  0.00    +0.016 A 
ATOM      8  C   UNL     1       0.271  -4.605  -7.454  0.00  0.00    +0.065 A 
ATOM      9  C   UNL     1      -0.266  -5.502  -6.419  0.00  0.00    +0.262 A 
ATOM     10  O   UNL     1      -0.408  -6.693  -6.628  0.00  0.00    -0.267 OA
ATOM     11  N   UNL     1      -0.596  -4.956  -5.226  0.00  0.00    -0.285 N 
ENDROOT
BRANCH   5  12
ATOM     12  C   UNL     1       1.814  -1.930 -10.378  0.00  0.00    +0.387 C 
ATOM     13  O   UNL     1       1.940  -0.749 -10.127  0.00  0.00    -0.241 OA
ATOM     14  O   UNL     1       2.165  -2.402 -11.590  0.00  0.00    -0.241 OA
ENDBRANCH   5  12
BRANCH   1  15
ATOM     15  S   UNL     1      -0.879  -2.964  -3.433  0.00  0.00    -0.078 S 
BRANCH  15  16
ATOM     16  C   UNL     1      -0.468  -1.220  -3.690  0.00  0.00    +0.173 C 
BRANCH  16  18
ATOM     17  N   UNL     1      -0.550   0.887  -2.395  0.00  0.00    -0.296 N 
ATOM     18  C   UNL     1      -0.777  -0.441  -2.437  0.00  0.00    +0.226 C 
ATOM     19  O   UNL     1      -1.231  -1.009  -1.466  0.00  0.00    -0.275 OA
BRANCH  17  20
ATOM     20  C   UNL     1      -0.851   1.643  -1.178  0.00  0.00    +0.098 C 
ATOM     21  C   UNL     1      -2.340   1.490  -0.825  0.00  0.00    +0.046 C 
ATOM     22  C   UNL     1      -2.599   2.009   0.610  0.00  0.00    +0.168 C 
ATOM     23  S   UNL     1      -0.979   1.731   1.438  0.00  0.00    -0.029 S 
ATOM     24  O   UNL     1      -1.123   0.698   2.403  0.00  0.00    -0.174 OA
ATOM     25  O   UNL     1      -0.440   2.986   1.832  0.00  0.00    -0.174 OA
ATOM     26  C   UNL     1      -0.013   1.086   0.008  0.00  0.00    +0.188 C 
ENDBRANCH  17  20
BRANCH  17  27
ATOM     27  C   UNL     1      -0.002   1.573  -3.568  0.00  0.00    +0.108 C 
BRANCH  27  29
ATOM     28  C   UNL     1       2.099   2.285  -4.718  0.00  0.00    +0.005 C 
ATOM     29  C   UNL     1       1.526   1.568  -3.494  0.00  0.00    +0.016 C 
ENDBRANCH  27  29
ENDBRANCH  17  27
ENDBRANCH  16  18
ENDBRANCH  15  16
ENDBRANCH   1  15
BRANCH  11  30
ATOM     30  C   UNL     1      -1.135  -5.806  -4.162  0.00  0.00    +0.158 C 
BRANCH  30  31
ATOM     31  C   UNL     1      -2.660  -5.857  -4.273  0.00  0.00    +0.131 C 
ATOM     32  C   UNL     1      -3.223  -6.745  -3.161  0.00  0.00    +0.039 C 
BRANCH  31  33
ATOM     33  O   UNL     1      -3.192  -4.537  -4.144  0.00  0.00    -0.390 OA
ATOM     34  H   UNL     1      -2.982  -4.109  -3.302  0.00  0.00    +0.210 HD
ENDBRANCH  31  33
ENDBRANCH  30  31
ENDBRANCH  11  30
TORSDOF 10
