REMARK  Name = ZINC19797659
REMARK  9 active torsions:
REMARK  status: ('A' for Active; 'I' for Inactive)
REMARK    1  A    between atoms: C_1  and  C_2
REMARK    2  A    between atoms: C_4  and  C_24
REMARK    3  A    between atoms: C_5  and  N_21
REMARK    4  A    between atoms: C_6  and  C_20
REMARK    5  A    between atoms: C_7  and  C_8
REMARK    6  A    between atoms: C_9  and  C_18
REMARK    7  A    between atoms: C_10  and  N_17
REMARK    8  A    between atoms: C_12  and  N_16
REMARK    9  A    between atoms: C_13  and  C_14
REMARK                            x       y       z     vdW  Elec       q    Type
REMARK                         _______ _______ _______ _____ _____    ______ ____
ROOT
ATOM      1  C   UNL     1      -3.344   0.653   0.345  0.00  0.00    +0.105 C 
ATOM      2  C   UNL     1      -3.675  -0.778   0.093  0.00  0.00    +0.069 C 
ATOM      3  C   UNL     1      -4.641  -1.223  -0.728  0.00  0.00    +0.079 C 
ATOM      4  S   UNL     1      -5.681  -0.153  -1.655  0.00  0.00    -0.058 S 
ATOM      5  C   UNL     1      -4.725   1.318  -1.656  0.00  0.00    +0.079 C 
ATOM      6  C   UNL     1      -3.751   1.563  -0.762  0.00  0.00    +0.069 C 
ENDROOT
BRANCH   1  13
ATOM      7  C   UNL     1      -1.791   1.516   2.623  0.00  0.00    +0.044 C 
ATOM      8  C   UNL     1      -3.296   1.503   2.698  0.00  0.00    -0.046 A 
ATOM      9  C   UNL     1      -3.934   1.908   3.856  0.00  0.00    +0.009 A 
ATOM     10  C   UNL     1      -5.314   1.892   3.927  0.00  0.00    -0.020 A 
ATOM     11  C   UNL     1      -6.057   1.474   2.839  0.00  0.00    +0.132 A 
ATOM     12  C   UNL     1      -5.420   1.073   1.680  0.00  0.00    -0.016 A 
ATOM     13  C   UNL     1      -4.039   1.090   1.609  0.00  0.00    -0.026 A 
ATOM     14  C   UNL     1      -6.230   0.617   0.493  0.00  0.00    +0.046 C 
ATOM     15  C   UNL     1      -6.009   2.329   5.191  0.00  0.00    +0.046 C 
BRANCH  11  16
ATOM     16  N   UNL     1      -7.535   1.456   2.914  0.00  0.00    +0.057 N 
ATOM     17  O   UNL     1      -8.113   0.457   3.305  0.00  0.00    -0.126 OA
ATOM     18  O   UNL     1      -8.174   2.440   2.586  0.00  0.00    -0.126 OA
ENDBRANCH  11  16
ENDBRANCH   1  13
BRANCH   5  19
ATOM     19  N   UNL     1      -4.987   2.269  -2.614  0.00  0.00    -0.352 N 
ATOM     20  H   UNL     1      -4.403   3.201  -2.639  0.00  0.00    +0.143 HD
ATOM     21  H   UNL     1      -5.781   2.098  -3.356  0.00  0.00    +0.143 HD
ENDBRANCH   5  19
BRANCH   3  22
ATOM     22  N   UNL     1      -4.828  -2.580  -0.843  0.00  0.00    -0.352 N 
ATOM     23  H   UNL     1      -5.612  -2.974  -1.507  0.00  0.00    +0.143 HD
ATOM     24  H   UNL     1      -4.194  -3.273  -0.270  0.00  0.00    +0.143 HD
ENDBRANCH   3  22
BRANCH   6  25
ATOM     25  C   UNL     1      -3.046   2.803  -0.884  0.00  0.00    +0.098 C 
ATOM     26  N   UNL     1      -2.487   3.788  -0.980  0.00  0.00    -0.191 NA
ENDBRANCH   6  25
BRANCH   2  27
ATOM     27  C   UNL     1      -2.897  -1.762   0.784  0.00  0.00    +0.098 C 
ATOM     28  N   UNL     1      -2.279  -2.542   1.332  0.00  0.00    -0.191 NA
ENDBRANCH   2  27
TORSDOF 6
