REMARK  Name = ZINC08847320
REMARK  9 active torsions:
REMARK  status: ('A' for Active; 'I' for Inactive)
REMARK    1  A    between atoms: C_1  and  C_2
REMARK    2  A    between atoms: C_2  and  O_3
REMARK    3  A    between atoms: O_3  and  C_4
REMARK    4  A    between atoms: C_9  and  N_10
REMARK    5  A    between atoms: C_11  and  C_13
REMARK    6  A    between atoms: C_13  and  C_15
REMARK    7  A    between atoms: C_13  and  N_16
REMARK    8  A    between atoms: C_23  and  C_26
REMARK    9  A    between atoms: C_30  and  N_32
REMARK                            x       y       z     vdW  Elec       q    Type
REMARK                         _______ _______ _______ _____ _____    ______ ____
ROOT
ATOM      1  N   UNL     1      -2.437   6.425  -2.705  0.00  0.00    -0.287 N 
ATOM      2  C   UNL     1      -2.301   7.764  -2.530  0.00  0.00    +0.204 A 
ATOM      3  N   UNL     1      -1.518   8.248  -1.603  0.00  0.00    -0.230 NA
ATOM      4  C   UNL     1      -0.829   7.442  -0.799  0.00  0.00    +0.116 A 
ATOM      5  C   UNL     1      -0.907   6.044  -0.905  0.00  0.00    +0.080 A 
ATOM      6  C   UNL     1      -1.773   5.547  -1.931  0.00  0.00    +0.263 A 
ATOM      7  O   UNL     1      -1.906   4.347  -2.100  0.00  0.00    -0.267 OA
ATOM      8  C   UNL     1      -0.089   5.305   0.050  0.00  0.00    +0.004 A 
ATOM      9  C   UNL     1       0.656   6.000   0.944  0.00  0.00    +0.056 A 
ATOM     10  S   UNL     1       0.306   7.700   0.540  0.00  0.00    -0.076 S 
ENDROOT
BRANCH   8  11
ATOM     11  C   UNL     1      -0.079   3.823   0.048  0.00  0.00    -0.014 A 
ATOM     12  C   UNL     1      -1.280   3.115   0.055  0.00  0.00    +0.009 A 
ATOM     13  C   UNL     1      -1.264   1.735   0.047  0.00  0.00    +0.003 A 
ATOM     14  C   UNL     1      -0.059   1.054   0.044  0.00  0.00    +0.033 A 
ATOM     15  C   UNL     1       1.135   1.752   0.038  0.00  0.00    +0.127 A 
ATOM     16  C   UNL     1       1.132   3.132   0.039  0.00  0.00    +0.041 A 
BRANCH  15  17
ATOM     17  N   UNL     1       2.420   1.016   0.029  0.00  0.00    +0.056 N 
ATOM     18  O   UNL     1       2.424  -0.202   0.027  0.00  0.00    -0.126 OA
ATOM     19  O   UNL     1       3.473   1.629   0.023  0.00  0.00    -0.126 OA
ENDBRANCH  15  17
ENDBRANCH   8  11
BRANCH   1  20
ATOM     20  C   UNL     1      -3.325   5.925  -3.758  0.00  0.00    +0.174 C 
ATOM     21  C   UNL     1      -2.844   6.437  -5.117  0.00  0.00    +0.041 C 
BRANCH  20  23
ATOM     22  N   UNL     1      -5.722   6.075  -4.351  0.00  0.00    -0.281 N 
ATOM     23  C   UNL     1      -4.728   6.413  -3.505  0.00  0.00    +0.240 C 
ATOM     24  O   UNL     1      -4.963   7.110  -2.541  0.00  0.00    -0.273 OA
ATOM     25  H   UNL     1      -5.521   5.586  -5.164  0.00  0.00    +0.155 HD
BRANCH  22  31
ATOM     26  C   UNL     1      -7.978   6.562  -5.081  0.00  0.00    +0.142 A 
ATOM     27  C   UNL     1      -9.285   6.914  -4.782  0.00  0.00    +0.047 A 
ATOM     28  C   UNL     1      -9.659   7.133  -3.470  0.00  0.00    +0.004 A 
ATOM     29  C   UNL     1      -8.733   7.003  -2.451  0.00  0.00    +0.002 A 
ATOM     30  C   UNL     1      -7.429   6.647  -2.740  0.00  0.00    +0.027 A 
ATOM     31  C   UNL     1      -7.045   6.431  -4.055  0.00  0.00    +0.076 A 
BRANCH  26  32
ATOM     32  O   UNL     1      -7.608   6.345  -6.371  0.00  0.00    -0.490 OA
BRANCH  32  34
ATOM     33  C   UNL     1      -8.019   6.216  -8.749  0.00  0.00    +0.048 C 
ATOM     34  C   UNL     1      -8.619   6.498  -7.370  0.00  0.00    +0.226 C 
ENDBRANCH  32  34
ENDBRANCH  26  32
ENDBRANCH  22  31
ENDBRANCH  20  23
ENDBRANCH   1  20
TORSDOF 7
