REMARK  Name = ZINC34835905
REMARK  14 active torsions:
REMARK  status: ('A' for Active; 'I' for Inactive)
REMARK    1  A    between atoms: C_1  and  C_2
REMARK    2  A    between atoms: C_2  and  C_3
REMARK    3  A    between atoms: C_3  and  N_4
REMARK    4  A    between atoms: N_4  and  C_5
REMARK    5  A    between atoms: N_4  and  S_29
REMARK    6  A    between atoms: C_5  and  C_6
REMARK    7  A    between atoms: C_7  and  C_27
REMARK    8  A    between atoms: N_9  and  C_20
REMARK    9  A    between atoms: C_10  and  N_11
REMARK   10  A    between atoms: N_14  and  C_17
REMARK   11  A    between atoms: C_17  and  C_18
REMARK   12  A    between atoms: C_17  and  C_19
REMARK   13  A    between atoms: C_27  and  C_28
REMARK   14  A    between atoms: S_29  and  C_32
REMARK                            x       y       z     vdW  Elec       q    Type
REMARK                         _______ _______ _______ _____ _____    ______ ____
ROOT
ATOM      1  C   UNL     1      -3.073  -2.773   2.646  0.00  0.00    +0.031 A 
ATOM      2  C   UNL     1      -3.739  -1.714   3.270  0.00  0.00    +0.070 A 
ATOM      3  N   UNL     1      -4.991  -2.055   3.441  0.00  0.00    -0.169 NA
ATOM      4  N   UNL     1      -5.172  -3.347   2.931  0.00  0.00    -0.218 N 
ATOM      5  C   UNL     1      -3.976  -3.771   2.439  0.00  0.00    +0.129 A 
ENDROOT
BRANCH   5   6
ATOM      6  N   UNL     1      -3.721  -5.001   1.839  0.00  0.00    -0.318 N 
ATOM      7  C   UNL     1      -4.002  -5.218   0.412  0.00  0.00    +0.088 C 
ATOM      8  C   UNL     1      -2.755  -5.822  -0.243  0.00  0.00    -0.059 C 
ATOM      9  N   UNL     1      -2.357  -7.032   0.488  0.00  0.00    +0.383 N 
ATOM     10  C   UNL     1      -1.955  -6.681   1.856  0.00  0.00    -0.059 C 
ATOM     11  C   UNL     1      -3.157  -6.118   2.613  0.00  0.00    +0.088 C 
ATOM     12  H   UNL     1      -3.135  -7.674   0.521  0.00  0.00    -0.081 HD
BRANCH   9  13
ATOM     13  C   UNL     1      -1.229  -7.670  -0.203  0.00  0.00    -0.075 C 
ATOM     14  C   UNL     1      -0.813  -8.932   0.556  0.00  0.00    -0.014 C 
ATOM     15  C   UNL     1      -1.650  -8.047  -1.625  0.00  0.00    -0.014 C 
ENDBRANCH   9  13
ENDBRANCH   5   6
BRANCH   4  16
ATOM     16  C   UNL     1      -6.372  -4.072   2.923  0.00  0.00    +0.068 A 
ATOM     17  C   UNL     1      -6.739  -4.798   1.798  0.00  0.00    +0.030 A 
ATOM     18  C   UNL     1      -7.921  -5.511   1.792  0.00  0.00    +0.040 A 
ATOM     19  C   UNL     1      -8.741  -5.503   2.908  0.00  0.00    +0.124 A 
ATOM     20  C   UNL     1      -8.377  -4.780   4.032  0.00  0.00    +0.040 A 
ATOM     21  C   UNL     1      -7.192  -4.070   4.043  0.00  0.00    +0.030 A 
ATOM     22  F   UNL     1      -9.897  -6.202   2.901  0.00  0.00    -0.205 F 
ENDBRANCH   4  16
BRANCH   2  23
ATOM     23  C   UNL     1      -3.120  -0.402   3.678  0.00  0.00    +0.054 C 
ATOM     24  C   UNL     1      -3.263   0.606   2.536  0.00  0.00    +0.010 C 
ENDBRANCH   2  23
BRANCH   1  25
ATOM     25  C   UNL     1      -1.615  -2.801   2.264  0.00  0.00    +0.149 C 
BRANCH  25  26
ATOM     26  N   UNL     1      -1.348  -1.750   1.279  0.00  0.00    -0.172 NA
BRANCH  26  27
ATOM     27  S   UNL     1      -1.647  -2.025  -0.327  0.00  0.00    +0.061 S 
ATOM     28  O   UNL     1      -2.540  -3.129  -0.391  0.00  0.00    -0.153 OA
ATOM     29  O   UNL     1      -1.953  -0.763  -0.904  0.00  0.00    -0.153 OA
BRANCH  27  30
ATOM     30  C   UNL     1      -0.134  -2.558  -1.055  0.00  0.00    +0.105 A 
ATOM     31  C   UNL     1       0.744  -1.630  -1.583  0.00  0.00    +0.028 A 
ATOM     32  C   UNL     1       1.931  -2.048  -2.154  0.00  0.00    +0.002 A 
ATOM     33  C   UNL     1       2.241  -3.395  -2.197  0.00  0.00    +0.000 A 
ATOM     34  C   UNL     1       1.363  -4.323  -1.669  0.00  0.00    +0.002 A 
ATOM     35  C   UNL     1       0.178  -3.904  -1.094  0.00  0.00    +0.028 A 
ENDBRANCH  27  30
ENDBRANCH  26  27
BRANCH  26  36
ATOM     36  C   UNL     1      -0.816  -0.457   1.714  0.00  0.00    +0.109 C 
BRANCH  36  38
ATOM     37  C   UNL     1       1.261   0.801   2.303  0.00  0.00    +0.005 C 
ATOM     38  C   UNL     1       0.706  -0.550   1.848  0.00  0.00    +0.014 C 
ENDBRANCH  36  38
ENDBRANCH  26  36
ENDBRANCH  25  26
ENDBRANCH   1  25
TORSDOF 10
