REMARK  Name = ZINC30757066
REMARK  11 active torsions:
REMARK  status: ('A' for Active; 'I' for Inactive)
REMARK    1  A    between atoms: C_1  and  C_2
REMARK    2  A    between atoms: C_4  and  C_33
REMARK    3  A    between atoms: C_5  and  C_32
REMARK    4  A    between atoms: C_6  and  O_8
REMARK    5  A    between atoms: O_8  and  C_9
REMARK    6  A    between atoms: C_9  and  C_11
REMARK    7  A    between atoms: C_9  and  C_12
REMARK    8  A    between atoms: N_14  and  C_15
REMARK    9  A    between atoms: C_18  and  S_21
REMARK   10  A    between atoms: S_21  and  N_24
REMARK   11  A    between atoms: N_24  and  C_25
REMARK                            x       y       z     vdW  Elec       q    Type
REMARK                         _______ _______ _______ _____ _____    ______ ____
ROOT
ATOM      1  C   UNL     1       6.690  -2.145   0.051  0.00  0.00    +0.034 A 
ATOM      2  C   UNL     1       6.211  -1.811  -1.208  0.00  0.00    +0.025 A 
ATOM      3  C   UNL     1       4.888  -2.044  -1.527  0.00  0.00    +0.030 A 
ATOM      4  C   UNL     1       4.040  -2.610  -0.593  0.00  0.00    +0.109 A 
ATOM      5  C   UNL     1       4.512  -2.939   0.665  0.00  0.00    +0.030 A 
ATOM      6  C   UNL     1       5.836  -2.714   0.987  0.00  0.00    +0.025 A 
ENDROOT
BRANCH   1   9
ATOM      7  C   UNL     1       8.675  -0.849  -0.148  0.00  0.00    +0.258 C 
ATOM      8  O   UNL     1       8.070  -0.046  -0.826  0.00  0.00    -0.271 OA
ATOM      9  N   UNL     1       8.031  -1.910   0.377  0.00  0.00    -0.282 N 
ATOM     10  H   UNL     1       8.558  -2.591   1.061  0.00  0.00    +0.155 HD
BRANCH   7  11
ATOM     11  C   UNL     1      10.148  -0.660   0.109  0.00  0.00    +0.256 C 
ATOM     12  C   UNL     1      10.930  -1.803  -0.542  0.00  0.00    +0.062 C 
BRANCH  11  13
ATOM     13  O   UNL     1      10.573   0.585  -0.449  0.00  0.00    -0.480 OA
BRANCH  13  19
ATOM     14  C   UNL     1      14.301   0.358   2.693  0.00  0.00    +0.044 C 
ATOM     15  C   UNL     1      13.514   1.086   1.634  0.00  0.00    -0.047 A 
ATOM     16  C   UNL     1      13.909   2.345   1.221  0.00  0.00    +0.007 A 
ATOM     17  C   UNL     1      13.189   3.015   0.250  0.00  0.00    -0.044 A 
ATOM     18  C   UNL     1      12.071   2.428  -0.311  0.00  0.00    -0.006 A 
ATOM     19  C   UNL     1      11.672   1.165   0.101  0.00  0.00    +0.125 A 
ATOM     20  C   UNL     1      12.394   0.497   1.080  0.00  0.00    +0.049 A 
ATOM     21  C   UNL     1      11.286   3.159  -1.369  0.00  0.00    +0.048 C 
ATOM     22  C   UNL     1      13.623   4.387  -0.197  0.00  0.00    +0.044 C 
ENDBRANCH  13  19
ENDBRANCH  11  13
ENDBRANCH   7  11
ENDBRANCH   1   9
BRANCH   4  23
ATOM     23  S   UNL     1       2.352  -2.906  -1.002  0.00  0.00    +0.072 S 
ATOM     24  O   UNL     1       2.060  -2.094  -2.132  0.00  0.00    -0.150 OA
ATOM     25  O   UNL     1       1.617  -2.815   0.211  0.00  0.00    -0.150 OA
BRANCH  23  26
ATOM     26  N   UNL     1       2.239  -4.479  -1.508  0.00  0.00    -0.216 N 
ATOM     27  H   UNL     1       1.618  -5.193  -0.947  0.00  0.00    +0.174 HD
BRANCH  26  28
ATOM     28  C   UNL     1       2.932  -4.898  -2.646  0.00  0.00    +0.048 A 
ATOM     29  C   UNL     1       3.659  -6.081  -2.622  0.00  0.00    +0.025 A 
ATOM     30  C   UNL     1       4.343  -6.493  -3.749  0.00  0.00    +0.017 A 
ATOM     31  C   UNL     1       4.304  -5.728  -4.901  0.00  0.00    +0.018 A 
ATOM     32  C   UNL     1       3.581  -4.549  -4.928  0.00  0.00    +0.017 A 
ATOM     33  C   UNL     1       2.895  -4.132  -3.805  0.00  0.00    +0.025 A 
ATOM     34 BR   UNL     1       5.243  -6.296  -6.442  0.00  0.00    -0.050 Br
ENDBRANCH  26  28
ENDBRANCH  23  26
ENDBRANCH   4  23
TORSDOF 7
