REMARK  Name = ZINC01142857
REMARK  7 active torsions:
REMARK  status: ('A' for Active; 'I' for Inactive)
REMARK    1  A    between atoms: C_1  and  S_2
REMARK    2  A    between atoms: S_2  and  N_5
REMARK    3  A    between atoms: N_5  and  C_6
REMARK    4  A    between atoms: N_5  and  C_20
REMARK    5  A    between atoms: C_6  and  C_7
REMARK    6  A    between atoms: N_9  and  C_10
REMARK    7  A    between atoms: C_15  and  C_16
REMARK                            x       y       z     vdW  Elec       q    Type
REMARK                         _______ _______ _______ _____ _____    ______ ____
ROOT
ATOM      1  C   UNL     1       1.139   4.244  -1.244  0.00  0.00    +0.227 C 
ENDROOT
BRANCH   1   2
ATOM      2  C   UNL     1      -0.280   4.360  -1.739  0.00  0.00    +0.236 C 
ATOM      3  O   UNL     1      -1.199   3.995  -1.036  0.00  0.00    -0.274 OA
ATOM      4  N   UNL     1      -0.528   4.868  -2.962  0.00  0.00    -0.284 N 
ATOM      5  H   UNL     1       0.200   5.220  -3.498  0.00  0.00    +0.155 HD
BRANCH   4   6
ATOM      6  C   UNL     1      -1.836   4.889  -3.459  0.00  0.00    +0.045 A 
ATOM      7  C   UNL     1      -2.907   5.068  -2.593  0.00  0.00    +0.024 A 
ATOM      8  C   UNL     1      -4.196   5.093  -3.087  0.00  0.00    +0.002 A 
ATOM      9  C   UNL     1      -4.422   4.930  -4.442  0.00  0.00    +0.001 A 
ATOM     10  C   UNL     1      -3.359   4.747  -5.306  0.00  0.00    +0.014 A 
ATOM     11  C   UNL     1      -2.067   4.725  -4.819  0.00  0.00    +0.076 A 
BRANCH  11  12
ATOM     12  C   UNL     1      -0.908   4.524  -5.761  0.00  0.00    +0.419 C 
ATOM     13  F   UNL     1      -1.389   4.384  -7.068  0.00  0.00    -0.166 F 
ATOM     14  F   UNL     1      -0.055   5.631  -5.694  0.00  0.00    -0.166 F 
ATOM     15  F   UNL     1      -0.205   3.371  -5.397  0.00  0.00    -0.166 F 
ENDBRANCH  11  12
ENDBRANCH   4   6
ENDBRANCH   1   2
BRANCH   1  16
ATOM     16  N   UNL     1       1.147   3.598   0.070  0.00  0.00    -0.197 N 
BRANCH  16  17
ATOM     17  C   UNL     1       0.973   4.364   1.226  0.00  0.00    +0.071 A 
ATOM     18  C   UNL     1      -0.305   4.666   1.676  0.00  0.00    +0.046 A 
ATOM     19  C   UNL     1      -0.473   5.423   2.820  0.00  0.00    +0.043 A 
ATOM     20  C   UNL     1       0.631   5.880   3.517  0.00  0.00    +0.021 A 
ATOM     21  C   UNL     1       1.906   5.582   3.072  0.00  0.00    +0.023 A 
ATOM     22  C   UNL     1       2.080   4.825   1.929  0.00  0.00    +0.064 A 
ATOM     23 CL   UNL     1       3.681   4.456   1.368  0.00  0.00    -0.082 Cl
ATOM     24 CL   UNL     1      -2.072   5.801   3.382  0.00  0.00    -0.083 Cl
ENDBRANCH  16  17
BRANCH  16  26
ATOM     25  C   UNL     1      -0.300   1.258  -0.006  0.00  0.00    +0.218 C 
ATOM     26  S   UNL     1       1.361   1.960   0.187  0.00  0.00    +0.043 S 
ATOM     27  O   UNL     1       2.169   1.620  -0.932  0.00  0.00    -0.155 OA
ATOM     28  O   UNL     1       1.831   1.749   1.511  0.00  0.00    -0.155 OA
ENDBRANCH  16  26
ENDBRANCH   1  16
TORSDOF 6
