REMARK  Name = ZINC13367802
REMARK  9 active torsions:
REMARK  status: ('A' for Active; 'I' for Inactive)
REMARK    1  A    between atoms: C_3  and  C_9
REMARK    2  A    between atoms: C_6  and  C_7
REMARK    3  A    between atoms: C_12  and  O_15
REMARK    4  A    between atoms: O_15  and  C_16
REMARK    5  A    between atoms: C_16  and  C_17
REMARK    6  A    between atoms: N_19  and  N_20
REMARK    7  A    between atoms: N_20  and  S_21
REMARK    8  A    between atoms: S_21  and  C_24
REMARK    9  A    between atoms: C_28  and  C_30
REMARK                            x       y       z     vdW  Elec       q    Type
REMARK                         _______ _______ _______ _____ _____    ______ ____
ROOT
ATOM      1  C   UNL     1      -0.870   3.847  -2.661  0.00  0.00    +0.265 C 
ATOM      2  O   UNL     1      -0.303   3.223  -3.533  0.00  0.00    -0.271 OA
ATOM      3  N   UNL     1      -1.204   3.239  -1.506  0.00  0.00    -0.229 N 
ATOM      4  H   UNL     1      -1.657   3.738  -0.808  0.00  0.00    +0.171 HD
ENDROOT
BRANCH   3   5
ATOM      5  N   UNL     1      -0.897   1.885  -1.312  0.00  0.00    -0.108 NA
ATOM      6  H   UNL     1      -1.201   1.223  -1.952  0.00  0.00    +0.172 HD
BRANCH   5   7
ATOM      7  S   UNL     1      -0.017   1.417   0.010  0.00  0.00    +0.074 S 
ATOM      8  O   UNL     1       0.002  -0.004   0.002  0.00  0.00    -0.152 OA
ATOM      9  O   UNL     1       1.172   2.195   0.003  0.00  0.00    -0.152 OA
BRANCH   7  10
ATOM     10  C   UNL     1      -0.927   1.900   1.439  0.00  0.00    +0.108 A 
ATOM     11  C   UNL     1      -0.715   3.147   2.003  0.00  0.00    +0.031 A 
ATOM     12  C   UNL     1      -1.427   3.538   3.121  0.00  0.00    +0.041 A 
ATOM     13  C   UNL     1      -2.350   2.680   3.692  0.00  0.00    +0.138 A 
ATOM     14  C   UNL     1      -2.564   1.417   3.130  0.00  0.00    +0.100 A 
ATOM     15  C   UNL     1      -1.843   1.034   1.996  0.00  0.00    +0.046 A 
ATOM     16  F   UNL     1      -3.042   3.061   4.787  0.00  0.00    -0.205 F 
BRANCH  14  17
ATOM     17  C   UNL     1      -3.546   0.495   3.731  0.00  0.00    +0.389 C 
ATOM     18  O   UNL     1      -4.171   0.832   4.717  0.00  0.00    -0.240 OA
ATOM     19  O   UNL     1      -3.750  -0.721   3.187  0.00  0.00    -0.240 OA
ENDBRANCH  14  17
ENDBRANCH   7  10
ENDBRANCH   5   7
ENDBRANCH   3   5
BRANCH   1  20
ATOM     20  C   UNL     1      -1.199   5.303  -2.869  0.00  0.00    +0.325 C 
BRANCH  20  21
ATOM     21  O   UNL     1      -0.747   5.713  -4.162  0.00  0.00    -0.483 OA
BRANCH  21  25
ATOM     22  C   UNL     1      -1.421   9.647  -5.220  0.00  0.00    -0.018 A 
ATOM     23  C   UNL     1      -0.778   8.784  -6.108  0.00  0.00    +0.012 A 
ATOM     24  C   UNL     1      -0.554   7.471  -5.751  0.00  0.00    +0.046 A 
ATOM     25  C   UNL     1      -0.969   7.008  -4.510  0.00  0.00    +0.121 A 
ATOM     26  C   UNL     1      -1.613   7.862  -3.625  0.00  0.00    +0.046 A 
ATOM     27  C   UNL     1      -1.835   9.178  -3.974  0.00  0.00    +0.012 A 
BRANCH  22  30
ATOM     28  C   UNL     1      -2.532  13.231  -5.062  0.00  0.00    +0.019 A 
ATOM     29  C   UNL     1      -2.307  11.919  -4.710  0.00  0.00    +0.010 A 
ATOM     30  C   UNL     1      -1.663  11.058  -5.600  0.00  0.00    -0.018 A 
ATOM     31  C   UNL     1      -1.243  11.527  -6.846  0.00  0.00    +0.010 A 
ATOM     32  C   UNL     1      -1.473  12.836  -7.203  0.00  0.00    +0.019 A 
ATOM     33  C   UNL     1      -2.117  13.700  -6.312  0.00  0.00    +0.052 A 
BRANCH  33  34
ATOM     34  C   UNL     1      -2.350  15.064  -6.679  0.00  0.00    +0.099 C 
ATOM     35  N   UNL     1      -2.535  16.146  -6.970  0.00  0.00    -0.191 NA
ENDBRANCH  33  34
ENDBRANCH  22  30
ENDBRANCH  21  25
ENDBRANCH  20  21
ENDBRANCH   1  20
TORSDOF 9
