REMARK  Name = ZINC09451981
REMARK  12 active torsions:
REMARK  status: ('A' for Active; 'I' for Inactive)
REMARK    1  A    between atoms: C_1  and  C_2
REMARK    2  A    between atoms: C_2  and  O_3
REMARK    3  A    between atoms: O_3  and  C_4
REMARK    4  A    between atoms: C_7  and  C_13
REMARK    5  A    between atoms: C_9  and  O_10
REMARK    6  A    between atoms: O_10  and  C_11
REMARK    7  A    between atoms: C_11  and  C_12
REMARK    8  A    between atoms: C_15  and  C_16
REMARK    9  A    between atoms: C_16  and  C_17
REMARK   10  A    between atoms: C_24  and  C_27
REMARK   11  A    between atoms: N_33  and  C_34
REMARK   12  A    between atoms: C_34  and  C_35
REMARK                            x       y       z     vdW  Elec       q    Type
REMARK                         _______ _______ _______ _____ _____    ______ ____
ROOT
ATOM      1  C   UNL     1      -1.839  -6.351  -0.114  0.00  0.00    +0.145 C 
ATOM      2  C   UNL     1      -1.690  -6.947  -1.494  0.00  0.00    +0.076 C 
ATOM      3  C   UNL     1      -0.641  -7.801  -1.439  0.00  0.00    +0.249 C 
ATOM      4  O   UNL     1      -0.177  -8.540  -2.473  0.00  0.00    -0.282 OA
ATOM      5  C   UNL     1      -0.084  -7.797  -0.070  0.00  0.00    +0.288 C 
ATOM      6  O   UNL     1       0.865  -8.461   0.298  0.00  0.00    -0.266 OA
ATOM      7  N   UNL     1      -0.782  -6.950   0.708  0.00  0.00    -0.276 N 
ENDROOT
BRANCH   1  11
ATOM      8  C   UNL     1      -1.335  -2.107  -0.283  0.00  0.00    +0.162 A 
ATOM      9  C   UNL     1      -0.227  -2.938  -0.231  0.00  0.00    +0.050 A 
ATOM     10  C   UNL     1      -0.394  -4.309  -0.176  0.00  0.00    +0.009 A 
ATOM     11  C   UNL     1      -1.664  -4.855  -0.173  0.00  0.00    -0.019 A 
ATOM     12  C   UNL     1      -2.773  -4.032  -0.226  0.00  0.00    +0.055 A 
ATOM     13  C   UNL     1      -2.614  -2.656  -0.275  0.00  0.00    +0.162 A 
BRANCH   8  14
ATOM     14  O   UNL     1      -1.173  -0.758  -0.337  0.00  0.00    -0.489 OA
BRANCH  14  16
ATOM     15  C   UNL     1       0.150   1.263  -0.405  0.00  0.00    +0.048 C 
ATOM     16  C   UNL     1       0.168  -0.265  -0.342  0.00  0.00    +0.226 C 
ENDBRANCH  14  16
ENDBRANCH   8  14
BRANCH  13  17
ATOM     17  O   UNL     1      -3.704  -1.845  -0.320  0.00  0.00    -0.489 OA
BRANCH  17  18
ATOM     18  C   UNL     1      -4.984  -2.471  -0.205  0.00  0.00    +0.226 C 
ATOM     19  C   UNL     1      -6.082  -1.422  -0.390  0.00  0.00    +0.048 C 
ENDBRANCH  17  18
ENDBRANCH  13  17
ENDBRANCH   1  11
BRANCH   2  20
ATOM     20  C   UNL     1      -2.520  -6.656  -2.667  0.00  0.00    +0.195 C 
ATOM     21  O   UNL     1      -2.040  -6.077  -3.624  0.00  0.00    -0.287 OA
BRANCH  20  22
ATOM     22  C   UNL     1      -3.938  -7.066  -2.688  0.00  0.00    +0.023 A 
ATOM     23  C   UNL     1      -4.518  -7.653  -1.559  0.00  0.00    +0.015 A 
ATOM     24  C   UNL     1      -5.840  -8.030  -1.578  0.00  0.00    +0.046 A 
ATOM     25  C   UNL     1      -6.615  -7.832  -2.723  0.00  0.00    +0.124 A 
ATOM     26  C   UNL     1      -6.030  -7.254  -3.846  0.00  0.00    -0.002 A 
ATOM     27  C   UNL     1      -4.714  -6.864  -3.834  0.00  0.00    +0.019 A 
ATOM     28  C   UNL     1      -7.098  -7.194  -4.921  0.00  0.00    +0.083 C 
ATOM     29  C   UNL     1      -8.170  -8.159  -4.361  0.00  0.00    +0.175 C 
ATOM     30  O   UNL     1      -7.926  -8.119  -2.945  0.00  0.00    -0.488 OA
ATOM     31  C   UNL     1      -7.966  -9.572  -4.910  0.00  0.00    +0.052 C 
ENDBRANCH  20  22
ENDBRANCH   2  20
BRANCH   7  32
ATOM     32  C   UNL     1      -0.530  -6.676   2.125  0.00  0.00    +0.183 C 
BRANCH  32  33
ATOM     33  C   UNL     1      -1.324  -7.637   2.972  0.00  0.00    +0.122 A 
ATOM     34  C   UNL     1      -0.900  -8.838   3.406  0.00  0.00    +0.046 A 
ATOM     35  C   UNL     1      -1.956  -9.397   4.160  0.00  0.00    +0.041 A 
ATOM     36  C   UNL     1      -2.963  -8.505   4.143  0.00  0.00    +0.195 A 
ATOM     37  O   UNL     1      -2.572  -7.438   3.426  0.00  0.00    -0.466 OA
ENDBRANCH  32  33
ENDBRANCH   7  32
TORSDOF 9
