REMARK  Name = ZINC45446835
REMARK  13 active torsions:
REMARK  status: ('A' for Active; 'I' for Inactive)
REMARK    1  A    between atoms: C_1  and  C_2
REMARK    2  A    between atoms: C_2  and  O_3
REMARK    3  A    between atoms: O_3  and  C_4
REMARK    4  A    between atoms: C_4  and  C_6
REMARK    5  A    between atoms: C_7  and  C_19
REMARK    6  A    between atoms: C_12  and  C_14
REMARK    7  A    between atoms: C_19  and  O_20
REMARK    8  A    between atoms: O_20  and  C_21
REMARK    9  A    between atoms: C_21  and  C_23
REMARK   10  A    between atoms: C_25  and  C_34
REMARK   11  A    between atoms: C_26  and  C_33
REMARK   12  A    between atoms: C_27  and  S_29
REMARK   13  A    between atoms: S_29  and  N_32
REMARK                            x       y       z     vdW  Elec       q    Type
REMARK                         _______ _______ _______ _____ _____    ______ ____
ROOT
ATOM      1  C   UNL     1       1.328  -2.340  -2.531  0.00  0.00    +0.084 C 
ATOM      2  C   UNL     1       1.628  -3.654  -2.615  0.00  0.00    +0.061 C 
ATOM      3  N   UNL     1       2.354  -4.146  -3.661  0.00  0.00    -0.269 N 
ATOM      4  C   UNL     1       2.818  -3.390  -4.664  0.00  0.00    +0.305 C 
ATOM      5  O   UNL     1       3.456  -3.919  -5.553  0.00  0.00    -0.252 OA
ATOM      6  N   UNL     1       2.600  -2.061  -4.720  0.00  0.00    -0.285 N 
ATOM      7  C   UNL     1       1.820  -1.433  -3.641  0.00  0.00    +0.179 C 
ATOM      8  H   UNL     1       2.545  -5.097  -3.679  0.00  0.00    +0.156 HD
ATOM      9  H   UNL     1       2.946  -1.532  -5.456  0.00  0.00    +0.151 HD
ENDROOT
BRANCH   7  10
ATOM     10  C   UNL     1       0.621  -0.761  -4.258  0.00  0.00    +0.130 A 
ATOM     11  C   UNL     1       0.203   0.492  -4.003  0.00  0.00    +0.047 A 
ATOM     12  C   UNL     1      -0.949   0.709  -4.793  0.00  0.00    +0.041 A 
ATOM     13  C   UNL     1      -1.166  -0.425  -5.484  0.00  0.00    +0.195 A 
ATOM     14  O   UNL     1      -0.209  -1.309  -5.160  0.00  0.00    -0.466 OA
ENDBRANCH   7  10
BRANCH   1  15
ATOM     15  C   UNL     1       0.575  -1.829  -1.448  0.00  0.00    +0.339 C 
ATOM     16  O   UNL     1       1.137  -1.261  -0.531  0.00  0.00    -0.245 OA
BRANCH  15  17
ATOM     17  O   UNL     1      -0.767  -1.972  -1.433  0.00  0.00    -0.462 OA
BRANCH  17  19
ATOM     18  C   UNL     1      -2.964  -1.688  -0.466  0.00  0.00    +0.048 C 
ATOM     19  C   UNL     1      -1.464  -1.432  -0.308  0.00  0.00    +0.229 C 
ENDBRANCH  17  19
ENDBRANCH  15  17
ENDBRANCH   1  15
BRANCH   2  20
ATOM     20  C   UNL     1       1.153  -4.593  -1.536  0.00  0.00    +0.283 C 
BRANCH  20  21
ATOM     21  O   UNL     1       0.209  -5.513  -2.086  0.00  0.00    -0.455 OA
BRANCH  21  22
ATOM     22  C   UNL     1      -0.316  -6.427  -1.247  0.00  0.00    +0.340 C 
ATOM     23  O   UNL     1       0.019  -6.442  -0.079  0.00  0.00    -0.245 OA
BRANCH  22  24
ATOM     24  C   UNL     1      -1.299  -7.410  -1.746  0.00  0.00    +0.061 A 
ATOM     25  C   UNL     1      -1.682  -7.400  -3.089  0.00  0.00    +0.018 A 
ATOM     26  C   UNL     1      -2.600  -8.321  -3.548  0.00  0.00    -0.045 A 
ATOM     27  C   UNL     1      -3.141  -9.254  -2.682  0.00  0.00    -0.021 A 
ATOM     28  C   UNL     1      -2.766  -9.270  -1.350  0.00  0.00    +0.109 A 
ATOM     29  C   UNL     1      -1.844  -8.358  -0.878  0.00  0.00    +0.043 A 
ATOM     30  C   UNL     1      -4.144 -10.258  -3.191  0.00  0.00    +0.046 C 
ATOM     31  C   UNL     1      -3.015  -8.310  -4.997  0.00  0.00    +0.044 C 
BRANCH  28  32
ATOM     32  S   UNL     1      -3.463 -10.462  -0.255  0.00  0.00    +0.056 S 
ATOM     33  O   UNL     1      -3.345 -11.723  -0.900  0.00  0.00    -0.153 OA
ATOM     34  O   UNL     1      -2.908 -10.208   1.028  0.00  0.00    -0.153 OA
BRANCH  32  35
ATOM     35  N   UNL     1      -5.083 -10.137  -0.144  0.00  0.00    -0.204 NA
ATOM     36  H   UNL     1      -5.464  -9.396  -0.640  0.00  0.00    +0.144 HD
ATOM     37  H   UNL     1      -5.650 -10.688   0.418  0.00  0.00    +0.144 HD
ENDBRANCH  32  35
ENDBRANCH  28  32
ENDBRANCH  22  24
ENDBRANCH  21  22
ENDBRANCH  20  21
ENDBRANCH   2  20
TORSDOF 10
