REMARK  Name = ZINC39994304
REMARK  10 active torsions:
REMARK  status: ('A' for Active; 'I' for Inactive)
REMARK    1  A    between atoms: C_1  and  C_2
REMARK    2  A    between atoms: C_5  and  C_37
REMARK    3  A    between atoms: C_6  and  N_8
REMARK    4  A    between atoms: C_9  and  C_11
REMARK    5  A    between atoms: C_11  and  C_35
REMARK    6  A    between atoms: C_12  and  C_13
REMARK    7  A    between atoms: C_14  and  N_25
REMARK    8  A    between atoms: C_17  and  C_24
REMARK    9  A    between atoms: C_27  and  C_34
REMARK   10  A    between atoms: C_30  and  C_33
REMARK                            x       y       z     vdW  Elec       q    Type
REMARK                         _______ _______ _______ _____ _____    ______ ____
ROOT
ATOM      1  C   UNL     1       0.352  -3.292   6.989  0.00  0.00    +0.081 A 
ATOM      2  C   UNL     1       0.479  -2.778   8.305  0.00  0.00    +0.136 A 
ATOM      3  N   UNL     1       0.557  -3.617   9.327  0.00  0.00    -0.213 NA
ATOM      4  C   UNL     1       0.520  -4.939   9.154  0.00  0.00    +0.145 A 
ATOM      5  C   UNL     1       0.607  -5.777  10.279  0.00  0.00    -0.007 A 
ATOM      6  C   UNL     1       0.570  -7.131  10.114  0.00  0.00    +0.008 A 
ATOM      7  C   UNL     1       0.445  -7.667   8.826  0.00  0.00    +0.019 A 
ATOM      8  C   UNL     1       0.363  -6.845   7.755  0.00  0.00    +0.096 A 
ATOM      9  N   UNL     1       0.399  -5.491   7.910  0.00  0.00    -0.267 N 
ATOM     10  C   UNL     1       0.308  -4.700   6.819  0.00  0.00    +0.267 A 
ATOM     11  O   UNL     1       0.195  -5.187   5.708  0.00  0.00    -0.267 OA
ATOM     12  C   UNL     1       0.742  -5.185  11.658  0.00  0.00    +0.047 C 
ENDROOT
BRANCH   2  13
ATOM     13  N   UNL     1       0.522  -1.420   8.518  0.00  0.00    -0.314 N 
ATOM     14  C   UNL     1      -0.294  -0.509   7.704  0.00  0.00    +0.109 C 
ATOM     15  C   UNL     1      -1.127   0.375   8.637  0.00  0.00    +0.004 C 
ATOM     16  C   UNL     1      -0.199   1.079   9.630  0.00  0.00    +0.009 C 
ATOM     17  C   UNL     1       0.531   0.035  10.477  0.00  0.00    +0.004 C 
ATOM     18  C   UNL     1       1.378  -0.853   9.569  0.00  0.00    +0.109 C 
ATOM     19  C   UNL     1      -0.493  -0.827  11.218  0.00  0.00    +0.009 C 
ATOM     20  C   UNL     1      -1.881   1.420   7.812  0.00  0.00    +0.009 C 
ENDBRANCH   2  13
BRANCH   1  22
ATOM     21  C   UNL     1      -0.813  -2.518   5.014  0.00  0.00    +0.114 C 
ATOM     22  C   UNL     1       0.267  -2.429   5.883  0.00  0.00    +0.040 C 
BRANCH  21  24
ATOM     23  N   UNL     1      -1.892  -1.790   2.954  0.00  0.00    -0.281 N 
ATOM     24  C   UNL     1      -0.844  -1.703   3.796  0.00  0.00    +0.259 C 
ATOM     25  O   UNL     1       0.078  -0.948   3.546  0.00  0.00    -0.269 OA
ATOM     26  H   UNL     1      -2.665  -2.324   3.194  0.00  0.00    +0.155 HD
BRANCH  23  32
ATOM     27  C   UNL     1       0.692   0.249  -0.698  0.00  0.00    +0.044 C 
ATOM     28  C   UNL     1      -0.626  -0.108  -0.061  0.00  0.00    -0.049 A 
ATOM     29  C   UNL     1      -1.811   0.236  -0.685  0.00  0.00    +0.004 A 
ATOM     30  C   UNL     1      -3.022  -0.090  -0.104  0.00  0.00    +0.005 A 
ATOM     31  C   UNL     1      -3.053  -0.762   1.102  0.00  0.00    -0.029 A 
ATOM     32  C   UNL     1      -1.865  -1.110   1.732  0.00  0.00    +0.037 A 
ATOM     33  C   UNL     1      -0.649  -0.785   1.143  0.00  0.00    +0.027 A 
ATOM     34  C   UNL     1      -4.373  -1.116   1.735  0.00  0.00    +0.045 C 
ENDBRANCH  23  32
ENDBRANCH  21  24
BRANCH  21  35
ATOM     35  C   UNL     1      -1.897  -3.407   5.309  0.00  0.00    +0.104 C 
ATOM     36  N   UNL     1      -2.757  -4.112   5.542  0.00  0.00    -0.191 NA
ENDBRANCH  21  35
ENDBRANCH   1  22
TORSDOF 5
