REMARK  Name = ZINC01878213
REMARK  3 active torsions:
REMARK  status: ('A' for Active; 'I' for Inactive)
REMARK    1  A    between atoms: C_1  and  C_2
REMARK    2  A    between atoms: C_2  and  C_3
REMARK    3  A    between atoms: N_12  and  C_13
REMARK                            x       y       z     vdW  Elec       q    Type
REMARK                         _______ _______ _______ _____ _____    ______ ____
ROOT
ATOM      1  C   UNL     1       0.226  -0.821   1.206  0.00  0.00    +0.125 A 
ATOM      2  C   UNL     1       0.283  -0.175   2.457  0.00  0.00    +0.267 A 
ATOM      3  N   UNL     1       0.441  -0.921   3.581  0.00  0.00    -0.274 N 
ATOM      4  C   UNL     1       0.542  -2.259   3.509  0.00  0.00    +0.329 A 
ATOM      5  N   UNL     1       0.492  -2.908   2.333  0.00  0.00    -0.274 N 
ATOM      6  C   UNL     1       0.330  -2.225   1.170  0.00  0.00    +0.267 A 
ATOM      7  O   UNL     1       0.280  -2.824   0.102  0.00  0.00    -0.267 OA
ATOM      8  O   UNL     1       0.683  -2.899   4.533  0.00  0.00    -0.247 OA
ATOM      9  O   UNL     1       0.191   1.045   2.530  0.00  0.00    -0.267 OA
ATOM     10  H   UNL     1       0.481  -0.483   4.445  0.00  0.00    +0.173 HD
ATOM     11  H   UNL     1       0.570  -3.874   2.314  0.00  0.00    +0.173 HD
ENDROOT
BRANCH   1  13
ATOM     12  C   UNL     1       0.068   1.456   0.018  0.00  0.00    +0.066 C 
ATOM     13  C   UNL     1       0.056  -0.050  -0.027  0.00  0.00    +0.057 C 
ATOM     14  N   UNL     1      -0.105  -0.669  -1.167  0.00  0.00    -0.249 NA
BRANCH  14  15
ATOM     15  C   UNL     1      -0.119   0.043  -2.336  0.00  0.00    +0.099 A 
ATOM     16  C   UNL     1       0.920   0.929  -2.630  0.00  0.00    +0.030 A 
ATOM     17  C   UNL     1       0.900   1.643  -3.810  0.00  0.00    +0.002 A 
ATOM     18  C   UNL     1      -0.147   1.485  -4.702  0.00  0.00    +0.003 A 
ATOM     19  C   UNL     1      -1.180   0.610  -4.418  0.00  0.00    +0.040 A 
ATOM     20  C   UNL     1      -1.171  -0.117  -3.244  0.00  0.00    +0.149 A 
ATOM     21  F   UNL     1      -2.177  -0.975  -2.970  0.00  0.00    -0.203 F 
ENDBRANCH  14  15
ENDBRANCH   1  13
TORSDOF 2
