REMARK  Name = ZINC20814959
REMARK  9 active torsions:
REMARK  status: ('A' for Active; 'I' for Inactive)
REMARK    1  A    between atoms: C_1  and  C_2
REMARK    2  A    between atoms: C_2  and  N_3
REMARK    3  A    between atoms: N_3  and  C_4
REMARK    4  A    between atoms: N_3  and  C_11
REMARK    5  A    between atoms: C_4  and  C_5
REMARK    6  A    between atoms: C_11  and  C_12
REMARK    7  A    between atoms: N_17  and  C_18
REMARK    8  A    between atoms: C_21  and  C_25
REMARK    9  A    between atoms: C_23  and  C_24
REMARK                            x       y       z     vdW  Elec       q    Type
REMARK                         _______ _______ _______ _____ _____    ______ ____
ROOT
ATOM      1  C   UNL     1       2.337   1.302  -0.061  0.00  0.00    +0.204 C 
ATOM      2  O   UNL     1       2.332   0.090  -0.066  0.00  0.00    -0.277 OA
ATOM      3  N   UNL     1       1.172   1.980  -0.059  0.00  0.00    -0.241 N 
ATOM      4  C   UNL     1       0.002   1.311  -0.061  0.00  0.00    +0.310 C 
ATOM      5  O   UNL     1      -0.002   0.095  -0.066  0.00  0.00    -0.252 OA
ATOM      6  N   UNL     1      -1.163   1.989  -0.064  0.00  0.00    -0.269 N 
ATOM      7  H   UNL     1       1.176   3.080  -0.055  0.00  0.00    +0.159 HD
ATOM      8  H   UNL     1      -1.162   3.084   0.034  0.00  0.00    +0.156 HD
ENDROOT
BRANCH   6   9
ATOM      9  C   UNL     1      -2.373   1.299  -0.193  0.00  0.00    +0.038 A 
ATOM     10  C   UNL     1      -2.404   0.057  -0.813  0.00  0.00    +0.024 A 
ATOM     11  C   UNL     1      -3.601  -0.622  -0.938  0.00  0.00    +0.005 A 
ATOM     12  C   UNL     1      -4.767  -0.065  -0.445  0.00  0.00    -0.050 A 
ATOM     13  C   UNL     1      -4.740   1.171   0.173  0.00  0.00    +0.008 A 
ATOM     14  C   UNL     1      -3.546   1.853   0.305  0.00  0.00    -0.029 A 
ATOM     15  C   UNL     1      -3.516   3.198   0.984  0.00  0.00    +0.045 C 
ATOM     16  C   UNL     1      -6.071  -0.809  -0.583  0.00  0.00    +0.044 C 
ENDBRANCH   6   9
BRANCH   1  17
ATOM     17  C   UNL     1       3.644   2.051  -0.059  0.00  0.00    +0.019 C 
BRANCH  17  18
ATOM     18  N   UNL     1       4.757   1.093  -0.062  0.00  0.00    +0.388 N 
ATOM     19  H   UNL     1       4.593   0.381   0.760  0.00  0.00    -0.081 HD
BRANCH  18  21
ATOM     20  C   UNL     1       5.093   1.281  -2.481  0.00  0.00    -0.017 C 
ATOM     21  C   UNL     1       4.793   0.332  -1.319  0.00  0.00    -0.081 C 
ENDBRANCH  18  21
BRANCH  18  22
ATOM     22  C   UNL     1       6.038   1.772   0.179  0.00  0.00    -0.035 C 
BRANCH  22  23
ATOM     23  C   UNL     1       7.136   0.747   0.294  0.00  0.00    -0.026 A 
ATOM     24  C   UNL     1       7.984   0.293  -0.661  0.00  0.00    +0.010 A 
ATOM     25  C   UNL     1       8.925  -0.662  -0.324  0.00  0.00    +0.023 A 
ATOM     26  C   UNL     1       8.971  -1.117   0.953  0.00  0.00    +0.055 A 
ATOM     27  S   UNL     1       7.663  -0.180   1.726  0.00  0.00    -0.088 S 
ATOM     28 BR   UNL     1      10.127  -2.404   1.718  0.00  0.00    -0.043 Br
ENDBRANCH  22  23
ENDBRANCH  18  22
ENDBRANCH  17  18
ENDBRANCH   1  17
TORSDOF 6
