REMARK  Name = ZINC35788730
REMARK  8 active torsions:
REMARK  status: ('A' for Active; 'I' for Inactive)
REMARK    1  A    between atoms: C_1  and  C_2
REMARK    2  A    between atoms: C_5  and  C_39
REMARK    3  A    between atoms: C_6  and  C_8
REMARK    4  A    between atoms: C_11  and  C_14
REMARK    5  A    between atoms: C_23  and  C_25
REMARK    6  A    between atoms: C_25  and  N_26
REMARK    7  A    between atoms: C_29  and  C_32
REMARK    8  A    between atoms: C_32  and  C_33
REMARK                            x       y       z     vdW  Elec       q    Type
REMARK                         _______ _______ _______ _____ _____    ______ ____
ROOT
ATOM      1  C   UNL     1       0.515  -2.651   2.511  0.00  0.00    +0.069 C 
ATOM      2  N   UNL     1       0.637  -3.920   2.696  0.00  0.00    -0.181 NA
ATOM      3  N   UNL     1       0.874  -4.282   4.021  0.00  0.00    -0.187 N 
ATOM      4  C   UNL     1       0.915  -3.064   4.846  0.00  0.00    +0.137 C 
ATOM      5  C   UNL     1       0.677  -1.930   3.830  0.00  0.00    +0.087 C 
ATOM      6  C   UNL     1       1.038  -5.541   4.472  0.00  0.00    +0.219 C 
ATOM      7  O   UNL     1       1.239  -5.741   5.651  0.00  0.00    -0.276 OA
ENDROOT
BRANCH   4   8
ATOM      8  C   UNL     1      -0.174  -3.092   5.887  0.00  0.00    -0.021 A 
ATOM      9  C   UNL     1      -1.418  -3.606   5.571  0.00  0.00    +0.009 A 
ATOM     10  C   UNL     1      -2.420  -3.635   6.522  0.00  0.00    +0.050 A 
ATOM     11  C   UNL     1      -2.180  -3.147   7.797  0.00  0.00    +0.166 A 
ATOM     12  C   UNL     1      -0.927  -2.630   8.116  0.00  0.00    +0.167 A 
ATOM     13  C   UNL     1       0.074  -2.610   7.159  0.00  0.00    +0.055 A 
ATOM     14  O   UNL     1      -0.944  -2.218   9.417  0.00  0.00    -0.453 OA
ATOM     15  C   UNL     1      -2.336  -2.114   9.770  0.00  0.00    +0.466 C 
ATOM     16  O   UNL     1      -2.982  -3.061   8.898  0.00  0.00    -0.453 OA
ENDBRANCH   4   8
BRANCH   1  22
ATOM     17  C   UNL     1       0.013   1.496  -0.214  0.00  0.00    +0.044 C 
ATOM     18  C   UNL     1       0.018  -0.007  -0.105  0.00  0.00    -0.050 A 
ATOM     19  C   UNL     1      -0.216  -0.781  -1.228  0.00  0.00    +0.003 A 
ATOM     20  C   UNL     1      -0.213  -2.161  -1.138  0.00  0.00    +0.004 A 
ATOM     21  C   UNL     1       0.023  -2.776   0.074  0.00  0.00    -0.042 A 
ATOM     22  C   UNL     1       0.261  -2.001   1.212  0.00  0.00    +0.001 A 
ATOM     23  C   UNL     1       0.262  -0.608   1.112  0.00  0.00    +0.013 A 
ATOM     24  C   UNL     1       0.025  -4.280   0.171  0.00  0.00    +0.044 C 
ENDBRANCH   1  22
BRANCH   6  25
ATOM     25  C   UNL     1       0.970  -6.700   3.511  0.00  0.00    +0.021 C 
BRANCH  25  26
ATOM     26  N   UNL     1       1.178  -7.956   4.245  0.00  0.00    +0.385 N 
ATOM     27  C   UNL     1       0.073  -8.159   5.189  0.00  0.00    -0.078 C 
ATOM     28  C   UNL     1       0.325  -9.424   6.012  0.00  0.00    -0.015 C 
ATOM     29  C   UNL     1       0.422 -10.628   5.071  0.00  0.00    -0.010 C 
ATOM     30  C   UNL     1       1.529 -10.373   4.044  0.00  0.00    -0.015 C 
ATOM     31  C   UNL     1       1.232  -9.073   3.293  0.00  0.00    -0.078 C 
ATOM     32  H   UNL     1       2.048  -7.907   4.754  0.00  0.00    -0.081 HD
BRANCH  29  33
ATOM     33  C   UNL     1       0.753 -11.884   5.879  0.00  0.00    +0.038 C 
BRANCH  33  34
ATOM     34  C   UNL     1       0.727 -13.087   4.972  0.00  0.00    -0.047 A 
ATOM     35  C   UNL     1      -0.450 -13.789   4.789  0.00  0.00    +0.003 A 
ATOM     36  C   UNL     1      -0.473 -14.893   3.957  0.00  0.00    +0.000 A 
ATOM     37  C   UNL     1       0.679 -15.293   3.307  0.00  0.00    +0.000 A 
ATOM     38  C   UNL     1       1.855 -14.591   3.489  0.00  0.00    +0.000 A 
ATOM     39  C   UNL     1       1.878 -13.485   4.318  0.00  0.00    +0.003 A 
ENDBRANCH  33  34
ENDBRANCH  29  33
ENDBRANCH  25  26
ENDBRANCH   6  25
TORSDOF 6
