REMARK  Name = ZINC32927965
REMARK  11 active torsions:
REMARK  status: ('A' for Active; 'I' for Inactive)
REMARK    1  A    between atoms: C_1  and  N_2
REMARK    2  A    between atoms: N_2  and  C_3
REMARK    3  A    between atoms: N_2  and  C_4
REMARK    4  A    between atoms: C_4  and  C_6
REMARK    5  A    between atoms: C_4  and  C_29
REMARK    6  A    between atoms: C_6  and  N_7
REMARK    7  A    between atoms: C_8  and  C_10
REMARK    8  A    between atoms: C_10  and  S_11
REMARK    9  A    between atoms: S_11  and  C_12
REMARK   10  A    between atoms: N_25  and  C_26
REMARK   11  A    between atoms: C_26  and  C_27
REMARK                            x       y       z     vdW  Elec       q    Type
REMARK                         _______ _______ _______ _____ _____    ______ ____
ROOT
ATOM      1  S   UNL     1      -5.621   6.467   3.045  0.00  0.00    -0.076 S 
ENDROOT
BRANCH   1   2
ATOM      2  C   UNL     1      -4.101   6.082   2.241  0.00  0.00    +0.198 A 
ATOM      3  N   UNL     1      -3.762   6.434   1.025  0.00  0.00    -0.120 NA
ATOM      4  N   UNL     1      -2.481   5.932   0.769  0.00  0.00    -0.109 NA
ATOM      5  C   UNL     1      -2.073   5.287   1.839  0.00  0.00    +0.240 A 
ATOM      6  N   UNL     1      -3.067   5.364   2.777  0.00  0.00    -0.256 N 
ATOM      7  C   UNL     1      -2.911   4.763   4.025  0.00  0.00    +0.064 A 
ATOM      8  C   UNL     1      -3.912   4.836   4.981  0.00  0.00    +0.027 A 
ATOM      9  C   UNL     1      -3.733   4.232   6.210  0.00  0.00    +0.002 A 
ATOM     10  C   UNL     1      -2.559   3.553   6.498  0.00  0.00    +0.001 A 
ATOM     11  C   UNL     1      -1.554   3.470   5.558  0.00  0.00    +0.015 A 
ATOM     12  C   UNL     1      -1.723   4.076   4.314  0.00  0.00    +0.064 A 
ATOM     13  C   UNL     1      -0.674   4.006   3.279  0.00  0.00    +0.263 A 
ATOM     14  O   UNL     1       0.367   3.415   3.493  0.00  0.00    -0.267 OA
ATOM     15  N   UNL     1      -0.888   4.615   2.095  0.00  0.00    -0.273 N 
BRANCH  15  16
ATOM     16  C   UNL     1       0.147   4.560   1.059  0.00  0.00    +0.155 C 
BRANCH  16  17
ATOM     17  C   UNL     1       1.073   5.739   1.211  0.00  0.00    -0.013 C 
ATOM     18  C   UNL     1       2.363   5.549   1.333  0.00  0.00    +0.005 C 
ENDBRANCH  16  17
ENDBRANCH  15  16
ENDBRANCH   1   2
BRANCH   1  19
ATOM     19  C   UNL     1      -6.541   7.426   1.810  0.00  0.00    +0.173 C 
BRANCH  19  21
ATOM     20  N   UNL     1      -8.738   8.547   1.632  0.00  0.00    -0.316 N 
ATOM     21  C   UNL     1      -7.879   7.824   2.377  0.00  0.00    +0.223 C 
ATOM     22  O   UNL     1      -8.183   7.493   3.503  0.00  0.00    -0.275 OA
ATOM     23  H   UNL     1      -8.463   8.847   0.610  0.00  0.00    +0.149 HD
BRANCH  20  24
ATOM     24  C   UNL     1     -10.039   8.934   2.184  0.00  0.00    +0.089 C 
BRANCH  24  25
ATOM     25  C   UNL     1     -10.815   9.741   1.141  0.00  0.00    -0.049 C 
BRANCH  25  26
ATOM     26  C   UNL     1     -12.102  10.281   1.768  0.00  0.00    -0.023 C 
ATOM     27  C   UNL     1     -13.036   9.115   2.100  0.00  0.00    +0.002 C 
ATOM     28  C   UNL     1     -14.322   9.655   2.728  0.00  0.00    +0.000 C 
ATOM     29  C   UNL     1     -15.015  10.597   1.741  0.00  0.00    +0.000 C 
ATOM     30  C   UNL     1     -14.081  11.763   1.409  0.00  0.00    +0.000 C 
ATOM     31  C   UNL     1     -12.795  11.223   0.781  0.00  0.00    +0.002 C 
ENDBRANCH  25  26
BRANCH  25  33
ATOM     32  C   UNL     1     -10.124   8.960  -1.044  0.00  0.00    -0.096 C 
ATOM     33  N   UNL     1     -11.151   8.876   0.003  0.00  0.00    +0.379 N 
ATOM     34  C   UNL     1     -11.347   7.486   0.437  0.00  0.00    -0.096 C 
ATOM     35  H   UNL     1     -12.100   9.232  -0.425  0.00  0.00    -0.082 HD
ENDBRANCH  25  33
ENDBRANCH  24  25
ENDBRANCH  20  24
ENDBRANCH  19  21
ENDBRANCH   1  19
TORSDOF 9
