REMARK  Name = ZINC14886328
REMARK  8 active torsions:
REMARK  status: ('A' for Active; 'I' for Inactive)
REMARK    1  A    between atoms: C_1  and  N_70
REMARK    2  A    between atoms: C_2  and  C_3
REMARK    3  A    between atoms: C_2  and  N_70
REMARK    4  A    between atoms: C_6  and  O_9
REMARK    5  A    between atoms: O_9  and  C_10
REMARK    6  A    between atoms: C_16  and  C_18
REMARK    7  A    between atoms: C_24  and  C_25
REMARK    8  A    between atoms: C_24  and  N_70
REMARK                            x       y       z     vdW  Elec       q    Type
REMARK                         _______ _______ _______ _____ _____    ______ ____
ROOT
ATOM      1  C   UNL     1      -8.233   2.380  -2.823  0.00  0.00    -0.064 A 
ATOM      2  C   UNL     1      -8.565   1.198  -3.458  0.00  0.00    +0.005 A 
ATOM      3  C   UNL     1      -9.036   1.218  -4.756  0.00  0.00    +0.046 A 
ATOM      4  C   UNL     1      -9.164   2.425  -5.428  0.00  0.00    +0.121 A 
ATOM      5  C   UNL     1      -8.824   3.610  -4.790  0.00  0.00    +0.046 A 
ATOM      6  C   UNL     1      -8.360   3.585  -3.490  0.00  0.00    +0.005 A 
ENDROOT
BRANCH   1   7
ATOM      7  C   UNL     1      -7.726   2.355  -1.404  0.00  0.00    -0.043 C 
BRANCH   7   9
ATOM      8  C   UNL     1      -9.726   1.286  -0.559  0.00  0.00    -0.095 C 
ATOM      9  N   UNL     1      -8.875   2.491  -0.485  0.00  0.00    +0.384 N 
ATOM     10  H   UNL     1      -9.430   3.309  -0.763  0.00  0.00    -0.081 HD
BRANCH   9  11
ATOM     11  C   UNL     1      -8.394   2.686   0.899  0.00  0.00    -0.036 C 
BRANCH  11  12
ATOM     12  C   UNL     1      -9.567   3.041   1.776  0.00  0.00    -0.026 A 
ATOM     13  C   UNL     1     -10.363   2.215   2.471  0.00  0.00    +0.017 A 
ATOM     14  C   UNL     1     -11.450   2.772   3.263  0.00  0.00    -0.011 A 
ATOM     15  C   UNL     1     -12.400   2.095   4.064  0.00  0.00    +0.009 A 
ATOM     16  C   UNL     1     -13.356   2.784   4.741  0.00  0.00    +0.001 A 
ATOM     17  C   UNL     1     -13.437   4.169   4.674  0.00  0.00    +0.001 A 
ATOM     18  C   UNL     1     -12.528   4.867   3.904  0.00  0.00    +0.015 A 
ATOM     19  C   UNL     1     -11.558   4.178   3.208  0.00  0.00    +0.020 A 
ATOM     20  S   UNL     1     -10.227   4.657   2.137  0.00  0.00    -0.095 S 
ENDBRANCH  11  12
ENDBRANCH   9  11
ENDBRANCH   7   9
ENDBRANCH   1   7
BRANCH   4  21
ATOM     21  O   UNL     1      -9.622   2.448  -6.707  0.00  0.00    -0.489 OA
BRANCH  21  22
ATOM     22  C   UNL     1      -9.613   3.710  -7.377  0.00  0.00    +0.176 C 
ATOM     23  C   UNL     1     -10.932   4.438  -7.110  0.00  0.00    +0.063 C 
ATOM     24  C   UNL     1     -10.905   5.805  -7.801  0.00  0.00    +0.111 C 
ATOM     25  N   UNL     1     -10.602   5.609  -9.225  0.00  0.00    -0.301 N 
ATOM     26  C   UNL     1      -9.404   4.843  -9.594  0.00  0.00    +0.111 C 
ATOM     27  C   UNL     1      -9.448   3.486  -8.882  0.00  0.00    +0.063 C 
ATOM     28  C   UNL     1     -11.408   6.122 -10.175  0.00  0.00    +0.219 C 
ATOM     29  O   UNL     1     -12.330   6.846  -9.863  0.00  0.00    -0.275 OA
BRANCH  28  30
ATOM     30  C   UNL     1     -11.165   5.797 -11.627  0.00  0.00    +0.075 C 
ATOM     31  C   UNL     1      -9.963   6.597 -12.134  0.00  0.00    +0.013 C 
ATOM     32  C   UNL     1      -9.716   6.267 -13.607  0.00  0.00    +0.001 C 
ATOM     33  C   UNL     1     -10.955   6.632 -14.427  0.00  0.00    +0.000 C 
ATOM     34  C   UNL     1     -12.156   5.832 -13.920  0.00  0.00    +0.001 C 
ATOM     35  C   UNL     1     -12.404   6.162 -12.446  0.00  0.00    +0.013 C 
ENDBRANCH  28  30
ENDBRANCH  21  22
ENDBRANCH   4  21
TORSDOF 7
