REMARK  Name = ZINC39865098
REMARK  3 active torsions:
REMARK  status: ('A' for Active; 'I' for Inactive)
REMARK    1  A    between atoms: C_6  and  C_7
REMARK    2  A    between atoms: N_11  and  C_20
REMARK    3  A    between atoms: N_13  and  C_14
REMARK                            x       y       z     vdW  Elec       q    Type
REMARK                         _______ _______ _______ _____ _____    ______ ____
ROOT
ATOM      1  C   UNL     1      -1.180  -0.779   0.213  0.00  0.00    +0.028 C 
ATOM      2  C   UNL     1      -1.196  -2.125   0.040  0.00  0.00    +0.078 C 
ATOM      3  C   UNL     1      -2.347  -3.033  -0.141  0.00  0.00    +0.259 C 
ATOM      4  O   UNL     1      -3.490  -2.616  -0.152  0.00  0.00    -0.269 OA
ATOM      5  N   UNL     1      -2.077  -4.318  -0.290  0.00  0.00    -0.243 N 
ATOM      6  C   UNL     1      -0.777  -4.770  -0.274  0.00  0.00    +0.171 C 
ATOM      7  N   UNL     1      -0.338  -6.005  -0.407  0.00  0.00    -0.199 NA
ATOM      8  S   UNL     1       0.169  -3.275  -0.038  0.00  0.00    -0.049 S 
ENDROOT
BRANCH   1  14
ATOM      9  C   UNL     1       1.232  -0.639  -0.376  0.00  0.00    +0.009 A 
ATOM     10  C   UNL     1       2.425   0.050  -0.393  0.00  0.00    +0.020 A 
ATOM     11  C   UNL     1       2.503   1.322   0.152  0.00  0.00    +0.041 A 
ATOM     12  C   UNL     1       1.383   1.910   0.717  0.00  0.00    +0.020 A 
ATOM     13  C   UNL     1       0.182   1.234   0.741  0.00  0.00    +0.009 A 
ATOM     14  C   UNL     1       0.096  -0.051   0.192  0.00  0.00    -0.024 A 
ATOM     15 CL   UNL     1       4.010   2.182   0.128  0.00  0.00    -0.084 Cl
ENDBRANCH   1  14
BRANCH   5  16
ATOM     16  C   UNL     1      -3.174  -5.272  -0.473  0.00  0.00    +0.084 C 
ATOM     17  C   UNL     1      -3.876  -4.992  -1.803  0.00  0.00    +0.023 C 
ATOM     18  C   UNL     1      -5.022  -5.989  -1.995  0.00  0.00    +0.002 C 
ATOM     19  C   UNL     1      -6.023  -5.841  -0.848  0.00  0.00    +0.000 C 
ATOM     20  C   UNL     1      -5.321  -6.121   0.482  0.00  0.00    +0.002 C 
ATOM     21  C   UNL     1      -4.176  -5.124   0.674  0.00  0.00    +0.023 C 
ENDBRANCH   5  16
BRANCH   7  22
ATOM     22  C   UNL     1      -1.216  -7.040  -0.424  0.00  0.00    +0.195 A 
ATOM     23  N   UNL     1      -1.746  -7.680  -1.462  0.00  0.00    -0.230 NA
ATOM     24  C   UNL     1      -2.591  -8.674  -1.287  0.00  0.00    +0.121 A 
ATOM     25  C   UNL     1      -2.934  -9.059  -0.032  0.00  0.00    +0.068 A 
ATOM     26  S   UNL     1      -1.966  -7.915   0.943  0.00  0.00    -0.056 S 
ENDBRANCH   7  22
TORSDOF 3
