REMARK  Name = ZINC13030567
REMARK  16 active torsions:
REMARK  status: ('A' for Active; 'I' for Inactive)
REMARK    1  A    between atoms: C_1  and  C_2
REMARK    2  A    between atoms: C_5  and  N_8
REMARK    3  A    between atoms: N_8  and  C_9
REMARK    4  A    between atoms: C_9  and  C_11
REMARK    5  A    between atoms: C_9  and  C_21
REMARK    6  A    between atoms: C_14  and  O_19
REMARK    7  A    between atoms: C_15  and  O_17
REMARK    8  A    between atoms: O_17  and  C_18
REMARK    9  A    between atoms: O_19  and  C_20
REMARK   10  A    between atoms: N_23  and  C_24
REMARK   11  A    between atoms: C_24  and  C_25
REMARK   12  A    between atoms: C_25  and  C_26
REMARK   13  A    between atoms: C_26  and  C_27
REMARK   14  A    between atoms: C_26  and  C_28
REMARK   15  A    between atoms: C_29  and  C_31
REMARK   16  A    between atoms: C_31  and  N_32
REMARK                            x       y       z     vdW  Elec       q    Type
REMARK                         _______ _______ _______ _____ _____    ______ ____
ROOT
ATOM      1  N   UNL     1      -5.210   3.303  -1.878  0.00  0.00    -0.254 N 
ATOM      2  C   UNL     1      -4.545   4.397  -1.458  0.00  0.00    +0.242 C 
ATOM      3  O   UNL     1      -4.649   5.441  -2.066  0.00  0.00    -0.273 OA
ENDROOT
BRANCH   1   8
ATOM      4  C   UNL     1      -5.061  -1.462   1.197  0.00  0.00    +0.044 C 
ATOM      5  C   UNL     1      -5.101  -0.197   0.380  0.00  0.00    -0.050 A 
ATOM      6  C   UNL     1      -4.452  -0.142  -0.840  0.00  0.00    +0.005 A 
ATOM      7  C   UNL     1      -4.486   1.016  -1.591  0.00  0.00    +0.024 A 
ATOM      8  C   UNL     1      -5.173   2.127  -1.120  0.00  0.00    +0.037 A 
ATOM      9  C   UNL     1      -5.819   2.071   0.109  0.00  0.00    +0.024 A 
ATOM     10  C   UNL     1      -5.786   0.908   0.852  0.00  0.00    +0.005 A 
ENDBRANCH   1   8
BRANCH   1  11
ATOM     11  C   UNL     1      -5.970   3.343  -3.130  0.00  0.00    +0.197 C 
BRANCH  11  12
ATOM     12  C   UNL     1      -6.492   1.965  -3.445  0.00  0.00    -0.014 A 
ATOM     13  C   UNL     1      -7.307   1.312  -2.540  0.00  0.00    +0.010 A 
ATOM     14  C   UNL     1      -7.789   0.048  -2.825  0.00  0.00    +0.050 A 
ATOM     15  C   UNL     1      -7.455  -0.567  -4.021  0.00  0.00    +0.162 A 
ATOM     16  C   UNL     1      -6.633   0.090  -4.932  0.00  0.00    +0.162 A 
ATOM     17  C   UNL     1      -6.159   1.359  -4.642  0.00  0.00    +0.055 A 
BRANCH  16  18
ATOM     18  O   UNL     1      -6.302  -0.510  -6.107  0.00  0.00    -0.491 OA
ATOM     19  C   UNL     1      -5.455   0.224  -6.994  0.00  0.00    +0.277 C 
ENDBRANCH  16  18
BRANCH  15  20
ATOM     20  O   UNL     1      -7.927  -1.810  -4.303  0.00  0.00    -0.491 OA
ATOM     21  C   UNL     1      -8.764  -2.425  -3.321  0.00  0.00    +0.277 C 
ENDBRANCH  15  20
ENDBRANCH  11  12
BRANCH  11  22
ATOM     22  C   UNL     1      -7.128   4.297  -2.983  0.00  0.00    +0.238 C 
ATOM     23  O   UNL     1      -7.300   4.885  -1.936  0.00  0.00    -0.273 OA
ATOM     24  N   UNL     1      -7.971   4.497  -4.015  0.00  0.00    -0.313 N 
ATOM     25  H   UNL     1      -7.833   4.027  -4.852  0.00  0.00    +0.149 HD
BRANCH  24  26
ATOM     26  C   UNL     1      -9.096   5.424  -3.873  0.00  0.00    +0.104 C 
BRANCH  26  27
ATOM     27  C   UNL     1      -9.891   5.467  -5.179  0.00  0.00    +0.022 C 
BRANCH  27  28
ATOM     28  C   UNL     1     -11.066   6.435  -5.031  0.00  0.00    -0.016 C 
ATOM     29  C   UNL     1     -11.787   6.573  -6.373  0.00  0.00    +0.007 C 
ATOM     30  C   UNL     1     -12.041   5.897  -3.982  0.00  0.00    +0.007 C 
ENDBRANCH  27  28
ENDBRANCH  26  27
ENDBRANCH  24  26
ENDBRANCH  11  22
ENDBRANCH   1  11
BRANCH   2  31
ATOM     31  C   UNL     1      -3.672   4.324  -0.231  0.00  0.00    +0.242 C 
BRANCH  31  32
ATOM     32  N   UNL     1      -2.966   5.596  -0.058  0.00  0.00    -0.235 N 
ATOM     33  C   UNL     1      -1.738   5.932  -0.575  0.00  0.00    +0.090 A 
ATOM     34  C   UNL     1      -0.811   5.269  -1.372  0.00  0.00    +0.029 A 
ATOM     35  C   UNL     1       0.353   5.893  -1.722  0.00  0.00    +0.002 A 
ATOM     36  C   UNL     1       0.616   7.189  -1.298  0.00  0.00    +0.002 A 
ATOM     37  C   UNL     1      -0.279   7.863  -0.520  0.00  0.00    +0.032 A 
ATOM     38  C   UNL     1      -1.478   7.244  -0.142  0.00  0.00    +0.113 A 
ATOM     39  N   UNL     1      -2.529   7.645   0.601  0.00  0.00    -0.129 NA
ATOM     40  N   UNL     1      -3.410   6.710   0.669  0.00  0.00    -0.064 NA
ENDBRANCH  31  32
ENDBRANCH   2  31
TORSDOF 11
