REMARK  Name = ZINC36123406
REMARK  9 active torsions:
REMARK  status: ('A' for Active; 'I' for Inactive)
REMARK    1  A    between atoms: C_1  and  C_2
REMARK    2  A    between atoms: C_2  and  N_3
REMARK    3  A    between atoms: N_6  and  C_7
REMARK    4  A    between atoms: N_6  and  C_11
REMARK    5  A    between atoms: C_7  and  C_8
REMARK    6  A    between atoms: C_11  and  C_12
REMARK    7  A    between atoms: C_22  and  C_24
REMARK    8  A    between atoms: C_24  and  O_25
REMARK    9  A    between atoms: O_25  and  C_26
REMARK                            x       y       z     vdW  Elec       q    Type
REMARK                         _______ _______ _______ _____ _____    ______ ____
ROOT
ATOM      1  C   UNL     1       2.938  -4.173   2.062  0.00  0.00    +0.234 C 
ATOM      2  O   UNL     1       3.648  -3.385   1.474  0.00  0.00    -0.274 OA
ATOM      3  N   UNL     1       3.291  -5.471   2.139  0.00  0.00    -0.289 N 
ATOM      4  C   UNL     1       2.434  -6.436   2.844  0.00  0.00    +0.114 C 
ATOM      5  C   UNL     1       3.206  -6.966   4.063  0.00  0.00    +0.061 C 
ATOM      6  C   UNL     1       4.614  -7.251   3.651  0.00  0.00    -0.004 A 
ATOM      7  C   UNL     1       5.263  -6.820   2.536  0.00  0.00    -0.014 A 
ATOM      8  C   UNL     1       6.588  -7.224   2.388  0.00  0.00    +0.013 A 
ATOM      9  C   UNL     1       7.165  -8.011   3.325  0.00  0.00    +0.046 A 
ATOM     10  S   UNL     1       5.832  -8.226   4.495  0.00  0.00    -0.101 S 
ATOM     11  C   UNL     1       4.533  -5.944   1.513  0.00  0.00    +0.144 C 
ENDROOT
BRANCH   1  12
ATOM     12  C   UNL     1       1.661  -3.700   2.708  0.00  0.00    +0.205 C 
BRANCH  12  16
ATOM     13  N   UNL     1       0.711  -0.489   1.189  0.00  0.00    -0.299 N 
ATOM     14  C   UNL     1       0.854  -1.814   1.394  0.00  0.00    +0.303 C 
ATOM     15  O   UNL     1       0.395  -2.606   0.593  0.00  0.00    -0.253 OA
ATOM     16  N   UNL     1       1.506  -2.260   2.486  0.00  0.00    -0.277 N 
ATOM     17  H   UNL     1       1.077   0.142   1.827  0.00  0.00    +0.150 HD
BRANCH  13  19
ATOM     18  C   UNL     1      -0.019   1.526   0.010  0.00  0.00    +0.024 C 
ATOM     19  C   UNL     1       0.002  -0.004   0.002  0.00  0.00    +0.102 C 
ENDBRANCH  13  19
BRANCH  16  20
ATOM     20  C   UNL     1       2.059  -1.306   3.450  0.00  0.00    +0.113 C 
BRANCH  20  21
ATOM     21  C   UNL     1       1.009  -0.995   4.519  0.00  0.00    +0.006 C 
ATOM     22  C   UNL     1       0.498   0.445   4.609  0.00  0.00    +0.005 C 
ATOM     23  C   UNL     1       1.434  -0.104   5.688  0.00  0.00    +0.005 C 
ENDBRANCH  20  21
ENDBRANCH  16  20
ENDBRANCH  12  16
ENDBRANCH   1  12
BRANCH  11  24
ATOM     24  C   UNL     1       4.205  -6.763   0.263  0.00  0.00    +0.256 C 
BRANCH  24  25
ATOM     25  O   UNL     1       3.502  -7.948   0.641  0.00  0.00    -0.490 OA
BRANCH  25  26
ATOM     26  C   UNL     1       3.134  -8.792  -0.358  0.00  0.00    +0.123 A 
ATOM     27  C   UNL     1       3.448  -8.489  -1.675  0.00  0.00    +0.046 A 
ATOM     28  C   UNL     1       3.073  -9.347  -2.690  0.00  0.00    +0.006 A 
ATOM     29  C   UNL     1       2.385 -10.510  -2.395  0.00  0.00    +0.038 A 
ATOM     30  C   UNL     1       2.070 -10.816  -1.082  0.00  0.00    +0.127 A 
ATOM     31  C   UNL     1       2.449  -9.961  -0.062  0.00  0.00    +0.084 A 
ATOM     32  F   UNL     1       1.398 -11.952  -0.796  0.00  0.00    -0.205 F 
ENDBRANCH  25  26
ENDBRANCH  24  25
ENDBRANCH  11  24
TORSDOF 8
