REMARK  Name = ZINC09566007
REMARK  7 active torsions:
REMARK  status: ('A' for Active; 'I' for Inactive)
REMARK    1  A    between atoms: C_1  and  C_2
REMARK    2  A    between atoms: C_2  and  S_3
REMARK    3  A    between atoms: S_3  and  C_6
REMARK    4  A    between atoms: C_9  and  C_12
REMARK    5  A    between atoms: C_12  and  C_13
REMARK    6  A    between atoms: C_13  and  N_15
REMARK    7  A    between atoms: N_17  and  C_29
REMARK                            x       y       z     vdW  Elec       q    Type
REMARK                         _______ _______ _______ _____ _____    ______ ____
ROOT
ATOM      1  N   UNL     1      -0.348   4.869  -0.370  0.00  0.00    -0.156 NA
ATOM      2  C   UNL     1      -0.535   4.246   0.792  0.00  0.00    +0.166 A 
ATOM      3  N   UNL     1       0.106   4.464   1.977  0.00  0.00    -0.324 N 
ATOM      4  C   UNL     1      -0.300   3.812   3.119  0.00  0.00    +0.065 A 
ATOM      5  C   UNL     1       0.093   3.985   4.479  0.00  0.00    +0.007 A 
ATOM      6  C   UNL     1       0.753   5.138   4.927  0.00  0.00    +0.010 A 
ATOM      7  C   UNL     1       1.336   5.153   6.160  0.00  0.00    +0.001 A 
ATOM      8  C   UNL     1       1.167   4.091   7.044  0.00  0.00    +0.001 A 
ATOM      9  C   UNL     1       0.393   3.026   6.702  0.00  0.00    +0.008 A 
ATOM     10  C   UNL     1      -0.221   2.990   5.437  0.00  0.00    -0.016 A 
ATOM     11  C   UNL     1      -1.128   1.959   5.127  0.00  0.00    +0.010 A 
ATOM     12  C   UNL     1      -1.654   1.907   3.875  0.00  0.00    +0.018 A 
ATOM     13  C   UNL     1      -1.224   2.787   2.893  0.00  0.00    +0.039 A 
ATOM     14  S   UNL     1      -1.640   2.970   1.175  0.00  0.00    -0.052 S 
ATOM     15  C   UNL     1       1.241   5.390   1.961  0.00  0.00    +0.151 C 
ENDROOT
BRANCH   1  16
ATOM     16  C   UNL     1       0.668   5.711  -0.516  0.00  0.00    +0.243 C 
ATOM     17  O   UNL     1       1.811   5.298  -0.479  0.00  0.00    -0.273 OA
BRANCH  16  18
ATOM     18  C   UNL     1       0.405   7.180  -0.728  0.00  0.00    +0.133 C 
BRANCH  18  22
ATOM     19  C   UNL     1       4.120   9.252  -1.112  0.00  0.00    +0.088 A 
ATOM     20  C   UNL     1       3.494   8.742  -2.234  0.00  0.00    +0.027 A 
ATOM     21  C   UNL     1       2.292   8.071  -2.110  0.00  0.00    +0.006 A 
ATOM     22  C   UNL     1       1.715   7.911  -0.863  0.00  0.00    -0.038 A 
ATOM     23  C   UNL     1       2.339   8.426   0.258  0.00  0.00    +0.006 A 
ATOM     24  C   UNL     1       3.543   9.093   0.134  0.00  0.00    +0.027 A 
BRANCH  19  25
ATOM     25  S   UNL     1       5.653  10.106  -1.271  0.00  0.00    -0.003 S 
ATOM     26  O   UNL     1       6.291   9.943  -0.011  0.00  0.00    -0.169 OA
ATOM     27  O   UNL     1       6.240   9.580  -2.453  0.00  0.00    -0.169 OA
BRANCH  25  29
ATOM     28  C   UNL     1       6.463  12.688  -1.671  0.00  0.00    +0.028 C 
ATOM     29  C   UNL     1       5.196  11.844  -1.520  0.00  0.00    +0.168 C 
ENDBRANCH  25  29
ENDBRANCH  19  25
ENDBRANCH  18  22
ENDBRANCH  16  18
ENDBRANCH   1  16
TORSDOF 5
