REMARK  Name = ZINC08788980
REMARK  8 active torsions:
REMARK  status: ('A' for Active; 'I' for Inactive)
REMARK    1  A    between atoms: C_1  and  C_2
REMARK    2  A    between atoms: C_2  and  C_3
REMARK    3  A    between atoms: C_3  and  C_4
REMARK    4  A    between atoms: C_4  and  C_5
REMARK    5  A    between atoms: C_8  and  N_11
REMARK    6  A    between atoms: C_16  and  C_34
REMARK    7  A    between atoms: C_27  and  C_32
REMARK    8  A    between atoms: C_34  and  C_35
REMARK                            x       y       z     vdW  Elec       q    Type
REMARK                         _______ _______ _______ _____ _____    ______ ____
ROOT
ATOM      1  N   UNL     1       3.624  -0.652  -0.035  0.00  0.00    -0.210 N 
ATOM      2  C   UNL     1       3.711  -1.984   0.062  0.00  0.00    +0.228 C 
ATOM      3  O   UNL     1       2.770  -2.741   0.170  0.00  0.00    -0.275 OA
ATOM      4  C   UNL     1       5.164  -2.398   0.013  0.00  0.00    +0.074 C 
ATOM      5  C   UNL     1       5.580  -2.939   1.397  0.00  0.00    -0.049 C 
ATOM      6  C   UNL     1       6.725  -0.916   1.168  0.00  0.00    +0.050 C 
ATOM      7  C   UNL     1       5.916  -1.045  -0.128  0.00  0.00    +0.088 C 
ATOM      8  C   UNL     1       4.801  -0.025  -0.141  0.00  0.00    +0.229 C 
ATOM      9  O   UNL     1       4.950   1.175  -0.233  0.00  0.00    -0.275 OA
ATOM     10  C   UNL     1       8.055  -0.259   0.925  0.00  0.00    -0.027 A 
ATOM     11  C   UNL     1       9.133  -0.569   0.126  0.00  0.00    +0.006 A 
ATOM     12  C   UNL     1      10.246   0.252   0.116  0.00  0.00    +0.020 A 
ATOM     13  C   UNL     1      10.273   1.385   0.911  0.00  0.00    +0.046 A 
ATOM     14  C   UNL     1       9.194   1.699   1.713  0.00  0.00    -0.011 A 
ATOM     15  C   UNL     1       8.070   0.877   1.728  0.00  0.00    +0.040 A 
ATOM     16  N   UNL     1       6.873   0.981   2.441  0.00  0.00    -0.286 N 
ATOM     17  C   UNL     1       6.029  -0.032   2.167  0.00  0.00    +0.211 C 
ATOM     18  O   UNL     1       4.922  -0.199   2.634  0.00  0.00    -0.277 OA
ATOM     19  C   UNL     1       9.234   2.934   2.576  0.00  0.00    +0.047 C 
ATOM     20 CL   UNL     1      11.670   2.415   0.899  0.00  0.00    -0.083 Cl
ATOM     21  H   UNL     1       6.674   1.699   3.062  0.00  0.00    +0.155 HD
ATOM     22  N   UNL     1       6.856  -2.273   1.668  0.00  0.00    +0.394 N 
ATOM     23  H   UNL     1       7.619  -2.759   1.183  0.00  0.00    -0.083 HD
ATOM     24  H   UNL     1       7.044  -2.263   2.678  0.00  0.00    -0.083 HD
ENDROOT
BRANCH   1  28
ATOM     25  C   UNL     1      -0.017   1.377   0.008  0.00  0.00    -0.047 A 
ATOM     26  C   UNL     1       0.417   0.716   1.142  0.00  0.00    +0.005 A 
ATOM     27  C   UNL     1       1.623   0.043   1.131  0.00  0.00    +0.024 A 
ATOM     28  C   UNL     1       2.399   0.031  -0.020  0.00  0.00    +0.044 A 
ATOM     29  C   UNL     1       1.960   0.695  -1.157  0.00  0.00    +0.024 A 
ATOM     30  C   UNL     1       0.753   1.367  -1.140  0.00  0.00    +0.005 A 
BRANCH  25  31
ATOM     31  C   UNL     1      -1.331   2.116   0.025  0.00  0.00    +0.035 C 
BRANCH  31  32
ATOM     32  C   UNL     1      -2.452   1.172  -0.413  0.00  0.00    +0.004 C 
BRANCH  32  34
ATOM     33  C   UNL     1      -4.908   0.978  -0.834  0.00  0.00    +0.004 C 
ATOM     34  C   UNL     1      -3.786   1.922  -0.396  0.00  0.00    -0.003 C 
ENDBRANCH  32  34
ENDBRANCH  31  32
ENDBRANCH  25  31
ENDBRANCH   1  28
BRANCH   5  35
ATOM     35  C   UNL     1       5.742  -4.460   1.348  0.00  0.00    +0.080 C 
BRANCH  35  36
ATOM     36  C   UNL     1       6.027  -4.979   2.734  0.00  0.00    +0.209 C 
ATOM     37  O   UNL     1       6.093  -4.210   3.668  0.00  0.00    -0.276 OA
ATOM     38  N   UNL     1       6.208  -6.300   2.934  0.00  0.00    -0.329 N 
ATOM     39  H   UNL     1       6.155  -6.916   2.186  0.00  0.00    +0.145 HD
ATOM     40  H   UNL     1       6.391  -6.635   3.826  0.00  0.00    +0.145 HD
ENDBRANCH  35  36
ENDBRANCH   5  35
TORSDOF 6
