REMARK  Name = ZINC36599878
REMARK  13 active torsions:
REMARK  status: ('A' for Active; 'I' for Inactive)
REMARK    1  A    between atoms: C_1  and  C_2
REMARK    2  A    between atoms: C_2  and  C_3
REMARK    3  A    between atoms: C_3  and  C_4
REMARK    4  A    between atoms: N_6  and  C_7
REMARK    5  A    between atoms: N_6  and  C_14
REMARK    6  A    between atoms: C_7  and  C_8
REMARK    7  A    between atoms: C_11  and  C_13
REMARK    8  A    between atoms: C_14  and  C_16
REMARK    9  A    between atoms: C_14  and  C_25
REMARK   10  A    between atoms: N_27  and  C_28
REMARK   11  A    between atoms: C_28  and  S_29
REMARK   12  A    between atoms: S_29  and  C_32
REMARK   13  A    between atoms: C_35  and  C_38
REMARK                            x       y       z     vdW  Elec       q    Type
REMARK                         _______ _______ _______ _____ _____    ______ ____
ROOT
ATOM      1  C   UNL     1      -3.966  -2.219  -0.111  0.00  0.00    +0.193 C 
ENDROOT
BRANCH   1   2
ATOM      2  C   UNL     1      -4.147  -1.382   1.129  0.00  0.00    -0.015 A 
ATOM      3  C   UNL     1      -3.131  -0.545   1.551  0.00  0.00    +0.010 A 
ATOM      4  C   UNL     1      -3.293   0.225   2.687  0.00  0.00    +0.050 A 
ATOM      5  C   UNL     1      -4.475   0.159   3.407  0.00  0.00    +0.166 A 
ATOM      6  C   UNL     1      -5.498  -0.684   2.982  0.00  0.00    +0.167 A 
ATOM      7  C   UNL     1      -5.332  -1.449   1.839  0.00  0.00    +0.055 A 
ATOM      8  O   UNL     1      -6.546  -0.570   3.850  0.00  0.00    -0.453 OA
ATOM      9  C   UNL     1      -6.000   0.041   5.034  0.00  0.00    +0.466 C 
ATOM     10  O   UNL     1      -4.881   0.802   4.541  0.00  0.00    -0.453 OA
ENDBRANCH   1   2
BRANCH   1  11
ATOM     11  C   UNL     1      -4.082  -1.342  -1.331  0.00  0.00    +0.239 C 
ATOM     12  O   UNL     1      -3.191  -1.326  -2.153  0.00  0.00    -0.273 OA
ATOM     13  N   UNL     1      -5.176  -0.575  -1.508  0.00  0.00    -0.294 N 
ATOM     14  H   UNL     1      -5.889  -0.588  -0.850  0.00  0.00    +0.150 HD
BRANCH  13  15
ATOM     15  C   UNL     1      -5.289   0.278  -2.693  0.00  0.00    +0.278 C 
BRANCH  15  16
ATOM     16  S   UNL     1      -6.225  -0.595  -3.979  0.00  0.00    +0.013 S 
ATOM     17  O   UNL     1      -6.397   0.243  -5.113  0.00  0.00    -0.168 OA
ATOM     18  O   UNL     1      -5.735  -1.921  -4.126  0.00  0.00    -0.168 OA
BRANCH  16  19
ATOM     19  C   UNL     1      -7.844  -0.786  -3.311  0.00  0.00    +0.090 A 
ATOM     20  C   UNL     1      -8.156  -1.907  -2.565  0.00  0.00    +0.027 A 
ATOM     21  C   UNL     1      -9.426  -2.057  -2.040  0.00  0.00    +0.005 A 
ATOM     22  C   UNL     1     -10.384  -1.085  -2.261  0.00  0.00    -0.050 A 
ATOM     23  C   UNL     1     -10.072   0.037  -3.006  0.00  0.00    +0.005 A 
ATOM     24  C   UNL     1      -8.800   0.189  -3.527  0.00  0.00    +0.027 A 
ATOM     25  C   UNL     1     -11.769  -1.248  -1.690  0.00  0.00    +0.044 C 
ENDBRANCH  16  19
ENDBRANCH  15  16
ENDBRANCH  13  15
ENDBRANCH   1  11
BRANCH   1  28
ATOM     26  C   UNL     1      -2.319  -3.696   0.910  0.00  0.00    +0.217 C 
ATOM     27  O   UNL     1      -1.195  -4.146   0.982  0.00  0.00    -0.276 OA
ATOM     28  N   UNL     1      -2.644  -2.849  -0.086  0.00  0.00    -0.279 N 
BRANCH  26  29
ATOM     29  C   UNL     1      -3.353  -4.085   1.935  0.00  0.00    +0.096 C 
BRANCH  29  31
ATOM     30  C   UNL     1      -3.818  -5.538   3.914  0.00  0.00    +0.004 C 
ATOM     31  C   UNL     1      -2.769  -5.144   2.873  0.00  0.00    +0.006 C 
ENDBRANCH  29  31
ENDBRANCH  26  29
BRANCH  28  32
ATOM     32  C   UNL     1      -1.674  -2.557  -1.145  0.00  0.00    +0.183 C 
BRANCH  32  33
ATOM     33  C   UNL     1      -1.926  -3.465  -2.321  0.00  0.00    +0.122 A 
ATOM     34  C   UNL     1      -2.656  -3.158  -3.409  0.00  0.00    +0.046 A 
ATOM     35  C   UNL     1      -2.629  -4.291  -4.253  0.00  0.00    +0.045 A 
ATOM     36  C   UNL     1      -1.883  -5.223  -3.632  0.00  0.00    +0.102 A 
ATOM     37  O   UNL     1      -1.456  -4.714  -2.465  0.00  0.00    -0.463 OA
ATOM     38  C   UNL     1      -1.576  -6.601  -4.158  0.00  0.00    +0.086 C 
ENDBRANCH  32  33
ENDBRANCH  28  32
ENDBRANCH   1  28
TORSDOF 10
