REMARK  Name = ZINC54647882
REMARK  17 active torsions:
REMARK  status: ('A' for Active; 'I' for Inactive)
REMARK    1  A    between atoms: C_1  and  C_2
REMARK    2  A    between atoms: C_2  and  O_3
REMARK    3  A    between atoms: O_3  and  C_4
REMARK    4  A    between atoms: C_4  and  C_6
REMARK    5  A    between atoms: C_7  and  C_36
REMARK    6  A    between atoms: C_8  and  C_30
REMARK    7  A    between atoms: C_10  and  N_11
REMARK    8  A    between atoms: C_12  and  C_14
REMARK    9  A    between atoms: C_14  and  C_15
REMARK   10  A    between atoms: C_15  and  N_16
REMARK   11  A    between atoms: C_23  and  C_29
REMARK   12  A    between atoms: C_26  and  C_27
REMARK   13  A    between atoms: C_26  and  C_28
REMARK   14  A    between atoms: C_30  and  O_32
REMARK   15  A    between atoms: O_32  and  C_33
REMARK   16  A    between atoms: C_33  and  C_34
REMARK   17  A    between atoms: C_33  and  C_35
REMARK                            x       y       z     vdW  Elec       q    Type
REMARK                         _______ _______ _______ _____ _____    ______ ____
ROOT
ATOM      1  N   UNL     1      -3.036  -2.525   2.504  0.00  0.00    -0.279 N 
ATOM      2  C   UNL     1      -3.810  -2.867   3.553  0.00  0.00    +0.219 C 
ATOM      3  O   UNL     1      -4.912  -3.338   3.365  0.00  0.00    -0.275 OA
ATOM      4  H   UNL     1      -2.155  -2.148   2.654  0.00  0.00    +0.155 HD
ENDROOT
BRANCH   1   9
ATOM      5  C   UNL     1      -2.845  -2.417   0.016  0.00  0.00    +0.091 A 
ATOM      6  C   UNL     1      -3.515  -2.699  -1.166  0.00  0.00    -0.014 A 
ATOM      7  C   UNL     1      -4.768  -3.238  -1.040  0.00  0.00    +0.102 A 
ATOM      8  S   UNL     1      -4.978  -3.336   0.726  0.00  0.00    -0.066 S 
ATOM      9  C   UNL     1      -3.498  -2.709   1.216  0.00  0.00    +0.087 A 
ATOM     10  C   UNL     1      -2.898  -2.427  -2.514  0.00  0.00    +0.046 C 
BRANCH   5  11
ATOM     11  C   UNL     1      -1.497  -1.838   0.006  0.00  0.00    +0.342 C 
ATOM     12  O   UNL     1      -0.523  -2.565  -0.007  0.00  0.00    -0.245 OA
BRANCH  11  13
ATOM     13  O   UNL     1      -1.339  -0.499   0.012  0.00  0.00    -0.461 OA
BRANCH  13  15
ATOM     14  C   UNL     1      -0.019   1.526   0.010  0.00  0.00    +0.048 C 
ATOM     15  C   UNL     1       0.002  -0.004   0.002  0.00  0.00    +0.229 C 
ENDBRANCH  13  15
ENDBRANCH  11  13
ENDBRANCH   5  11
BRANCH   7  16
ATOM     16  C   UNL     1      -5.702  -3.634  -2.094  0.00  0.00    +0.346 C 
ATOM     17  O   UNL     1      -5.394  -3.495  -3.263  0.00  0.00    -0.244 OA
BRANCH  16  18
ATOM     18  O   UNL     1      -6.904  -4.152  -1.770  0.00  0.00    -0.458 OA
BRANCH  18  19
ATOM     19  C   UNL     1      -7.766  -4.516  -2.850  0.00  0.00    +0.171 C 
ATOM     20  C   UNL     1      -7.505  -5.972  -3.242  0.00  0.00    +0.052 C 
ATOM     21  C   UNL     1      -9.225  -4.360  -2.414  0.00  0.00    +0.052 C 
ENDBRANCH  18  19
ENDBRANCH  16  18
ENDBRANCH   7  16
ENDBRANCH   1   9
BRANCH   2  22
ATOM     22  C   UNL     1      -3.306  -2.665   4.959  0.00  0.00    +0.115 C 
BRANCH  22  23
ATOM     23  C   UNL     1      -4.370  -3.132   5.954  0.00  0.00    +0.125 C 
BRANCH  23  24
ATOM     24  N   UNL     1      -3.880  -2.936   7.321  0.00  0.00    -0.241 N 
ATOM     25  C   UNL     1      -3.193  -3.930   7.914  0.00  0.00    +0.225 C 
ATOM     26  O   UNL     1      -2.949  -4.950   7.307  0.00  0.00    -0.275 OA
ATOM     27  C   UNL     1      -2.725  -3.764   9.349  0.00  0.00    +0.082 C 
ATOM     28  C   UNL     1      -1.515  -2.798   9.319  0.00  0.00    +0.014 C 
ATOM     29  C   UNL     1      -2.107  -1.376   9.328  0.00  0.00    +0.017 C 
ATOM     30  C   UNL     1      -3.645  -1.555   9.363  0.00  0.00    +0.051 C 
ATOM     31  C   UNL     1      -4.126  -1.766   7.939  0.00  0.00    +0.228 C 
ATOM     32  O   UNL     1      -4.707  -0.877   7.353  0.00  0.00    -0.275 OA
ATOM     33  C   UNL     1      -3.836  -2.951  10.069  0.00  0.00    -0.010 C 
ATOM     34  C   UNL     1      -3.562  -2.850  11.571  0.00  0.00    +0.012 C 
ATOM     35  C   UNL     1      -5.220  -3.548   9.802  0.00  0.00    +0.012 C 
ATOM     36  C   UNL     1      -4.368  -0.403  10.064  0.00  0.00    +0.021 C 
ENDBRANCH  23  24
ENDBRANCH  22  23
ENDBRANCH   2  22
TORSDOF 10
