REMARK  Name = ZINC43220767
REMARK  9 active torsions:
REMARK  status: ('A' for Active; 'I' for Inactive)
REMARK    1  A    between atoms: C_1  and  C_2
REMARK    2  A    between atoms: C_6  and  N_8
REMARK    3  A    between atoms: N_8  and  C_9
REMARK    4  A    between atoms: C_9  and  C_11
REMARK    5  A    between atoms: C_9  and  C_19
REMARK    6  A    between atoms: C_16  and  O_17
REMARK    7  A    between atoms: O_17  and  C_18
REMARK    8  A    between atoms: C_23  and  N_24
REMARK    9  A    between atoms: C_25  and  C_27
REMARK                            x       y       z     vdW  Elec       q    Type
REMARK                         _______ _______ _______ _____ _____    ______ ____
ROOT
ATOM      1  C   UNL     1       0.184  -4.189   2.432  0.00  0.00    +0.138 C 
ENDROOT
BRANCH   1   2
ATOM      2  C   UNL     1      -0.433  -4.755   3.685  0.00  0.00    +0.009 A 
ATOM      3  C   UNL     1      -1.337  -5.816   3.602  0.00  0.00    -0.030 A 
ATOM      4  C   UNL     1      -1.851  -6.271   4.775  0.00  0.00    -0.005 A 
ATOM      5  S   UNL     1      -1.091  -5.241   6.002  0.00  0.00    -0.078 S 
ATOM      6  C   UNL     1      -0.107  -4.238   4.899  0.00  0.00    +0.078 A 
ATOM      7  C   UNL     1      -2.830  -7.383   4.970  0.00  0.00    +0.043 C 
ATOM      8  C   UNL     1      -3.464  -7.712   3.610  0.00  0.00    +0.005 C 
ATOM      9  C   UNL     1      -2.350  -7.833   2.566  0.00  0.00    +0.005 C 
ATOM     10  C   UNL     1      -1.749  -6.457   2.280  0.00  0.00    +0.036 C 
BRANCH   6  11
ATOM     11  N   UNL     1       0.767  -3.193   5.204  0.00  0.00    -0.273 N 
ATOM     12  C   UNL     1       0.932  -2.803   6.484  0.00  0.00    +0.284 C 
ATOM     13  O   UNL     1       0.317  -3.362   7.374  0.00  0.00    -0.266 OA
ATOM     14  H   UNL     1       1.257  -2.747   4.495  0.00  0.00    +0.156 HD
BRANCH  12  15
ATOM     15  C   UNL     1       1.850  -1.706   6.804  0.00  0.00    +0.189 A 
ATOM     16  C   UNL     1       2.112  -1.218   8.052  0.00  0.00    +0.054 A 
ATOM     17  C   UNL     1       3.044  -0.180   7.892  0.00  0.00    +0.042 A 
ATOM     18  C   UNL     1       3.306  -0.081   6.570  0.00  0.00    +0.196 A 
ATOM     19  O   UNL     1       2.588  -1.006   5.918  0.00  0.00    -0.458 OA
ENDBRANCH  12  15
ENDBRANCH   6  11
ENDBRANCH   1   2
BRANCH   1  20
ATOM     20  C   UNL     1       1.647  -4.546   2.387  0.00  0.00    +0.019 A 
ATOM     21  C   UNL     1       2.596  -3.628   2.795  0.00  0.00    +0.009 A 
ATOM     22  C   UNL     1       3.939  -3.955   2.753  0.00  0.00    +0.001 A 
ATOM     23  C   UNL     1       4.336  -5.201   2.305  0.00  0.00    +0.004 A 
ATOM     24  C   UNL     1       3.391  -6.123   1.898  0.00  0.00    +0.046 A 
ATOM     25  C   UNL     1       2.043  -5.799   1.943  0.00  0.00    +0.125 A 
BRANCH  25  26
ATOM     26  O   UNL     1       1.111  -6.707   1.548  0.00  0.00    -0.495 OA
ATOM     27  C   UNL     1       1.591  -7.977   1.102  0.00  0.00    +0.277 C 
ENDBRANCH  25  26
ENDBRANCH   1  20
BRANCH   1  28
ATOM     28  N   UNL     1       0.037  -2.732   2.430  0.00  0.00    -0.319 N 
ATOM     29  H   UNL     1      -0.105  -2.258   3.265  0.00  0.00    +0.148 HD
BRANCH  28  35
ATOM     30  C   UNL     1      -0.139   1.492   0.185  0.00  0.00    +0.063 C 
ATOM     31  C   UNL     1       0.019  -0.005   0.125  0.00  0.00    +0.014 A 
ATOM     32  C   UNL     1       0.219  -0.621  -1.094  0.00  0.00    +0.021 A 
ATOM     33  C   UNL     1       0.364  -2.001  -1.143  0.00  0.00    +0.005 A 
ATOM     34  C   UNL     1       0.304  -2.714   0.041  0.00  0.00    +0.041 A 
ATOM     35  C   UNL     1       0.100  -2.028   1.233  0.00  0.00    +0.097 A 
ATOM     36  N   UNL     1      -0.029  -0.710   1.239  0.00  0.00    -0.347 N 
ATOM     37  H   UNL     1      -0.166  -0.252   2.083  0.00  0.00    +0.167 HD
ENDBRANCH  28  35
ENDBRANCH   1  28
TORSDOF 7
