REMARK  Name = ZINC13495221
REMARK  10 active torsions:
REMARK  status: ('A' for Active; 'I' for Inactive)
REMARK    1  A    between atoms: C_1  and  C_2
REMARK    2  A    between atoms: C_2  and  C_3
REMARK    3  A    between atoms: C_3  and  C_5
REMARK    4  A    between atoms: C_3  and  N_16
REMARK    5  A    between atoms: N_9  and  C_10
REMARK    6  A    between atoms: N_16  and  C_17
REMARK    7  A    between atoms: N_16  and  C_27
REMARK    8  A    between atoms: C_17  and  C_18
REMARK    9  A    between atoms: C_27  and  C_28
REMARK   10  A    between atoms: C_34  and  C_40
REMARK                            x       y       z     vdW  Elec       q    Type
REMARK                         _______ _______ _______ _____ _____    ______ ____
ROOT
ATOM      1  N   UNL     1      -2.232  -0.404   1.643  0.00  0.00    -0.284 NA
ENDROOT
BRANCH   1   2
ATOM      2  C   UNL     1      -1.813  -1.287   0.547  0.00  0.00    +0.127 C 
BRANCH   2   3
ATOM      3  C   UNL     1      -2.086  -2.720   0.925  0.00  0.00    +0.169 A 
ATOM      4  N   UNL     1      -1.828  -3.289   2.077  0.00  0.00    -0.112 NA
ATOM      5  N   UNL     1      -2.207  -4.518   2.008  0.00  0.00    -0.023 NA
ATOM      6  N   UNL     1      -2.700  -4.749   0.842  0.00  0.00    -0.044 NA
ATOM      7  N   UNL     1      -2.649  -3.663   0.146  0.00  0.00    -0.225 N 
BRANCH   7   8
ATOM      8  C   UNL     1      -3.111  -3.491  -1.233  0.00  0.00    +0.111 C 
ATOM      9  C   UNL     1      -4.609  -3.795  -1.310  0.00  0.00    +0.027 C 
ATOM     10  C   UNL     1      -5.092  -3.614  -2.751  0.00  0.00    +0.002 C 
ATOM     11  C   UNL     1      -4.329  -4.572  -3.668  0.00  0.00    +0.000 C 
ATOM     12  C   UNL     1      -2.832  -4.268  -3.591  0.00  0.00    +0.002 C 
ATOM     13  C   UNL     1      -2.348  -4.448  -2.151  0.00  0.00    +0.027 C 
ENDBRANCH   7   8
ENDBRANCH   2   3
BRANCH   2  15
ATOM     14  C   UNL     1      -0.046   0.335  -0.152  0.00  0.00    +0.006 C 
ATOM     15  C   UNL     1      -0.316  -1.105   0.289  0.00  0.00    +0.023 C 
ENDBRANCH   2  15
ENDBRANCH   1   2
BRANCH   1  16
ATOM     16  C   UNL     1      -1.222  -0.371   2.709  0.00  0.00    +0.120 C 
BRANCH  16  17
ATOM     17  C   UNL     1      -1.838   0.185   3.967  0.00  0.00    -0.030 A 
ATOM     18  C   UNL     1      -1.692   1.526   4.272  0.00  0.00    +0.009 A 
ATOM     19  C   UNL     1      -2.255   2.042   5.424  0.00  0.00    +0.050 A 
ATOM     20  C   UNL     1      -2.967   1.215   6.278  0.00  0.00    +0.166 A 
ATOM     21  C   UNL     1      -3.114  -0.136   5.971  0.00  0.00    +0.167 A 
ATOM     22  C   UNL     1      -2.552  -0.644   4.811  0.00  0.00    +0.054 A 
ATOM     23  O   UNL     1      -3.849  -0.730   6.957  0.00  0.00    -0.453 OA
ATOM     24  C   UNL     1      -3.802   0.180   8.072  0.00  0.00    +0.466 C 
ATOM     25  O   UNL     1      -3.609   1.467   7.456  0.00  0.00    -0.453 OA
ENDBRANCH  16  17
ENDBRANCH   1  16
BRANCH   1  26
ATOM     26  C   UNL     1      -2.519   0.950   1.148  0.00  0.00    +0.126 C 
BRANCH  26  27
ATOM     27  C   UNL     1      -3.863   0.962   0.468  0.00  0.00    +0.031 A 
ATOM     28  C   UNL     1      -4.975   1.285   1.174  0.00  0.00    +0.020 A 
ATOM     29  C   UNL     1      -6.266   1.288   0.484  0.00  0.00    -0.001 A 
ATOM     30  C   UNL     1      -7.447   1.614   1.159  0.00  0.00    +0.010 A 
ATOM     31  C   UNL     1      -8.635   1.608   0.486  0.00  0.00    +0.001 A 
ATOM     32  C   UNL     1      -8.682   1.280  -0.862  0.00  0.00    +0.005 A 
ATOM     33  C   UNL     1      -7.532   0.956  -1.548  0.00  0.00    -0.026 A 
ATOM     34  C   UNL     1      -6.309   0.956  -0.883  0.00  0.00    +0.052 A 
ATOM     35  N   UNL     1      -5.143   0.636  -1.544  0.00  0.00    -0.322 N 
ATOM     36  H   UNL     1      -5.174   0.408  -2.487  0.00  0.00    +0.169 HD
ATOM     37  C   UNL     1      -3.961   0.641  -0.903  0.00  0.00    +0.254 A 
ATOM     38  O   UNL     1      -2.949   0.358  -1.521  0.00  0.00    -0.268 OA
ATOM     39  C   UNL     1      -7.597   0.601  -3.011  0.00  0.00    +0.046 C 
ENDBRANCH  26  27
ENDBRANCH   1  26
TORSDOF 8
