REMARK  Name = ZINC47133648
REMARK  8 active torsions:
REMARK  status: ('A' for Active; 'I' for Inactive)
REMARK    1  A    between atoms: C_1  and  C_2
REMARK    2  A    between atoms: C_5  and  C_8
REMARK    3  A    between atoms: N_12  and  C_16
REMARK    4  A    between atoms: C_16  and  C_17
REMARK    5  A    between atoms: C_17  and  C_18
REMARK    6  A    between atoms: C_22  and  C_26
REMARK    7  A    between atoms: C_28  and  C_33
REMARK    8  A    between atoms: C_31  and  C_32
REMARK                            x       y       z     vdW  Elec       q    Type
REMARK                         _______ _______ _______ _____ _____    ______ ____
ROOT
ATOM      1  C   UNL     1       2.068  -8.612   2.724  0.00  0.00    +0.115 C 
ENDROOT
BRANCH   1   2
ATOM      2  C   UNL     1       2.216 -10.066   3.092  0.00  0.00    +0.220 C 
ATOM      3  O   UNL     1       1.229 -10.752   3.257  0.00  0.00    -0.275 OA
ATOM      4  N   UNL     1       3.443 -10.603   3.239  0.00  0.00    -0.266 N 
ATOM      5  C   UNL     1       3.579 -11.947   3.579  0.00  0.00    +0.197 A 
ATOM      6  C   UNL     1       4.842 -12.639   3.859  0.00  0.00    +0.156 A 
ATOM      7  N   UNL     1       4.572 -13.886   4.141  0.00  0.00    -0.047 NA
ATOM      8  O   UNL     1       3.168 -14.055   4.060  0.00  0.00    -0.240 OA
ATOM      9  N   UNL     1       2.605 -12.804   3.710  0.00  0.00    -0.033 NA
ATOM     10  H   UNL     1       4.231 -10.054   3.107  0.00  0.00    +0.156 HD
BRANCH   6  11
ATOM     11  C   UNL     1       6.194 -12.028   3.826  0.00  0.00    +0.010 A 
ATOM     12  C   UNL     1       6.573 -11.227   2.750  0.00  0.00    +0.014 A 
ATOM     13  C   UNL     1       7.831 -10.661   2.726  0.00  0.00    -0.050 A 
ATOM     14  C   UNL     1       8.715 -10.886   3.766  0.00  0.00    +0.003 A 
ATOM     15  C   UNL     1       8.344 -11.681   4.836  0.00  0.00    +0.004 A 
ATOM     16  C   UNL     1       7.086 -12.248   4.873  0.00  0.00    -0.041 A 
ATOM     17  C   UNL     1       6.681 -13.108   6.043  0.00  0.00    +0.044 C 
ATOM     18  C   UNL     1       8.243  -9.795   1.563  0.00  0.00    +0.044 C 
ENDBRANCH   6  11
ENDBRANCH   1   2
BRANCH   1  19
ATOM     19  C   UNL     1       0.583  -8.259   2.622  0.00  0.00    +0.124 C 
BRANCH  19  24
ATOM     20  C   UNL     1       0.163  -4.429  -0.503  0.00  0.00    +0.028 C 
ATOM     21  C   UNL     1       0.242  -5.063   0.693  0.00  0.00    +0.077 C 
ATOM     22  C   UNL     1       0.387  -6.505   0.987  0.00  0.00    +0.258 C 
ATOM     23  O   UNL     1       0.454  -7.335   0.100  0.00  0.00    -0.269 OA
ATOM     24  N   UNL     1       0.440  -6.846   2.264  0.00  0.00    -0.255 N 
ATOM     25  C   UNL     1       0.365  -5.922   3.243  0.00  0.00    +0.121 C 
ATOM     26  S   UNL     1       0.415  -6.164   4.938  0.00  0.00    -0.027 S 
ATOM     27  S   UNL     1       0.209  -4.386   2.347  0.00  0.00    -0.061 S 
BRANCH  20  32
ATOM     28  C   UNL     1      -1.046   1.187  -0.702  0.00  0.00    +0.044 C 
ATOM     29  C   UNL     1      -0.729  -0.286  -0.650  0.00  0.00    -0.050 A 
ATOM     30  C   UNL     1      -0.208  -0.917  -1.766  0.00  0.00    +0.004 A 
ATOM     31  C   UNL     1       0.085  -2.264  -1.726  0.00  0.00    +0.008 A 
ATOM     32  C   UNL     1      -0.146  -2.992  -0.554  0.00  0.00    -0.024 A 
ATOM     33  C   UNL     1      -0.673  -2.346   0.570  0.00  0.00    +0.008 A 
ATOM     34  C   UNL     1      -0.955  -0.998   0.516  0.00  0.00    +0.004 A 
ENDBRANCH  20  32
ENDBRANCH  19  24
ENDBRANCH   1  19
TORSDOF 5
