REMARK  Name = ZINC32087703
REMARK  4 active torsions:
REMARK  status: ('A' for Active; 'I' for Inactive)
REMARK    1  A    between atoms: C_1  and  C_2
REMARK    2  A    between atoms: C_4  and  C_28
REMARK    3  A    between atoms: C_6  and  N_8
REMARK    4  A    between atoms: C_15  and  O_17
REMARK                            x       y       z     vdW  Elec       q    Type
REMARK                         _______ _______ _______ _____ _____    ______ ____
ROOT
ATOM      1  N   UNL     1       0.052  -2.798   2.394  0.00  0.00    -0.214 N 
ATOM      2  C   UNL     1       0.675  -2.419   3.533  0.00  0.00    +0.164 A 
ATOM      3  C   UNL     1       0.426  -3.405   4.482  0.00  0.00    +0.036 A 
ATOM      4  C   UNL     1      -0.349  -4.381   3.885  0.00  0.00    +0.142 A 
ATOM      5  N   UNL     1      -0.581  -4.027   2.641  0.00  0.00    -0.173 NA
ATOM      6  C   UNL     1       0.965  -3.294   5.881  0.00  0.00    +0.112 C 
ATOM      7  C   UNL     1       2.255  -2.476   5.846  0.00  0.00    +0.121 C 
ATOM      8  C   UNL     1       2.133  -1.301   4.917  0.00  0.00    +0.191 C 
ATOM      9  N   UNL     1       1.410  -1.312   3.837  0.00  0.00    -0.197 NA
ATOM     10  C   UNL     1      -0.039  -2.685   6.805  0.00  0.00    -0.006 A 
ATOM     11  C   UNL     1      -0.658  -1.453   6.801  0.00  0.00    +0.009 A 
ATOM     12  C   UNL     1      -1.560  -1.196   7.827  0.00  0.00    +0.039 A 
ATOM     13  C   UNL     1      -1.822  -2.135   8.806  0.00  0.00    +0.125 A 
ATOM     14  C   UNL     1      -1.202  -3.377   8.817  0.00  0.00    +0.062 A 
ATOM     15  C   UNL     1      -0.295  -3.646   7.792  0.00  0.00    +0.041 A 
ATOM     16  N   UNL     1       0.457  -4.785   7.560  0.00  0.00    -0.284 N 
ATOM     17  C   UNL     1       1.227  -4.667   6.457  0.00  0.00    +0.233 C 
ATOM     18  O   UNL     1       1.985  -5.503   6.014  0.00  0.00    -0.274 OA
ATOM     19  F   UNL     1      -2.707  -1.835   9.782  0.00  0.00    -0.205 F 
ATOM     20  H   UNL     1       0.433  -5.574   8.123  0.00  0.00    +0.155 HD
ENDROOT
BRANCH   1  26
ATOM     21  C   UNL     1      -0.018   1.503   0.010  0.00  0.00    +0.044 C 
ATOM     22  C   UNL     1       0.002  -0.004   0.002  0.00  0.00    -0.048 A 
ATOM     23  C   UNL     1       0.006  -0.688  -1.200  0.00  0.00    +0.006 A 
ATOM     24  C   UNL     1       0.025  -2.071  -1.212  0.00  0.00    -0.048 A 
ATOM     25  C   UNL     1       0.040  -2.773  -0.022  0.00  0.00    +0.031 A 
ATOM     26  C   UNL     1       0.037  -2.089   1.186  0.00  0.00    +0.068 A 
ATOM     27  C   UNL     1       0.023  -0.700   1.195  0.00  0.00    +0.031 A 
ATOM     28  C   UNL     1       0.028  -2.812  -2.523  0.00  0.00    +0.044 C 
ENDBRANCH   1  26
BRANCH   8  29
ATOM     29  O   UNL     1       2.811  -0.175   5.221  0.00  0.00    -0.495 OA
ATOM     30  H   UNL     1       2.689   0.541   4.583  0.00  0.00    +0.293 HD
ENDBRANCH   8  29
TORSDOF 2
