REMARK  Name = ZINC39528325
REMARK  8 active torsions:
REMARK  status: ('A' for Active; 'I' for Inactive)
REMARK    1  A    between atoms: C_4  and  C_7
REMARK    2  A    between atoms: C_7  and  C_8
REMARK    3  A    between atoms: C_10  and  S_28
REMARK    4  A    between atoms: C_13  and  N_14
REMARK    5  A    between atoms: C_18  and  C_21
REMARK    6  A    between atoms: C_21  and  C_22
REMARK    7  A    between atoms: S_28  and  O_31
REMARK    8  A    between atoms: O_31  and  C_32
REMARK                            x       y       z     vdW  Elec       q    Type
REMARK                         _______ _______ _______ _____ _____    ______ ____
ROOT
ATOM      1  C   UNL     1       4.264  -1.029   1.327  0.00  0.00    -0.020 A 
ATOM      2  C   UNL     1       5.125  -0.147   1.950  0.00  0.00    +0.036 A 
ATOM      3  C   UNL     1       5.621  -0.435   3.208  0.00  0.00    +0.128 A 
ATOM      4  C   UNL     1       5.258  -1.606   3.847  0.00  0.00    +0.032 A 
ATOM      5  C   UNL     1       4.397  -2.493   3.230  0.00  0.00    +0.025 A 
ATOM      6  C   UNL     1       3.893  -2.204   1.968  0.00  0.00    +0.033 A 
ENDROOT
BRANCH   6   7
ATOM      7  N   UNL     1       3.018  -3.096   1.343  0.00  0.00    -0.333 N 
ATOM      8  C   UNL     1       3.528  -4.238   0.569  0.00  0.00    +0.086 C 
ATOM      9  C   UNL     1       2.814  -5.507   1.047  0.00  0.00    -0.063 C 
ATOM     10  N   UNL     1       1.361  -5.313   0.955  0.00  0.00    +0.383 N 
ATOM     11  C   UNL     1       0.939  -4.251   1.877  0.00  0.00    -0.050 C 
ATOM     12  C   UNL     1       1.561  -2.923   1.446  0.00  0.00    +0.089 C 
ATOM     13  H   UNL     1       1.116  -5.054   0.011  0.00  0.00    -0.085 HD
ATOM     14  H   UNL     1       0.892  -6.173   1.198  0.00  0.00    -0.085 HD
BRANCH  11  15
ATOM     15  C   UNL     1      -0.586  -4.133   1.857  0.00  0.00    +0.021 C 
BRANCH  15  16
ATOM     16  C   UNL     1      -1.195  -5.399   2.401  0.00  0.00    -0.049 A 
ATOM     17  C   UNL     1      -1.490  -6.446   1.549  0.00  0.00    +0.003 A 
ATOM     18  C   UNL     1      -2.049  -7.608   2.049  0.00  0.00    +0.000 A 
ATOM     19  C   UNL     1      -2.313  -7.722   3.401  0.00  0.00    +0.000 A 
ATOM     20  C   UNL     1      -2.017  -6.675   4.253  0.00  0.00    +0.000 A 
ATOM     21  C   UNL     1      -1.454  -5.515   3.754  0.00  0.00    +0.003 A 
ENDBRANCH  15  16
ENDBRANCH  11  15
ENDBRANCH   6   7
BRANCH   3  22
ATOM     22  S   UNL     1       6.720   0.693   3.999  0.00  0.00    +0.151 S 
ATOM     23  O   UNL     1       7.472  -0.063   4.938  0.00  0.00    -0.131 OA
ATOM     24  O   UNL     1       7.334   1.453   2.967  0.00  0.00    -0.131 OA
BRANCH  22  25
ATOM     25  O   UNL     1       5.867   1.663   4.804  0.00  0.00    -0.342 OA
BRANCH  25  26
ATOM     26  C   UNL     1       5.357   1.133   5.947  0.00  0.00    +0.157 A 
ATOM     27  C   UNL     1       4.124   0.497   5.930  0.00  0.00    +0.048 A 
ATOM     28  C   UNL     1       3.609  -0.041   7.093  0.00  0.00    +0.004 A 
ATOM     29  C   UNL     1       4.322   0.054   8.274  0.00  0.00    +0.000 A 
ATOM     30  C   UNL     1       5.551   0.687   8.295  0.00  0.00    +0.004 A 
ATOM     31  C   UNL     1       6.073   1.221   7.133  0.00  0.00    +0.048 A 
ENDBRANCH  25  26
ENDBRANCH  22  25
ENDBRANCH   3  22
BRANCH   1  32
ATOM     32  C   UNL     1       3.724  -0.715  -0.045  0.00  0.00    +0.072 C 
BRANCH  32  36
ATOM     33  C   UNL     1       5.582   2.833  -1.530  0.00  0.00    +0.000 A 
ATOM     34  C   UNL     1       6.200   1.608  -1.697  0.00  0.00    +0.000 A 
ATOM     35  C   UNL     1       5.598   0.460  -1.216  0.00  0.00    +0.004 A 
ATOM     36  C   UNL     1       4.380   0.537  -0.568  0.00  0.00    -0.043 A 
ATOM     37  C   UNL     1       3.763   1.762  -0.400  0.00  0.00    +0.004 A 
ATOM     38  C   UNL     1       4.363   2.910  -0.882  0.00  0.00    +0.000 A 
ENDBRANCH  32  36
ENDBRANCH   1  32
TORSDOF 8
