REMARK  Name = ZINC26545070
REMARK  5 active torsions:
REMARK  status: ('A' for Active; 'I' for Inactive)
REMARK    1  A    between atoms: C_1  and  C_2
REMARK    2  A    between atoms: C_3  and  C_11
REMARK    3  A    between atoms: C_4  and  N_10
REMARK    4  A    between atoms: C_6  and  C_7
REMARK    5  A    between atoms: C_7  and  C_9
REMARK                            x       y       z     vdW  Elec       q    Type
REMARK                         _______ _______ _______ _____ _____    ______ ____
ROOT
ATOM      1  C   UNL     1       1.216   3.087  -2.514  0.00  0.00    +0.046 C 
ATOM      2  C   UNL     1       1.255   3.777  -1.175  0.00  0.00    -0.017 A 
ATOM      3  C   UNL     1       1.239   3.057   0.007  0.00  0.00    +0.095 A 
ATOM      4  C   UNL     1       1.273   3.774   1.211  0.00  0.00    +0.078 A 
ATOM      5  S   UNL     1       1.337   5.424   0.684  0.00  0.00    -0.070 S 
ATOM      6  C   UNL     1       1.310   5.157  -1.078  0.00  0.00    +0.060 A 
ENDROOT
BRANCH   6   7
ATOM      7  C   UNL     1       1.337   6.111  -2.114  0.00  0.00    +0.167 C 
ATOM      8  O   UNL     1       1.311   5.750  -3.273  0.00  0.00    -0.292 OA
ATOM      9  C   UNL     1       1.397   7.580  -1.783  0.00  0.00    +0.092 C 
ENDBRANCH   6   7
BRANCH   4  10
ATOM     10  N   UNL     1       1.260   3.288   2.495  0.00  0.00    -0.352 N 
ATOM     11  H   UNL     1       1.291   3.983   3.347  0.00  0.00    +0.143 HD
ATOM     12  H   UNL     1       1.219   2.203   2.672  0.00  0.00    +0.143 HD
ENDBRANCH   4  10
BRANCH   3  13
ATOM     13  C   UNL     1       1.182   1.591  -0.001  0.00  0.00    +0.389 C 
ATOM     14  O   UNL     1       2.211   0.943  -0.014  0.00  0.00    -0.240 OA
ATOM     15  O   UNL     1      -0.011   0.963   0.007  0.00  0.00    -0.240 OA
ENDBRANCH   3  13
TORSDOF 3
