REMARK  Name = ZINC43666652
REMARK  4 active torsions:
REMARK  status: ('A' for Active; 'I' for Inactive)
REMARK    1  A    between atoms: C_1  and  C_2
REMARK    2  A    between atoms: C_2  and  C_4
REMARK    3  A    between atoms: C_2  and  N_15
REMARK    4  A    between atoms: C_16  and  N_21
REMARK                            x       y       z     vdW  Elec       q    Type
REMARK                         _______ _______ _______ _____ _____    ______ ____
ROOT
ATOM      1  C   UNL     1      -0.019   1.526   0.010  0.00  0.00    +0.038 C 
ATOM      2  C   UNL     1       0.002  -0.004   0.002  0.00  0.00    +0.136 C 
ENDROOT
BRANCH   2   3
ATOM      3  C   UNL     1       0.707  -0.490  -1.238  0.00  0.00    -0.020 A 
ATOM      4  C   UNL     1       2.026  -0.140  -1.462  0.00  0.00    +0.009 A 
ATOM      5  C   UNL     1       2.680  -0.583  -2.598  0.00  0.00    +0.050 A 
ATOM      6  C   UNL     1       2.009  -1.379  -3.510  0.00  0.00    +0.162 A 
ATOM      7  C   UNL     1       0.685  -1.730  -3.285  0.00  0.00    +0.162 A 
ATOM      8  C   UNL     1       0.035  -1.290  -2.145  0.00  0.00    +0.055 A 
ATOM      9  O   UNL     1       0.033  -2.517  -4.190  0.00  0.00    -0.488 OA
ATOM     10  C   UNL     1      -0.232  -1.919  -5.460  0.00  0.00    +0.232 C 
ATOM     11  C   UNL     1       0.971  -2.051  -6.381  0.00  0.00    +0.082 C 
ATOM     12  C   UNL     1       2.178  -1.279  -5.871  0.00  0.00    +0.232 C 
ATOM     13  O   UNL     1       2.643  -1.824  -4.634  0.00  0.00    -0.488 OA
ENDBRANCH   2   3
BRANCH   2  14
ATOM     14  N   UNL     1       0.711  -0.489   1.189  0.00  0.00    -0.243 N 
ATOM     15  C   UNL     1       0.195  -1.290   2.157  0.00  0.00    +0.128 A 
ATOM     16  C   UNL     1       1.177  -1.506   3.075  0.00  0.00    +0.072 A 
ATOM     17  C   UNL     1       2.317  -0.817   2.653  0.00  0.00    +0.150 A 
ATOM     18  N   UNL     1       2.043  -0.215   1.524  0.00  0.00    -0.176 NA
ATOM     19  I   UNL     1       1.008  -2.663   4.814  0.00  0.00    -0.039 I 
BRANCH  15  20
ATOM     20  N   UNL     1      -1.101  -1.798   2.202  0.00  0.00    -0.342 N 
ATOM     21  H   UNL     1      -1.730  -1.585   1.495  0.00  0.00    +0.144 HD
ATOM     22  H   UNL     1      -1.375  -2.365   2.940  0.00  0.00    +0.144 HD
ENDBRANCH  15  20
ENDBRANCH   2  14
TORSDOF 3
