REMARK  Name = ZINC47274253
REMARK  8 active torsions:
REMARK  status: ('A' for Active; 'I' for Inactive)
REMARK    1  A    between atoms: C_4  and  S_21
REMARK    2  A    between atoms: C_5  and  N_7
REMARK    3  A    between atoms: C_8  and  C_10
REMARK    4  A    between atoms: C_10  and  N_11
REMARK    5  A    between atoms: N_11  and  C_12
REMARK    6  A    between atoms: N_11  and  C_16
REMARK    7  A    between atoms: C_12  and  C_13
REMARK    8  A    between atoms: S_21  and  C_22
REMARK                            x       y       z     vdW  Elec       q    Type
REMARK                         _______ _______ _______ _____ _____    ______ ____
ROOT
ATOM      1  N   UNL     1       1.158  -2.225   0.979  0.00  0.00    -0.286 N 
ATOM      2  C   UNL     1       0.026  -2.946   0.861  0.00  0.00    +0.201 C 
ATOM      3  O   UNL     1      -1.029  -2.485   1.244  0.00  0.00    -0.278 OA
ATOM      4  H   UNL     1       1.985  -2.553   0.591  0.00  0.00    +0.155 HD
ENDROOT
BRANCH   1   9
ATOM      5  C   UNL     1       0.147   0.465   3.277  0.00  0.00    +0.002 A 
ATOM      6  C   UNL     1       1.109   1.421   3.008  0.00  0.00    +0.001 A 
ATOM      7  C   UNL     1       2.091   1.175   2.067  0.00  0.00    +0.017 A 
ATOM      8  C   UNL     1       2.113  -0.036   1.389  0.00  0.00    +0.034 A 
ATOM      9  C   UNL     1       1.142  -1.000   1.660  0.00  0.00    +0.047 A 
ATOM     10  C   UNL     1       0.161  -0.744   2.606  0.00  0.00    +0.024 A 
BRANCH   8  11
ATOM     11  S   UNL     1       3.363  -0.353   0.188  0.00  0.00    -0.054 S 
BRANCH  11  12
ATOM     12  C   UNL     1       4.365   1.159   0.188  0.00  0.00    +0.404 C 
ATOM     13  F   UNL     1       3.563   2.250  -0.162  0.00  0.00    -0.197 F 
ATOM     14  F   UNL     1       4.901   1.363   1.464  0.00  0.00    -0.197 F 
ENDBRANCH  11  12
ENDBRANCH   8  11
ENDBRANCH   1   9
BRANCH   2  15
ATOM     15  C   UNL     1       0.070  -4.325   0.256  0.00  0.00    +0.020 C 
BRANCH  15  16
ATOM     16  N   UNL     1      -1.298  -4.844   0.119  0.00  0.00    +0.393 N 
ATOM     17  H   UNL     1      -1.873  -4.476   0.862  0.00  0.00    -0.080 HD
BRANCH  16  18
ATOM     18  C   UNL     1      -1.850  -4.432  -1.179  0.00  0.00    -0.067 C 
ATOM     19  C   UNL     1      -1.665  -2.908  -1.387  0.00  0.00    -0.015 C 
ATOM     20  C   UNL     1      -1.711  -2.766  -2.929  0.00  0.00    -0.002 C 
ATOM     21  C   UNL     1      -0.963  -4.012  -3.446  0.00  0.00    -0.002 C 
ATOM     22  C   UNL     1      -1.051  -5.071  -2.333  0.00  0.00    -0.015 C 
ENDBRANCH  16  18
BRANCH  16  23
ATOM     23  C   UNL     1      -1.275  -6.310   0.198  0.00  0.00    +0.019 C 
BRANCH  23  24
ATOM     24  C   UNL     1      -2.688  -6.832   0.263  0.00  0.00    +0.194 C 
ATOM     25  O   UNL     1      -3.622  -6.061   0.198  0.00  0.00    -0.278 OA
ATOM     26  N   UNL     1      -2.913  -8.154   0.393  0.00  0.00    -0.331 N 
ATOM     27  H   UNL     1      -2.166  -8.770   0.445  0.00  0.00    +0.145 HD
ATOM     28  H   UNL     1      -3.822  -8.489   0.435  0.00  0.00    +0.145 HD
ENDBRANCH  23  24
ENDBRANCH  16  23
ENDBRANCH  15  16
ENDBRANCH   2  15
TORSDOF 8
