REMARK  Name = ZINC23685519
REMARK  5 active torsions:
REMARK  status: ('A' for Active; 'I' for Inactive)
REMARK    1  A    between atoms: C_4  and  C_7
REMARK    2  A    between atoms: C_7  and  C_9
REMARK    3  A    between atoms: C_7  and  N_15
REMARK    4  A    between atoms: C_16  and  C_18
REMARK    5  A    between atoms: N_27  and  C_29
REMARK                            x       y       z     vdW  Elec       q    Type
REMARK                         _______ _______ _______ _____ _____    ______ ____
ROOT
ATOM      1  N   UNL     1      -4.792   3.977  -0.953  0.00  0.00    -0.298 N 
ATOM      2  C   UNL     1      -3.696   3.246  -0.665  0.00  0.00    +0.265 C 
ATOM      3  O   UNL     1      -3.748   2.032  -0.703  0.00  0.00    -0.268 OA
ATOM      4  H   UNL     1      -4.745   5.075  -0.918  0.00  0.00    +0.150 HD
ENDROOT
BRANCH   2   5
ATOM      5  C   UNL     1      -2.434   3.920  -0.303  0.00  0.00    +0.154 A 
ATOM      6  C   UNL     1      -1.232   3.131   0.013  0.00  0.00    +0.020 A 
ATOM      7  C   UNL     1      -1.215   1.741  -0.016  0.00  0.00    +0.011 A 
ATOM      8  C   UNL     1      -0.051   1.072   0.298  0.00  0.00    +0.001 A 
ATOM      9  C   UNL     1       1.103   1.770   0.631  0.00  0.00    +0.001 A 
ATOM     10  C   UNL     1       1.109   3.148   0.660  0.00  0.00    +0.014 A 
ATOM     11  C   UNL     1      -0.057   3.842   0.351  0.00  0.00    +0.051 A 
ATOM     12  C   UNL     1      -0.139   5.309   0.358  0.00  0.00    +0.280 A 
ATOM     13  O   UNL     1       0.833   5.985   0.639  0.00  0.00    -0.265 OA
ATOM     14  N   UNL     1      -1.316   5.889   0.044  0.00  0.00    -0.196 N 
ATOM     15  N   UNL     1      -2.369   5.229  -0.260  0.00  0.00    -0.158 NA
BRANCH  14  16
ATOM     16  C   UNL     1      -1.389   7.286   0.052  0.00  0.00    +0.069 A 
ATOM     17  C   UNL     1      -0.912   8.001   1.144  0.00  0.00    +0.028 A 
ATOM     18  C   UNL     1      -0.980   9.380   1.146  0.00  0.00    +0.002 A 
ATOM     19  C   UNL     1      -1.532  10.049   0.068  0.00  0.00    +0.000 A 
ATOM     20  C   UNL     1      -2.013   9.339  -1.017  0.00  0.00    +0.002 A 
ATOM     21  C   UNL     1      -1.942   7.960  -1.028  0.00  0.00    +0.028 A 
ENDBRANCH  14  16
ENDBRANCH   2   5
BRANCH   1  22
ATOM     22  C   UNL     1      -6.045   3.308  -1.311  0.00  0.00    +0.152 C 
BRANCH  22  26
ATOM     23  C   UNL     1      -9.338   5.872  -0.402  0.00  0.00    +0.000 A 
ATOM     24  C   UNL     1      -9.428   4.515  -0.151  0.00  0.00    +0.000 A 
ATOM     25  C   UNL     1      -8.362   3.686  -0.445  0.00  0.00    +0.006 A 
ATOM     26  C   UNL     1      -7.207   4.212  -0.991  0.00  0.00    -0.021 A 
ATOM     27  C   UNL     1      -7.115   5.569  -1.238  0.00  0.00    +0.006 A 
ATOM     28  C   UNL     1      -8.183   6.398  -0.948  0.00  0.00    +0.000 A 
ENDBRANCH  22  26
BRANCH  22  29
ATOM     29  C   UNL     1      -6.043   2.995  -2.786  0.00  0.00    +0.066 A 
ATOM     30  C   UNL     1      -4.912   3.253  -3.537  0.00  0.00    +0.025 A 
ATOM     31  C   UNL     1      -4.921   2.961  -4.893  0.00  0.00    +0.003 A 
ATOM     32  C   UNL     1      -6.072   2.419  -5.444  0.00  0.00    +0.020 A 
ATOM     33  C   UNL     1      -7.165   2.189  -4.630  0.00  0.00    +0.111 A 
ATOM     34  N   UNL     1      -7.119   2.474  -3.343  0.00  0.00    -0.258 NA
ENDBRANCH  22  29
ENDBRANCH   1  22
TORSDOF 5
