REMARK  Name = ZINC63896768
REMARK  7 active torsions:
REMARK  status: ('A' for Active; 'I' for Inactive)
REMARK    1  A    between atoms: C_7  and  C_10
REMARK    2  A    between atoms: C_13  and  S_18
REMARK    3  A    between atoms: N_14  and  C_15
REMARK    4  A    between atoms: S_18  and  C_19
REMARK    5  A    between atoms: C_19  and  C_20
REMARK    6  A    between atoms: N_22  and  C_23
REMARK    7  A    between atoms: C_25  and  C_34
REMARK                            x       y       z     vdW  Elec       q    Type
REMARK                         _______ _______ _______ _____ _____    ______ ____
ROOT
ATOM      1  S   UNL     1      -0.324  -6.838   0.605  0.00  0.00    -0.077 S 
ENDROOT
BRANCH   1   5
ATOM      2  C   UNL     1       0.661  -3.155  -0.273  0.00  0.00    +0.163 A 
ATOM      3  N   UNL     1      -0.658  -3.083  -0.161  0.00  0.00    -0.129 NA
ATOM      4  N   UNL     1      -1.133  -4.241   0.131  0.00  0.00    -0.122 NA
ATOM      5  C   UNL     1      -0.152  -5.126   0.225  0.00  0.00    +0.193 A 
ATOM      6  N   UNL     1       1.014  -4.471  -0.033  0.00  0.00    -0.299 N 
BRANCH   2  13
ATOM      7  C   UNL     1      -0.079   1.240  -1.118  0.00  0.00    +0.001 A 
ATOM      8  C   UNL     1       1.087   1.962  -1.386  0.00  0.00    +0.002 A 
ATOM      9  C   UNL     1       2.308   1.374  -1.386  0.00  0.00    +0.026 A 
ATOM     10  C   UNL     1       2.424  -0.013  -1.107  0.00  0.00    +0.043 A 
ATOM     11  N   UNL     1       3.475  -0.806  -1.048  0.00  0.00    -0.380 N 
ATOM     12  C   UNL     1       3.038  -2.166  -0.719  0.00  0.00    +0.152 C 
ATOM     13  C   UNL     1       1.533  -2.099  -0.581  0.00  0.00    +0.025 C 
ATOM     14  C   UNL     1       1.192  -0.769  -0.825  0.00  0.00    +0.006 A 
ATOM     15  C   UNL     1      -0.045  -0.089  -0.843  0.00  0.00    +0.010 A 
ATOM     16  H   UNL     1       4.394  -0.532  -1.198  0.00  0.00    +0.160 HD
ENDBRANCH   2  13
BRANCH   6  17
ATOM     17  C   UNL     1       2.363  -5.042  -0.050  0.00  0.00    +0.091 C 
ATOM     18  C   UNL     1       2.485  -6.564  -0.146  0.00  0.00    +0.027 C 
ATOM     19  C   UNL     1       2.803  -5.852   1.171  0.00  0.00    +0.027 C 
ENDBRANCH   6  17
ENDBRANCH   1   5
BRANCH   1  20
ATOM     20  C   UNL     1      -2.111  -7.061   0.824  0.00  0.00    +0.173 C 
BRANCH  20  21
ATOM     21  C   UNL     1      -2.400  -8.501   1.158  0.00  0.00    +0.224 C 
ATOM     22  O   UNL     1      -1.491  -9.299   1.240  0.00  0.00    -0.275 OA
ATOM     23  N   UNL     1      -3.670  -8.903   1.365  0.00  0.00    -0.299 N 
ATOM     24  H   UNL     1      -4.398  -8.265   1.299  0.00  0.00    +0.150 HD
BRANCH  23  25
ATOM     25  C   UNL     1      -3.951 -10.304   1.690  0.00  0.00    +0.167 C 
ATOM     26  C   UNL     1      -5.005 -10.412   2.777  0.00  0.00    +0.045 C 
ATOM     27  C   UNL     1      -6.226 -10.744   2.442  0.00  0.00    -0.046 C 
ATOM     28  C   UNL     1      -7.369 -11.005   3.422  0.00  0.00    +0.032 C 
ATOM     29  C   UNL     1      -8.652 -11.066   2.587  0.00  0.00    +0.004 C 
ATOM     30  C   UNL     1      -8.607 -12.184   1.556  0.00  0.00    +0.002 C 
ATOM     31  C   UNL     1      -7.247 -12.311   0.874  0.00  0.00    +0.018 C 
ATOM     32  C   UNL     1      -6.510 -10.972   0.950  0.00  0.00    +0.075 C 
ATOM     33  S   UNL     1      -4.803 -11.153   0.290  0.00  0.00    -0.126 S 
BRANCH  26  34
ATOM     34  C   UNL     1      -4.659 -10.150   4.182  0.00  0.00    +0.240 C 
ATOM     35  O   UNL     1      -5.512 -10.241   5.045  0.00  0.00    -0.271 OA
ATOM     36  N   UNL     1      -3.398  -9.810   4.514  0.00  0.00    -0.326 N 
ATOM     37  H   UNL     1      -2.718  -9.737   3.826  0.00  0.00    +0.145 HD
ATOM     38  H   UNL     1      -3.170  -9.637   5.441  0.00  0.00    +0.145 HD
ENDBRANCH  26  34
ENDBRANCH  23  25
ENDBRANCH  20  21
ENDBRANCH   1  20
TORSDOF 7
