REMARK  Name = ZINC13145013
REMARK  9 active torsions:
REMARK  status: ('A' for Active; 'I' for Inactive)
REMARK    1  A    between atoms: C_1  and  C_2
REMARK    2  A    between atoms: C_2  and  C_4
REMARK    3  A    between atoms: C_2  and  N_28
REMARK    4  A    between atoms: N_6  and  CA_7
REMARK    5  A    between atoms: CA_14  and  C_26
REMARK    6  A    between atoms: C_15  and  C_18
REMARK    7  A    between atoms: C_18  and  S_19
REMARK    8  A    between atoms: S_19  and  C_20
REMARK    9  A    between atoms: N_24  and  C_25
REMARK                            x       y       z     vdW  Elec       q    Type
REMARK                         _______ _______ _______ _____ _____    ______ ____
ROOT
ATOM      1  CA  UNL     1       3.307   1.843   1.169  0.00  0.00    +0.191 C 
ATOM      2  C   UNL     1       4.400   0.987   1.802  0.00  0.00    +0.169 C 
ATOM      3  N   UNL     1       4.433   2.031   2.875  0.00  0.00    -0.249 N 
ATOM      4  C   UNL     1       3.649   2.897   2.209  0.00  0.00    +0.244 C 
ATOM      5  O   UNL     1       3.339   4.058   2.373  0.00  0.00    -0.273 OA
ATOM      6  CA  UNL     1       4.994   1.894   4.156  0.00  0.00    +0.127 C 
ATOM      7  C   UNL     1       5.206   0.690   4.666  0.00  0.00    -0.021 C 
ATOM      8  C   UNL     1       4.970  -0.642   4.032  0.00  0.00    +0.104 C 
ATOM      9  S   UNL     1       3.821  -0.535   2.625  0.00  0.00    -0.131 S 
ENDROOT
BRANCH   1  12
ATOM     10  C   UNL     1       0.995   1.607   0.438  0.00  0.00    +0.238 C 
ATOM     11  O   UNL     1       1.239   2.361  -0.480  0.00  0.00    -0.273 OA
ATOM     12  N   UNL     1       1.962   1.284   1.320  0.00  0.00    -0.300 N 
ATOM     13  H   UNL     1       1.766   0.681   2.054  0.00  0.00    +0.150 HD
BRANCH  10  15
ATOM     14  C   UNL     1      -0.968   1.452   1.945  0.00  0.00    +0.042 C 
ATOM     15  C   UNL     1      -0.389   1.032   0.592  0.00  0.00    +0.189 C 
BRANCH  15  16
ATOM     16  N   UNL     1      -1.249   1.532  -0.483  0.00  0.00    -0.258 N 
ATOM     17  C   UNL     1      -1.925   2.701  -0.481  0.00  0.00    +0.129 A 
ATOM     18  C   UNL     1      -2.598   2.791  -1.652  0.00  0.00    +0.078 A 
ATOM     19  C   UNL     1      -2.323   1.637  -2.395  0.00  0.00    +0.154 A 
ATOM     20  N   UNL     1      -1.510   0.885  -1.698  0.00  0.00    -0.177 NA
ATOM     21 CL   UNL     1      -3.620   4.104  -2.146  0.00  0.00    -0.080 Cl
ENDBRANCH  15  16
ENDBRANCH  10  15
ENDBRANCH   1  12
BRANCH   6  22
ATOM     22  C   UNL     1       5.349   3.094   4.934  0.00  0.00    +0.401 C 
ATOM     23  O   UNL     1       4.515   3.633   5.634  0.00  0.00    -0.239 OA
ATOM     24  OXT UNL     1       6.599   3.594   4.869  0.00  0.00    -0.239 OA
ENDBRANCH   6  22
BRANCH   7  25
ATOM     25  C   UNL     1       5.756   0.661   6.069  0.00  0.00    +0.111 C 
BRANCH  25  26
ATOM     26  S   UNL     1       4.422   0.284   7.232  0.00  0.00    -0.080 S 
BRANCH  26  27
ATOM     27  C   UNL     1       5.321   0.312   8.748  0.00  0.00    +0.209 A 
ATOM     28  N   UNL     1       6.607   0.546   8.889  0.00  0.00    -0.102 NA
ATOM     29  N   UNL     1       6.940   0.495  10.128  0.00  0.00    -0.022 NA
ATOM     30  N   UNL     1       5.913   0.222  10.857  0.00  0.00    -0.043 NA
ATOM     31  N   UNL     1       4.818   0.092   9.985  0.00  0.00    -0.223 N 
ATOM     32  C   UNL     1       3.430  -0.216  10.340  0.00  0.00    +0.177 C 
ENDBRANCH  26  27
ENDBRANCH  25  26
ENDBRANCH   7  25
TORSDOF 7
