REMARK  Name = ZINC12627287
REMARK  13 active torsions:
REMARK  status: ('A' for Active; 'I' for Inactive)
REMARK    1  A    between atoms: C_1  and  C_2
REMARK    2  A    between atoms: C_2  and  C_3
REMARK    3  A    between atoms: C_3  and  C_5
REMARK    4  A    between atoms: C_3  and  C_6
REMARK    5  A    between atoms: C_9  and  C_12
REMARK    6  A    between atoms: C_12  and  C_14
REMARK    7  A    between atoms: C_12  and  N_17
REMARK    8  A    between atoms: C_14  and  C_15
REMARK    9  A    between atoms: C_14  and  C_16
REMARK   10  A    between atoms: C_18  and  C_20
REMARK   11  A    between atoms: C_20  and  N_21
REMARK   12  A    between atoms: N_28  and  C_29
REMARK   13  A    between atoms: N_30  and  C_33
REMARK                            x       y       z     vdW  Elec       q    Type
REMARK                         _______ _______ _______ _____ _____    ______ ____
ROOT
ATOM      1  N   UNL     1      -0.242   1.246   2.466  0.00  0.00    -0.307 N 
ATOM      2  C   UNL     1      -0.718   1.572   1.248  0.00  0.00    +0.234 C 
ATOM      3  O   UNL     1      -1.714   2.256   1.150  0.00  0.00    -0.274 OA
ATOM      4  H   UNL     1       0.555   0.699   2.544  0.00  0.00    +0.149 HD
ENDROOT
BRANCH   1   5
ATOM      5  C   UNL     1      -0.927   1.718   3.671  0.00  0.00    +0.106 C 
BRANCH   5   9
ATOM      6  C   UNL     1       1.846   1.881   6.916  0.00  0.00    -0.045 A 
ATOM      7  C   UNL     1       0.906   2.883   6.759  0.00  0.00    +0.004 A 
ATOM      8  C   UNL     1       0.008   2.830   5.709  0.00  0.00    +0.006 A 
ATOM      9  C   UNL     1       0.051   1.776   4.816  0.00  0.00    -0.027 A 
ATOM     10  C   UNL     1       0.988   0.772   4.976  0.00  0.00    +0.006 A 
ATOM     11  C   UNL     1       1.889   0.828   6.022  0.00  0.00    +0.004 A 
BRANCH   6  12
ATOM     12  C   UNL     1       2.824   1.939   8.061  0.00  0.00    +0.016 C 
ATOM     13  C   UNL     1       2.651   0.700   8.942  0.00  0.00    +0.012 C 
BRANCH  12  15
ATOM     14  C   UNL     1       5.238   2.162   8.666  0.00  0.00    +0.004 C 
ATOM     15  C   UNL     1       4.251   1.978   7.511  0.00  0.00    +0.004 C 
ENDBRANCH  12  15
ENDBRANCH   6  12
ENDBRANCH   5   9
BRANCH   5  16
ATOM     16  C   UNL     1      -2.065   0.757   4.021  0.00  0.00    +0.008 C 
ATOM     17  C   UNL     1      -2.781   1.250   5.279  0.00  0.00    +0.009 C 
ATOM     18  C   UNL     1      -3.058   0.698   2.858  0.00  0.00    +0.009 C 
ENDBRANCH   5  16
ENDBRANCH   1   5
BRANCH   2  19
ATOM     19  C   UNL     1      -0.013   1.086   0.008  0.00  0.00    +0.225 C 
BRANCH  19  20
ATOM     20  N   UNL     1      -0.721   1.571  -1.179  0.00  0.00    -0.250 N 
ATOM     21  C   UNL     1      -0.378   2.759  -1.718  0.00  0.00    +0.283 A 
ATOM     22  O   UNL     1       0.515   3.425  -1.225  0.00  0.00    -0.265 OA
ATOM     23  C   UNL     1      -1.064   3.221  -2.862  0.00  0.00    +0.151 A 
ATOM     24  C   UNL     1      -2.078   2.441  -3.404  0.00  0.00    +0.168 A 
ATOM     25  N   UNL     1      -2.558   3.096  -4.464  0.00  0.00    -0.218 NA
ATOM     26  C   UNL     1      -1.915   4.226  -4.615  0.00  0.00    +0.202 A 
ATOM     27  N   UNL     1      -0.982   4.351  -3.651  0.00  0.00    -0.328 N 
ATOM     28  C   UNL     1      -0.056   5.472  -3.474  0.00  0.00    +0.150 C 
ATOM     29  N   UNL     1      -2.383   1.230  -2.804  0.00  0.00    -0.280 N 
ATOM     30  C   UNL     1      -1.700   0.824  -1.717  0.00  0.00    +0.334 A 
ATOM     31  O   UNL     1      -1.979  -0.244  -1.207  0.00  0.00    -0.246 OA
ATOM     32  C   UNL     1      -3.447   0.387  -3.357  0.00  0.00    +0.155 C 
ENDBRANCH  19  20
ENDBRANCH   2  19
TORSDOF 7
