REMARK  Name = ZINC12664213
REMARK  12 active torsions:
REMARK  status: ('A' for Active; 'I' for Inactive)
REMARK    1  A    between atoms: C_1  and  C_2
REMARK    2  A    between atoms: N_6  and  O_7
REMARK    3  A    between atoms: O_7  and  C_8
REMARK    4  A    between atoms: C_8  and  C_9
REMARK    5  A    between atoms: N_11  and  C_12
REMARK    6  A    between atoms: C_12  and  C_13
REMARK    7  A    between atoms: C_27  and  O_42
REMARK    8  A    between atoms: C_30  and  C_41
REMARK    9  A    between atoms: C_35  and  C_36
REMARK   10  A    between atoms: C_35  and  O_40
REMARK   11  A    between atoms: C_36  and  C_38
REMARK   12  A    between atoms: C_38  and  O_39
REMARK                            x       y       z     vdW  Elec       q    Type
REMARK                         _______ _______ _______ _____ _____    ______ ____
ROOT
ATOM      1  C   UNL     1       0.293   2.167  -2.416  0.00  0.00    +0.016 C 
ATOM      2  C   UNL     1      -0.671   1.717  -1.318  0.00  0.00    -0.005 C 
ATOM      3  C   UNL     1      -1.484   0.520  -1.831  0.00  0.00    +0.017 C 
ATOM      4  C   UNL     1      -2.222   0.884  -3.118  0.00  0.00    +0.059 C 
ATOM      5  C   UNL     1      -2.997   2.162  -2.930  0.00  0.00    +0.080 C 
ATOM      6  N   UNL     1      -3.947   2.470  -3.758  0.00  0.00    -0.089 NA
ATOM      7  C   UNL     1      -2.680   3.065  -1.817  0.00  0.00    +0.026 C 
ATOM      8  C   UNL     1      -1.623   2.859  -1.053  0.00  0.00    -0.061 C 
ATOM      9  C   UNL     1      -1.317   3.763   0.116  0.00  0.00    +0.031 C 
ATOM     10  C   UNL     1      -1.435   2.904   1.372  0.00  0.00    +0.008 C 
ATOM     11  C   UNL     1      -0.796   1.544   1.206  0.00  0.00    -0.001 C 
ATOM     12  C   UNL     1       0.047   1.316  -0.039  0.00  0.00    +0.031 C 
ATOM     13  C   UNL     1       1.494   1.737   0.059  0.00  0.00    +0.119 C 
ATOM     14  C   UNL     1       2.164   1.253   1.362  0.00  0.00    +0.041 C 
ATOM     15  C   UNL     1       1.349   1.716   2.543  0.00  0.00    +0.009 C 
ATOM     16  C   UNL     1      -0.056   1.093   2.438  0.00  0.00    +0.002 C 
ATOM     17  C   UNL     1      -0.662   1.454   3.801  0.00  0.00    +0.008 C 
ATOM     18  C   UNL     1       0.518   1.177   4.775  0.00  0.00    +0.043 C 
ATOM     19  C   UNL     1       1.809   1.204   3.917  0.00  0.00    +0.131 C 
ATOM     20  C   UNL     1       1.346   3.241   2.602  0.00  0.00    +0.015 C 
ENDROOT
BRANCH  19  21
ATOM     21  C   UNL     1       2.815   2.153   4.509  0.00  0.00    +0.190 C 
ATOM     22  O   UNL     1       2.454   3.020   5.269  0.00  0.00    -0.292 OA
BRANCH  21  23
ATOM     23  C   UNL     1       4.274   2.023   4.154  0.00  0.00    +0.233 C 
BRANCH  23  24
ATOM     24  O   UNL     1       5.022   3.031   4.837  0.00  0.00    -0.387 OA
ATOM     25  H   UNL     1       5.972   3.007   4.654  0.00  0.00    +0.210 HD
ENDBRANCH  23  24
ENDBRANCH  21  23
ENDBRANCH  19  21
BRANCH  19  26
ATOM     26  O   UNL     1       2.360  -0.106   3.795  0.00  0.00    -0.380 OA
ATOM     27  H   UNL     1       2.668  -0.483   4.630  0.00  0.00    +0.211 HD
ENDBRANCH  19  26
BRANCH  13  28
ATOM     28  O   UNL     1       2.263   1.109  -0.988  0.00  0.00    -0.391 OA
ATOM     29  H   UNL     1       3.202   1.340  -0.979  0.00  0.00    +0.210 HD
ENDBRANCH  13  28
BRANCH   6  30
ATOM     30  O   UNL     1      -4.678   3.670  -3.584  0.00  0.00    -0.384 OA
BRANCH  30  31
ATOM     31  C   UNL     1      -5.693   3.881  -4.567  0.00  0.00    +0.358 C 
BRANCH  31  32
ATOM     32  C   UNL     1      -6.402   5.180  -4.286  0.00  0.00    +0.254 C 
ATOM     33  O   UNL     1      -6.071   5.859  -3.337  0.00  0.00    -0.272 OA
ATOM     34  N   UNL     1      -7.405   5.588  -5.090  0.00  0.00    -0.308 N 
ATOM     35  H   UNL     1      -7.670   5.045  -5.848  0.00  0.00    +0.149 HD
BRANCH  34  36
ATOM     36  C   UNL     1      -8.095   6.851  -4.816  0.00  0.00    +0.139 C 
BRANCH  36  37
ATOM     37  C   UNL     1      -9.165   7.074  -5.853  0.00  0.00    -0.027 A 
ATOM     38  C   UNL     1      -8.886   7.760  -7.025  0.00  0.00    +0.025 A 
ATOM     39  C   UNL     1      -9.893   7.941  -7.955  0.00  0.00    +0.111 A 
ATOM     40  N   UNL     1     -11.107   7.478  -7.734  0.00  0.00    -0.263 NA
ATOM     41  C   UNL     1     -11.409   6.825  -6.628  0.00  0.00    +0.111 A 
ATOM     42  C   UNL     1     -10.454   6.601  -5.655  0.00  0.00    +0.025 A 
ENDBRANCH  36  37
ENDBRANCH  34  36
ENDBRANCH  31  32
ENDBRANCH  30  31
ENDBRANCH   6  30
TORSDOF 10
