REMARK  Name = ZINC39675413
REMARK  14 active torsions:
REMARK  status: ('A' for Active; 'I' for Inactive)
REMARK    1  A    between atoms: C_1  and  C_2
REMARK    2  A    between atoms: C_4  and  C_11
REMARK    3  A    between atoms: N_5  and  C_7
REMARK    4  A    between atoms: C_7  and  C_8
REMARK    5  A    between atoms: C_7  and  C_9
REMARK    6  A    between atoms: C_7  and  C_10
REMARK    7  A    between atoms: C_15  and  C_24
REMARK    8  A    between atoms: N_26  and  C_27
REMARK    9  A    between atoms: C_27  and  C_29
REMARK   10  A    between atoms: C_27  and  C_30
REMARK   11  A    between atoms: C_30  and  C_31
REMARK   12  A    between atoms: C_31  and  C_32
REMARK   13  A    between atoms: C_35  and  O_38
REMARK   14  A    between atoms: O_38  and  C_39
REMARK                            x       y       z     vdW  Elec       q    Type
REMARK                         _______ _______ _______ _____ _____    ______ ____
ROOT
ATOM      1  C   UNL     1      -0.530  -3.730  -1.462  0.00  0.00    +0.265 C 
ATOM      2  O   UNL     1      -0.730  -3.786  -2.661  0.00  0.00    -0.268 OA
ATOM      3  N   UNL     1      -0.437  -4.865  -0.741  0.00  0.00    -0.295 N 
ATOM      4  C   UNL     1      -0.331  -5.000   0.731  0.00  0.00    +0.121 C 
ATOM      5  C   UNL     1      -1.209  -6.224   1.075  0.00  0.00    +0.100 C 
ATOM      6  C   UNL     1      -1.260  -7.048  -0.223  0.00  0.00    -0.004 C 
ATOM      7  C   UNL     1      -0.423  -6.261  -1.242  0.00  0.00    +0.115 C 
ATOM      8  C   UNL     1      -2.699  -7.171  -0.715  0.00  0.00    -0.010 C 
ATOM      9  C   UNL     1      -2.731  -8.041  -1.974  0.00  0.00    -0.082 C 
ATOM     10  N   UNL     1      -2.182  -9.368  -1.667  0.00  0.00    +0.379 N 
ATOM     11  C   UNL     1      -0.770  -9.250  -1.284  0.00  0.00    -0.082 C 
ATOM     12  C   UNL     1      -0.655  -8.430   0.004  0.00  0.00    -0.010 C 
ATOM     13  H   UNL     1      -2.702  -9.778  -0.906  0.00  0.00    -0.086 HD
ATOM     14  H   UNL     1      -2.260  -9.959  -2.481  0.00  0.00    -0.086 HD
ENDROOT
BRANCH   1  18
ATOM     15  C   UNL     1       0.312  -0.046   1.920  0.00  0.00    +0.067 C 
ATOM     16  C   UNL     1      -0.027  -0.805   0.663  0.00  0.00    +0.061 A 
ATOM     17  C   UNL     1      -0.012  -2.194   0.512  0.00  0.00    +0.057 A 
ATOM     18  C   UNL     1      -0.391  -2.424  -0.799  0.00  0.00    +0.124 A 
ATOM     19  N   UNL     1      -0.609  -1.195  -1.355  0.00  0.00    -0.254 N 
ATOM     20  N   UNL     1      -0.394  -0.281  -0.479  0.00  0.00    -0.175 NA
BRANCH  19  21
ATOM     21  C   UNL     1      -1.030  -0.957  -2.738  0.00  0.00    +0.056 C 
ATOM     22  C   UNL     1      -2.314  -1.738  -3.022  0.00  0.00    +0.036 C 
ATOM     23  C   UNL     1      -1.286   0.538  -2.942  0.00  0.00    +0.036 C 
ATOM     24  C   UNL     1       0.072  -1.421  -3.693  0.00  0.00    +0.036 C 
ENDBRANCH  19  21
ENDBRANCH   1  18
BRANCH   5  25
ATOM     25  C   UNL     1      -2.594  -5.780   1.472  0.00  0.00    +0.218 C 
ATOM     26  O   UNL     1      -3.070  -4.774   0.990  0.00  0.00    -0.275 OA
ATOM     27  N   UNL     1      -3.302  -6.502   2.363  0.00  0.00    -0.312 N 
ATOM     28  H   UNL     1      -2.894  -7.262   2.806  0.00  0.00    +0.149 HD
BRANCH  27  29
ATOM     29  C   UNL     1      -4.689  -6.138   2.663  0.00  0.00    +0.070 C 
ATOM     30  C   UNL     1      -4.710  -5.055   3.744  0.00  0.00    +0.028 C 
BRANCH  29  31
ATOM     31  C   UNL     1      -5.444  -7.371   3.162  0.00  0.00    +0.026 C 
BRANCH  31  32
ATOM     32  C   UNL     1      -5.531  -8.405   2.038  0.00  0.00    +0.037 C 
BRANCH  32  33
ATOM     33  C   UNL     1      -6.274  -9.620   2.529  0.00  0.00    -0.047 A 
ATOM     34  C   UNL     1      -5.583 -10.659   3.125  0.00  0.00    +0.007 A 
ATOM     35  C   UNL     1      -6.262 -11.774   3.576  0.00  0.00    +0.046 A 
ATOM     36  C   UNL     1      -7.639 -11.851   3.431  0.00  0.00    +0.120 A 
ATOM     37  C   UNL     1      -8.331 -10.808   2.833  0.00  0.00    +0.046 A 
ATOM     38  C   UNL     1      -7.648  -9.693   2.389  0.00  0.00    +0.007 A 
BRANCH  36  39
ATOM     39  O   UNL     1      -8.310 -12.948   3.874  0.00  0.00    -0.495 OA
ATOM     40  C   UNL     1      -9.727 -12.959   3.692  0.00  0.00    +0.277 C 
ENDBRANCH  36  39
ENDBRANCH  32  33
ENDBRANCH  31  32
ENDBRANCH  29  31
ENDBRANCH  27  29
ENDBRANCH   5  25
TORSDOF 8
