REMARK  Name = ZINC61787142
REMARK  4 active torsions:
REMARK  status: ('A' for Active; 'I' for Inactive)
REMARK    1  A    between atoms: C_3  and  C_22
REMARK    2  A    between atoms: C_6  and  C_7
REMARK    3  A    between atoms: C_7  and  N_8
REMARK    4  A    between atoms: N_11  and  C_12
REMARK                            x       y       z     vdW  Elec       q    Type
REMARK                         _______ _______ _______ _____ _____    ______ ____
ROOT
ATOM      1  N   UNL     1      -1.731  -1.009  -1.368  0.00  0.00    -0.295 N 
ATOM      2  C   UNL     1      -2.869  -1.690  -1.606  0.00  0.00    +0.304 C 
ATOM      3  O   UNL     1      -3.535  -2.105  -0.677  0.00  0.00    -0.252 OA
ATOM      4  N   UNL     1      -3.269  -1.911  -2.874  0.00  0.00    -0.269 N 
ATOM      5  H   UNL     1      -1.200  -0.678  -2.108  0.00  0.00    +0.151 HD
ATOM      6  H   UNL     1      -2.775  -1.523  -3.613  0.00  0.00    +0.156 HD
ENDROOT
BRANCH   4   7
ATOM      7  C   UNL     1      -4.398  -2.700  -3.124  0.00  0.00    +0.035 A 
ATOM      8  C   UNL     1      -5.481  -2.656  -2.254  0.00  0.00    +0.024 A 
ATOM      9  C   UNL     1      -6.599  -3.434  -2.498  0.00  0.00    +0.008 A 
ATOM     10  C   UNL     1      -6.641  -4.253  -3.603  0.00  0.00    -0.018 A 
ATOM     11  C   UNL     1      -5.560  -4.307  -4.486  0.00  0.00    +0.043 A 
ATOM     12  C   UNL     1      -4.436  -3.518  -4.242  0.00  0.00    +0.036 A 
ATOM     13  C   UNL     1      -5.890  -5.260  -5.564  0.00  0.00    +0.245 C 
ATOM     14  O   UNL     1      -5.159  -5.536  -6.494  0.00  0.00    -0.270 OA
ATOM     15  N   UNL     1      -7.114  -5.779  -5.368  0.00  0.00    -0.307 N 
ATOM     16  C   UNL     1      -7.681  -5.203  -4.144  0.00  0.00    +0.140 C 
ATOM     17  H   UNL     1      -7.551  -6.427  -5.943  0.00  0.00    +0.149 HD
ENDBRANCH   4   7
BRANCH   1  18
ATOM     18  C   UNL     1      -1.296  -0.769   0.011  0.00  0.00    +0.141 C 
BRANCH  18  24
ATOM     19  C   UNL     1      -0.033   1.391   0.014  0.00  0.00    +0.006 A 
ATOM     20  C   UNL     1       1.147   2.107   0.006  0.00  0.00    +0.009 A 
ATOM     21  C   UNL     1       2.368   1.435  -0.014  0.00  0.00    -0.018 A 
ATOM     22  C   UNL     1       2.390   0.042  -0.026  0.00  0.00    +0.009 A 
ATOM     23  C   UNL     1       1.204  -0.665  -0.018  0.00  0.00    +0.006 A 
ATOM     24  C   UNL     1      -0.005   0.008   0.002  0.00  0.00    -0.030 A 
BRANCH  21  25
ATOM     25  C   UNL     1       3.639   2.200  -0.022  0.00  0.00    -0.017 A 
ATOM     26  C   UNL     1       3.620   3.594  -0.005  0.00  0.00    +0.012 A 
ATOM     27  C   UNL     1       4.800   4.303  -0.009  0.00  0.00    +0.046 A 
ATOM     28  C   UNL     1       6.024   3.636  -0.032  0.00  0.00    +0.124 A 
ATOM     29  C   UNL     1       6.035   2.246  -0.057  0.00  0.00    -0.002 A 
ATOM     30  C   UNL     1       4.862   1.530  -0.042  0.00  0.00    +0.015 A 
ATOM     31  C   UNL     1       7.489   1.815  -0.102  0.00  0.00    +0.080 C 
ATOM     32  C   UNL     1       8.200   3.131  -0.497  0.00  0.00    +0.234 C 
ATOM     33  O   UNL     1       7.289   4.139  -0.028  0.00  0.00    -0.491 OA
ENDBRANCH  21  25
ENDBRANCH  18  24
ENDBRANCH   1  18
TORSDOF 4
