REMARK  Name = ZINC59678813
REMARK  9 active torsions:
REMARK  status: ('A' for Active; 'I' for Inactive)
REMARK    1  A    between atoms: C_1  and  C_2
REMARK    2  A    between atoms: C_2  and  C_3
REMARK    3  A    between atoms: C_5  and  C_28
REMARK    4  A    between atoms: C_7  and  O_9
REMARK    5  A    between atoms: O_9  and  C_10
REMARK    6  A    between atoms: C_10  and  C_11
REMARK    7  A    between atoms: N_13  and  N_14
REMARK    8  A    between atoms: C_15  and  C_16
REMARK    9  A    between atoms: C_19  and  N_21
REMARK                            x       y       z     vdW  Elec       q    Type
REMARK                         _______ _______ _______ _____ _____    ______ ____
ROOT
ATOM      1  C   UNL     1       6.172  -1.856  -3.387  0.00  0.00    +0.270 C 
ATOM      2  O   UNL     1       6.667  -1.599  -2.309  0.00  0.00    -0.270 OA
ATOM      3  N   UNL     1       6.942  -2.327  -4.387  0.00  0.00    -0.204 N 
ATOM      4  H   UNL     1       6.546  -2.532  -5.249  0.00  0.00    +0.177 HD
ENDROOT
BRANCH   3   5
ATOM      5  N   UNL     1       8.314  -2.521  -4.183  0.00  0.00    -0.185 NA
ATOM      6  C   UNL     1       9.058  -2.976  -5.151  0.00  0.00    +0.176 C 
BRANCH   6   7
ATOM      7  C   UNL     1      10.491  -3.179  -4.937  0.00  0.00    +0.151 A 
ATOM      8  C   UNL     1      11.382  -3.643  -5.864  0.00  0.00    +0.068 A 
ATOM      9  C   UNL     1      12.638  -3.679  -5.239  0.00  0.00    +0.079 A 
ATOM     10  C   UNL     1      12.462  -3.238  -3.964  0.00  0.00    +0.204 A 
ATOM     11  O   UNL     1      11.165  -2.934  -3.792  0.00  0.00    -0.439 OA
ATOM     12 BR   UNL     1      14.268  -4.236  -6.020  0.00  0.00    -0.045 Br
BRANCH  10  13
ATOM     13  N   UNL     1      13.456  -3.118  -3.004  0.00  0.00    -0.296 N 
ATOM     14  C   UNL     1      14.264  -1.893  -2.899  0.00  0.00    +0.136 C 
ATOM     15  C   UNL     1      14.250  -1.428  -1.438  0.00  0.00    +0.179 C 
ATOM     16  O   UNL     1      14.635  -2.516  -0.595  0.00  0.00    -0.377 OA
ATOM     17  C   UNL     1      13.746  -3.635  -0.640  0.00  0.00    +0.179 C 
ATOM     18  C   UNL     1      13.730  -4.210  -2.056  0.00  0.00    +0.136 C 
ENDBRANCH  10  13
ENDBRANCH   6   7
ENDBRANCH   3   5
BRANCH   1  19
ATOM     19  C   UNL     1       4.695  -1.647  -3.606  0.00  0.00    +0.326 C 
BRANCH  19  20
ATOM     20  O   UNL     1       4.102  -1.145  -2.407  0.00  0.00    -0.483 OA
BRANCH  20  25
ATOM     21  C   UNL     1       0.765  -0.165  -1.338  0.00  0.00    -0.044 A 
ATOM     22  C   UNL     1       0.044  -0.404  -2.494  0.00  0.00    +0.007 A 
ATOM     23  C   UNL     1       0.681  -0.891  -3.620  0.00  0.00    -0.047 A 
ATOM     24  C   UNL     1       2.040  -1.140  -3.594  0.00  0.00    +0.049 A 
ATOM     25  C   UNL     1       2.765  -0.901  -2.436  0.00  0.00    +0.122 A 
ATOM     26  C   UNL     1       2.125  -0.407  -1.308  0.00  0.00    +0.049 A 
ATOM     27  C   UNL     1      -0.107  -1.150  -4.878  0.00  0.00    +0.044 C 
BRANCH  21  29
ATOM     28  C   UNL     1       0.081   1.895  -0.139  0.00  0.00    +0.009 C 
ATOM     29  C   UNL     1       0.068   0.365  -0.112  0.00  0.00    +0.032 C 
ENDBRANCH  21  29
ENDBRANCH  20  25
ENDBRANCH  19  20
ENDBRANCH   1  19
TORSDOF 7
