REMARK  Name = ZINC59088454
REMARK  12 active torsions:
REMARK  status: ('A' for Active; 'I' for Inactive)
REMARK    1  A    between atoms: C_1  and  C_2
REMARK    2  A    between atoms: C_2  and  C_30
REMARK    3  A    between atoms: C_4  and  N_10
REMARK    4  A    between atoms: C_6  and  C_8
REMARK    5  A    between atoms: C_6  and  C_9
REMARK    6  A    between atoms: N_10  and  C_11
REMARK    7  A    between atoms: N_10  and  C_20
REMARK    8  A    between atoms: C_11  and  C_12
REMARK    9  A    between atoms: C_17  and  O_18
REMARK   10  A    between atoms: O_18  and  C_19
REMARK   11  A    between atoms: C_20  and  N_22
REMARK   12  A    between atoms: N_22  and  C_23
REMARK                            x       y       z     vdW  Elec       q    Type
REMARK                         _______ _______ _______ _____ _____    ______ ____
ROOT
ATOM      1  N   UNL     1       2.617  -0.766  -2.529  0.00  0.00    -0.305 N 
ENDROOT
BRANCH   1   5
ATOM      2  C   UNL     1       0.657   2.366  -0.134  0.00  0.00    -0.010 C 
ATOM      3  C   UNL     1       0.304   0.880  -0.012  0.00  0.00    -0.072 C 
ATOM      4  C   UNL     1       0.724   0.145  -1.280  0.00  0.00    +0.009 C 
ATOM      5  C   UNL     1       2.243  -0.030  -1.315  0.00  0.00    +0.073 C 
ATOM      6  C   UNL     1       2.658  -0.839  -0.087  0.00  0.00    +0.009 C 
ATOM      7  C   UNL     1       2.251  -0.112   1.191  0.00  0.00    -0.072 C 
ATOM      8  N   UNL     1       0.860   0.303   1.199  0.00  0.00    +0.386 N 
ATOM      9  C   UNL     1       2.456  -1.095   2.367  0.00  0.00    -0.010 C 
ATOM     10  C   UNL     1       3.188   1.077   1.431  0.00  0.00    -0.010 C 
ATOM     11  C   UNL     1      -1.237   0.787   0.086  0.00  0.00    -0.010 C 
ATOM     12  H   UNL     1       0.728   0.972   1.963  0.00  0.00    -0.084 HD
ATOM     13  H   UNL     1       0.286  -0.506   1.460  0.00  0.00    -0.084 HD
ENDBRANCH   1   5
BRANCH   1  14
ATOM     14  C   UNL     1       2.151  -2.014  -2.731  0.00  0.00    +0.138 C 
ATOM     15  S   UNL     1       1.055  -2.709  -1.615  0.00  0.00    -0.018 S 
BRANCH  14  16
ATOM     16  N   UNL     1       2.547  -2.715  -3.812  0.00  0.00    -0.297 N 
ATOM     17  H   UNL     1       3.160  -3.460  -3.709  0.00  0.00    +0.154 HD
BRANCH  16  18
ATOM     18  C   UNL     1       2.075  -2.369  -5.082  0.00  0.00    +0.034 A 
ATOM     19  C   UNL     1       1.244  -1.267  -5.239  0.00  0.00    +0.023 A 
ATOM     20  C   UNL     1       0.779  -0.927  -6.494  0.00  0.00    +0.003 A 
ATOM     21  C   UNL     1       1.140  -1.682  -7.595  0.00  0.00    +0.020 A 
ATOM     22  C   UNL     1       1.968  -2.780  -7.443  0.00  0.00    +0.043 A 
ATOM     23  C   UNL     1       2.441  -3.122  -6.189  0.00  0.00    +0.043 A 
ATOM     24 CL   UNL     1       2.418  -3.726  -8.827  0.00  0.00    -0.083 Cl
ENDBRANCH  16  18
ENDBRANCH  14  16
ENDBRANCH   1  14
BRANCH   1  25
ATOM     25  C   UNL     1       3.498  -0.144  -3.521  0.00  0.00    +0.145 C 
BRANCH  25  26
ATOM     26  C   UNL     1       4.934  -0.316  -3.096  0.00  0.00    +0.011 A 
ATOM     27  C   UNL     1       5.574   0.691  -2.400  0.00  0.00    +0.009 A 
ATOM     28  C   UNL     1       6.891   0.533  -2.010  0.00  0.00    +0.001 A 
ATOM     29  C   UNL     1       7.571  -0.631  -2.316  0.00  0.00    +0.004 A 
ATOM     30  C   UNL     1       6.935  -1.641  -3.012  0.00  0.00    +0.046 A 
ATOM     31  C   UNL     1       5.611  -1.488  -3.400  0.00  0.00    +0.125 A 
BRANCH  31  32
ATOM     32  O   UNL     1       4.982  -2.482  -4.080  0.00  0.00    -0.495 OA
ATOM     33  C   UNL     1       5.741  -3.660  -4.357  0.00  0.00    +0.277 C 
ENDBRANCH  31  32
ENDBRANCH  25  26
ENDBRANCH   1  25
TORSDOF 7
