REMARK  Name = ZINC17200450
REMARK  9 active torsions:
REMARK  status: ('A' for Active; 'I' for Inactive)
REMARK    1  A    between atoms: N_14  and  O_15
REMARK    2  A    between atoms: O_15  and  C_16
REMARK    3  A    between atoms: C_16  and  C_17
REMARK    4  A    between atoms: C_17  and  C_19
REMARK    5  A    between atoms: C_17  and  O_36
REMARK    6  A    between atoms: C_19  and  N_20
REMARK    7  A    between atoms: N_20  and  C_21
REMARK    8  A    between atoms: C_21  and  C_22
REMARK    9  A    between atoms: N_29  and  C_30
REMARK                            x       y       z     vdW  Elec       q    Type
REMARK                         _______ _______ _______ _____ _____    ______ ____
ROOT
ATOM      1  C   UNL     1      -5.838   0.865   0.064  0.00  0.00    +0.172 C 
ENDROOT
BRANCH   1   2
ATOM      2  O   UNL     1      -5.384   0.263   1.277  0.00  0.00    -0.387 OA
ATOM      3  H   UNL     1      -5.771   0.646   2.076  0.00  0.00    +0.210 HD
ENDBRANCH   1   2
BRANCH   1   4
ATOM      4  C   UNL     1      -5.482   2.353   0.068  0.00  0.00    +0.295 C 
BRANCH   4   5
ATOM      5  O   UNL     1      -4.061   2.502   0.055  0.00  0.00    -0.391 OA
BRANCH   5  19
ATOM      6  C   UNL     1       1.178   1.781   0.000  0.00  0.00    +0.001 A 
ATOM      7  C   UNL     1      -0.013   1.076   0.008  0.00  0.00    +0.001 A 
ATOM      8  C   UNL     1      -1.220   1.747   0.017  0.00  0.00    +0.011 A 
ATOM      9  C   UNL     1      -1.240   3.138   0.031  0.00  0.00    +0.012 A 
ATOM     10  C   UNL     1      -0.033   3.855   0.023  0.00  0.00    -0.008 A 
ATOM     11  C   UNL     1       1.175   3.162   0.007  0.00  0.00    +0.009 A 
ATOM     12  C   UNL     1      -0.341   5.304   0.033  0.00  0.00    -0.008 A 
ATOM     13  C   UNL     1       0.480   6.428   0.032  0.00  0.00    +0.009 A 
ATOM     14  C   UNL     1      -0.078   7.692   0.044  0.00  0.00    +0.001 A 
ATOM     15  C   UNL     1      -1.453   7.851   0.058  0.00  0.00    +0.001 A 
ATOM     16  C   UNL     1      -2.283   6.747   0.060  0.00  0.00    +0.011 A 
ATOM     17  C   UNL     1      -1.736   5.468   0.048  0.00  0.00    +0.012 A 
ATOM     18  C   UNL     1      -2.351   4.120   0.047  0.00  0.00    +0.118 C 
ATOM     19  N   UNL     1      -3.623   3.849   0.058  0.00  0.00    -0.084 NA
ENDBRANCH   5  19
ENDBRANCH   4   5
ENDBRANCH   1   4
BRANCH   1  20
ATOM     20  C   UNL     1      -7.356   0.704  -0.049  0.00  0.00    +0.144 C 
BRANCH  20  21
ATOM     21  N   UNL     1      -7.697  -0.721  -0.053  0.00  0.00    -0.276 N 
ATOM     22  C   UNL     1      -7.942  -1.358   1.109  0.00  0.00    +0.303 C 
ATOM     23  O   UNL     1      -7.880  -0.751   2.161  0.00  0.00    -0.253 OA
ATOM     24  N   UNL     1      -8.256  -2.669   1.105  0.00  0.00    -0.296 N 
ATOM     25  H   UNL     1      -8.306  -3.153   0.267  0.00  0.00    +0.151 HD
BRANCH  24  26
ATOM     26  C   UNL     1      -8.522  -3.362   2.368  0.00  0.00    +0.074 C 
ATOM     27  C   UNL     1      -7.200  -3.830   2.981  0.00  0.00    +0.022 C 
ATOM     28  C   UNL     1      -7.478  -4.554   4.300  0.00  0.00    +0.002 C 
ATOM     29  C   UNL     1      -8.377  -5.765   4.038  0.00  0.00    +0.000 C 
ATOM     30  C   UNL     1      -9.698  -5.296   3.425  0.00  0.00    +0.002 C 
ATOM     31  C   UNL     1      -9.420  -4.573   2.106  0.00  0.00    +0.022 C 
ENDBRANCH  24  26
BRANCH  21  32
ATOM     32  C   UNL     1      -7.772  -1.452  -1.320  0.00  0.00    +0.183 C 
BRANCH  32  33
ATOM     33  C   UNL     1      -6.420  -2.033  -1.645  0.00  0.00    +0.122 A 
ATOM     34  C   UNL     1      -5.976  -3.247  -1.274  0.00  0.00    +0.046 A 
ATOM     35  C   UNL     1      -4.667  -3.380  -1.790  0.00  0.00    +0.041 A 
ATOM     36  C   UNL     1      -4.389  -2.239  -2.446  0.00  0.00    +0.195 A 
ATOM     37  O   UNL     1      -5.457  -1.429  -2.360  0.00  0.00    -0.466 OA
ENDBRANCH  32  33
ENDBRANCH  21  32
ENDBRANCH  20  21
ENDBRANCH   1  20
TORSDOF 9
