REMARK  Name = ZINC06194638
REMARK  11 active torsions:
REMARK  status: ('A' for Active; 'I' for Inactive)
REMARK    1  A    between atoms: C_1  and  C_2
REMARK    2  A    between atoms: C_2  and  O_3
REMARK    3  A    between atoms: O_3  and  C_4
REMARK    4  A    between atoms: C_4  and  C_6
REMARK    5  A    between atoms: C_11  and  C_13
REMARK    6  A    between atoms: C_11  and  C_27
REMARK    7  A    between atoms: C_11  and  N_69
REMARK    8  A    between atoms: C_17  and  C_26
REMARK    9  A    between atoms: C_19  and  C_25
REMARK   10  A    between atoms: N_31  and  C_32
REMARK   11  A    between atoms: C_32  and  C_33
REMARK                            x       y       z     vdW  Elec       q    Type
REMARK                         _______ _______ _______ _____ _____    ______ ____
ROOT
ATOM      1  C   UNL     1       1.715   2.133   2.522  0.00  0.00    +0.039 C 
ENDROOT
BRANCH   1   2
ATOM      2  C   UNL     1       1.514   3.531   3.046  0.00  0.00    +0.011 A 
ATOM      3  C   UNL     1       0.316   3.891   3.569  0.00  0.00    +0.017 A 
ATOM      4  C   UNL     1       0.154   5.256   4.074  0.00  0.00    -0.001 A 
ATOM      5  C   UNL     1      -1.056   5.684   4.630  0.00  0.00    +0.013 A 
ATOM      6  C   UNL     1      -1.175   6.965   5.089  0.00  0.00    -0.050 A 
ATOM      7  C   UNL     1      -0.106   7.847   5.008  0.00  0.00    +0.008 A 
ATOM      8  C   UNL     1       1.095   7.447   4.463  0.00  0.00    -0.026 A 
ATOM      9  C   UNL     1       1.241   6.147   3.990  0.00  0.00    +0.052 A 
ATOM     10  N   UNL     1       2.432   5.721   3.442  0.00  0.00    -0.322 N 
ATOM     11  H   UNL     1       3.202   6.355   3.383  0.00  0.00    +0.169 HD
ATOM     12  C   UNL     1       2.572   4.464   2.985  0.00  0.00    +0.251 A 
ATOM     13  O   UNL     1       3.639   4.121   2.507  0.00  0.00    -0.268 OA
ATOM     14  C   UNL     1       2.248   8.415   4.382  0.00  0.00    +0.046 C 
ATOM     15  C   UNL     1      -2.479   7.425   5.687  0.00  0.00    +0.044 C 
ENDBRANCH   1   2
BRANCH   1  21
ATOM     16  C   UNL     1       4.380  -0.392   4.714  0.00  0.00    +0.094 C 
ATOM     17  C   UNL     1       4.044   1.001   5.255  0.00  0.00    -0.004 C 
ATOM     18  C   UNL     1       2.742   1.490   4.618  0.00  0.00    -0.077 C 
ATOM     19  C   UNL     1       3.173   0.203   2.611  0.00  0.00    -0.077 C 
ATOM     20  C   UNL     1       4.488  -0.325   3.188  0.00  0.00    -0.004 C 
ATOM     21  N   UNL     1       2.920   1.555   3.152  0.00  0.00    +0.389 N 
ATOM     22  H   UNL     1       3.727   2.154   2.941  0.00  0.00    -0.080 HD
BRANCH  16  23
ATOM     23  C   UNL     1       5.691  -0.855   5.294  0.00  0.00    +0.310 C 
ATOM     24  O   UNL     1       6.297  -0.145   6.062  0.00  0.00    -0.251 OA
BRANCH  23  25
ATOM     25  O   UNL     1       6.187  -2.056   4.958  0.00  0.00    -0.465 OA
BRANCH  25  27
ATOM     26  C   UNL     1       7.856  -3.826   5.057  0.00  0.00    +0.048 C 
ATOM     27  C   UNL     1       7.455  -2.436   5.555  0.00  0.00    +0.229 C 
ENDBRANCH  25  27
ENDBRANCH  23  25
ENDBRANCH  16  23
ENDBRANCH   1  21
BRANCH   1  28
ATOM     28  C   UNL     1       1.918   2.180   1.030  0.00  0.00    +0.143 A 
ATOM     29  N   UNL     1       3.001   2.564   0.399  0.00  0.00    -0.115 NA
ATOM     30  N   UNL     1       2.780   2.466  -0.867  0.00  0.00    -0.023 NA
ATOM     31  N   UNL     1       1.586   2.024  -1.060  0.00  0.00    -0.044 NA
ATOM     32  N   UNL     1       1.024   1.832   0.086  0.00  0.00    -0.226 N 
BRANCH  32  33
ATOM     33  C   UNL     1      -0.336   1.336   0.315  0.00  0.00    +0.182 C 
BRANCH  33  34
ATOM     34  C   UNL     1      -0.311  -0.168   0.412  0.00  0.00    -0.026 A 
ATOM     35  C   UNL     1      -0.477  -0.936  -0.725  0.00  0.00    +0.008 A 
ATOM     36  C   UNL     1      -0.450  -2.315  -0.638  0.00  0.00    +0.038 A 
ATOM     37  C   UNL     1      -0.268  -2.927   0.590  0.00  0.00    +0.123 A 
ATOM     38  C   UNL     1      -0.107  -2.157   1.729  0.00  0.00    +0.038 A 
ATOM     39  C   UNL     1      -0.129  -0.778   1.639  0.00  0.00    +0.008 A 
ATOM     40  F   UNL     1      -0.246  -4.275   0.677  0.00  0.00    -0.205 F 
ENDBRANCH  33  34
ENDBRANCH  32  33
ENDBRANCH   1  28
TORSDOF 8
