REMARK  Name = ZINC59386163
REMARK  3 active torsions:
REMARK  status: ('A' for Active; 'I' for Inactive)
REMARK    1  A    between atoms: C_6  and  C_7
REMARK    2  A    between atoms: C_10  and  C_12
REMARK    3  A    between atoms: N_13  and  C_14
REMARK                            x       y       z     vdW  Elec       q    Type
REMARK                         _______ _______ _______ _____ _____    ______ ____
ROOT
ATOM      1  C   UNL     1      -1.264  -0.763   0.011  0.00  0.00    +0.136 A 
ATOM      2  C   UNL     1      -1.376  -2.124   0.010  0.00  0.00    +0.050 A 
ATOM      3  C   UNL     1      -2.740  -2.425   0.020  0.00  0.00    +0.051 A 
ATOM      4  C   UNL     1      -3.415  -1.218   0.027  0.00  0.00    +0.147 A 
ATOM      5  O   UNL     1      -2.498  -0.228   0.026  0.00  0.00    -0.454 OA
ENDROOT
BRANCH   1  11
ATOM      6  C   UNL     1      -0.017   1.393   0.010  0.00  0.00    +0.012 A 
ATOM      7  C   UNL     1       1.170   2.095   0.002  0.00  0.00    +0.015 A 
ATOM      8  C   UNL     1       2.378   1.419  -0.013  0.00  0.00    +0.013 A 
ATOM      9  C   UNL     1       2.404   0.035  -0.021  0.00  0.00    +0.015 A 
ATOM     10  C   UNL     1       1.225  -0.680  -0.013  0.00  0.00    +0.012 A 
ATOM     11  C   UNL     1       0.002  -0.004   0.002  0.00  0.00    +0.017 A 
ATOM     12  I   UNL     1       4.175   2.496  -0.026  0.00  0.00    -0.044 I 
ENDBRANCH   1  11
BRANCH   4  13
ATOM     13  C   UNL     1      -4.817  -1.051   0.038  0.00  0.00    +0.160 C 
ATOM     14  N   UNL     1      -5.335   0.155   0.043  0.00  0.00    -0.216 NA
BRANCH  14  15
ATOM     15  C   UNL     1      -6.682   0.316   0.054  0.00  0.00    +0.248 A 
ATOM     16  N   UNL     1      -7.349   1.502   0.055  0.00  0.00    -0.242 N 
ATOM     17  H   UNL     1      -6.958   2.389   0.048  0.00  0.00    +0.192 HD
ATOM     18  N   UNL     1      -8.717   1.184   0.067  0.00  0.00    -0.135 NA
ATOM     19  C   UNL     1      -8.809  -0.126   0.073  0.00  0.00    +0.233 A 
ATOM     20  N   UNL     1      -7.584  -0.653   0.059  0.00  0.00    -0.177 NA
ATOM     21  N   UNL     1     -10.000  -0.852   0.086  0.00  0.00    -0.326 N 
ATOM     22  H   UNL     1     -10.851  -0.387   0.091  0.00  0.00    +0.145 HD
ATOM     23  H   UNL     1      -9.977  -1.822   0.089  0.00  0.00    +0.145 HD
ENDBRANCH  14  15
ENDBRANCH   4  13
TORSDOF 3
