REMARK  Name = ZINC38979880
REMARK  7 active torsions:
REMARK  status: ('A' for Active; 'I' for Inactive)
REMARK    1  A    between atoms: C_1  and  C_2
REMARK    2  A    between atoms: C_2  and  C_3
REMARK    3  A    between atoms: C_2  and  C_4
REMARK    4  A    between atoms: C_7  and  N_10
REMARK    5  A    between atoms: N_10  and  C_11
REMARK    6  A    between atoms: N_14  and  S_15
REMARK    7  A    between atoms: S_15  and  C_18
REMARK                            x       y       z     vdW  Elec       q    Type
REMARK                         _______ _______ _______ _____ _____    ______ ____
ROOT
ATOM      1  C   UNL     1       3.916  -2.572  -4.548  0.00  0.00    +0.237 C 
ATOM      2  C   UNL     1       4.942  -1.871  -5.409  0.00  0.00    +0.192 C 
ATOM      3  N   UNL     1       5.232  -0.620  -5.205  0.00  0.00    -0.110 NA
ATOM      4  N   UNL     1       5.551  -2.560  -6.388  0.00  0.00    -0.226 NA
ATOM      5  C   UNL     1       5.276  -3.828  -6.614  0.00  0.00    +0.089 A 
ATOM      6  C   UNL     1       5.938  -4.524  -7.657  0.00  0.00    +0.030 A 
ATOM      7  C   UNL     1       5.659  -5.824  -7.894  0.00  0.00    +0.002 A 
ATOM      8  C   UNL     1       4.719  -6.549  -7.142  0.00  0.00    +0.002 A 
ATOM      9  C   UNL     1       4.032  -5.982  -6.126  0.00  0.00    +0.027 A 
ATOM     10  C   UNL     1       4.278  -4.569  -5.803  0.00  0.00    +0.063 A 
ATOM     11  N   UNL     1       3.634  -3.988  -4.831  0.00  0.00    -0.359 N 
ATOM     12  H   UNL     1       2.984  -4.479  -4.305  0.00  0.00    +0.162 HD
ENDROOT
BRANCH   3  13
ATOM     13  S   UNL     1       6.358   0.135  -6.155  0.00  0.00    +0.102 S 
ATOM     14  O   UNL     1       7.606  -0.484  -5.876  0.00  0.00    -0.146 OA
ATOM     15  O   UNL     1       5.811   0.191  -7.466  0.00  0.00    -0.146 OA
BRANCH  13  16
ATOM     16  C   UNL     1       6.484   1.800  -5.591  0.00  0.00    +0.132 A 
ATOM     17  C   UNL     1       7.666   2.254  -5.037  0.00  0.00    +0.050 A 
ATOM     18  C   UNL     1       7.765   3.561  -4.594  0.00  0.00    +0.043 A 
ATOM     19  C   UNL     1       6.681   4.413  -4.706  0.00  0.00    +0.021 A 
ATOM     20  C   UNL     1       5.499   3.959  -5.260  0.00  0.00    +0.023 A 
ATOM     21  C   UNL     1       5.402   2.654  -5.708  0.00  0.00    +0.068 A 
ATOM     22 CL   UNL     1       3.920   2.085  -6.411  0.00  0.00    -0.082 Cl
ATOM     23 CL   UNL     1       9.249   4.131  -3.897  0.00  0.00    -0.083 Cl
ENDBRANCH  13  16
ENDBRANCH   3  13
BRANCH   1  24
ATOM     24  N   UNL     1       2.656  -1.833  -4.664  0.00  0.00    -0.318 N 
ATOM     25  H   UNL     1       2.294  -1.626  -5.539  0.00  0.00    +0.148 HD
BRANCH  24  29
ATOM     26  C   UNL     1       0.630  -0.622  -1.234  0.00  0.00    -0.045 A 
ATOM     27  C   UNL     1       1.725  -1.460  -1.128  0.00  0.00    +0.006 A 
ATOM     28  C   UNL     1       2.399  -1.864  -2.264  0.00  0.00    +0.023 A 
ATOM     29  C   UNL     1       1.976  -1.427  -3.513  0.00  0.00    +0.029 A 
ATOM     30  C   UNL     1       0.876  -0.586  -3.615  0.00  0.00    +0.023 A 
ATOM     31  C   UNL     1       0.202  -0.191  -2.476  0.00  0.00    +0.006 A 
BRANCH  26  33
ATOM     32  C   UNL     1      -0.640  -1.413   0.744  0.00  0.00    +0.012 C 
ATOM     33  C   UNL     1      -0.103  -0.184   0.008  0.00  0.00    +0.013 C 
ATOM     34  C   UNL     1       0.855   0.581   0.923  0.00  0.00    +0.012 C 
ENDBRANCH  26  33
ENDBRANCH  24  29
ENDBRANCH   1  24
TORSDOF 5
