REMARK  Name = ZINC13216198
REMARK  9 active torsions:
REMARK  status: ('A' for Active; 'I' for Inactive)
REMARK    1  A    between atoms: C_1  and  C_2
REMARK    2  A    between atoms: C_2  and  C_3
REMARK    3  A    between atoms: C_6  and  C_12
REMARK    4  A    between atoms: C_8  and  N_9
REMARK    5  A    between atoms: C_14  and  C_30
REMARK    6  A    between atoms: N_18  and  C_19
REMARK    7  A    between atoms: C_21  and  C_26
REMARK    8  A    between atoms: C_24  and  C_25
REMARK    9  A    between atoms: C_30  and  C_32
REMARK                            x       y       z     vdW  Elec       q    Type
REMARK                         _______ _______ _______ _____ _____    ______ ____
ROOT
ATOM      1  C   UNL     1       2.779  -1.756  -4.244  0.00  0.00    +0.150 C 
ATOM      2  C   UNL     1       2.653  -3.260  -4.316  0.00  0.00    +0.080 C 
ATOM      3  C   UNL     1       1.634  -3.526  -5.165  0.00  0.00    +0.250 C 
ATOM      4  C   UNL     1       1.073  -2.255  -5.664  0.00  0.00    +0.292 C 
ATOM      5  O   UNL     1       0.145  -2.161  -6.443  0.00  0.00    -0.266 OA
ATOM      6  N   UNL     1       1.740  -1.215  -5.128  0.00  0.00    -0.253 N 
ATOM      7  O   UNL     1       1.198  -4.762  -5.505  0.00  0.00    -0.282 OA
ENDROOT
BRANCH   6   8
ATOM      8  C   UNL     1       1.488   0.139  -5.370  0.00  0.00    +0.041 A 
ATOM      9  C   UNL     1       2.300   0.850  -6.240  0.00  0.00    +0.039 A 
ATOM     10  C   UNL     1       2.044   2.201  -6.478  0.00  0.00    +0.065 A 
ATOM     11  C   UNL     1       0.971   2.828  -5.837  0.00  0.00    +0.015 A 
ATOM     12  C   UNL     1       0.170   2.110  -4.973  0.00  0.00    +0.006 A 
ATOM     13  C   UNL     1       0.421   0.770  -4.742  0.00  0.00    -0.029 A 
ATOM     14  C   UNL     1      -0.464  -0.008  -3.801  0.00  0.00    +0.045 C 
BRANCH  10  15
ATOM     15  C   UNL     1       2.903   2.966  -7.403  0.00  0.00    +0.387 C 
ATOM     16  O   UNL     1       3.841   2.416  -7.962  0.00  0.00    -0.241 OA
ATOM     17  O   UNL     1       2.676   4.150  -7.609  0.00  0.00    -0.241 OA
ENDBRANCH  10  15
ENDBRANCH   6   8
BRANCH   1  21
ATOM     18  C   UNL     1       2.142  -0.422  -0.236  0.00  0.00    -0.017 A 
ATOM     19  C   UNL     1       1.227  -1.266  -0.837  0.00  0.00    +0.006 A 
ATOM     20  C   UNL     1       1.433  -1.698  -2.134  0.00  0.00    +0.006 A 
ATOM     21  C   UNL     1       2.554  -1.285  -2.830  0.00  0.00    -0.020 A 
ATOM     22  C   UNL     1       3.468  -0.440  -2.230  0.00  0.00    +0.038 A 
ATOM     23  C   UNL     1       3.260  -0.005  -0.934  0.00  0.00    +0.130 A 
BRANCH  23  24
ATOM     24  N   UNL     1       4.236   0.904  -0.292  0.00  0.00    +0.057 N 
ATOM     25  O   UNL     1       5.126   1.394  -0.947  0.00  0.00    -0.126 OA
ATOM     26  O   UNL     1       4.144   1.156   0.886  0.00  0.00    -0.126 OA
ENDBRANCH  23  24
BRANCH  18  28
ATOM     27  C   UNL     1       1.274   1.437   1.157  0.00  0.00    +0.009 C 
ATOM     28  C   UNL     1       1.917   0.049   1.178  0.00  0.00    +0.034 C 
ENDBRANCH  18  28
ENDBRANCH   1  21
BRANCH   2  29
ATOM     29  C   UNL     1       3.478  -4.243  -3.604  0.00  0.00    +0.230 C 
ATOM     30  O   UNL     1       3.233  -5.432  -3.706  0.00  0.00    -0.283 OA
BRANCH  29  31
ATOM     31  C   UNL     1       4.597  -3.794  -2.770  0.00  0.00    +0.175 A 
ATOM     32  C   UNL     1       5.375  -4.590  -1.958  0.00  0.00    +0.053 A 
ATOM     33  C   UNL     1       6.317  -3.745  -1.354  0.00  0.00    +0.042 A 
ATOM     34  C   UNL     1       6.082  -2.494  -1.810  0.00  0.00    +0.196 A 
ATOM     35  O   UNL     1       5.052  -2.528  -2.665  0.00  0.00    -0.460 OA
ENDBRANCH  29  31
ENDBRANCH   2  29
TORSDOF 7
