REMARK  Name = ZINC08798913
REMARK  13 active torsions:
REMARK  status: ('A' for Active; 'I' for Inactive)
REMARK    1  A    between atoms: C_1  and  C_2
REMARK    2  A    between atoms: C_4  and  S_11
REMARK    3  A    between atoms: C_6  and  C_10
REMARK    4  A    between atoms: C_7  and  O_8
REMARK    5  A    between atoms: O_8  and  C_9
REMARK    6  A    between atoms: S_11  and  N_14
REMARK    7  A    between atoms: N_14  and  C_15
REMARK    8  A    between atoms: C_15  and  C_16
REMARK    9  A    between atoms: C_16  and  C_18
REMARK   10  A    between atoms: C_16  and  N_63
REMARK   11  A    between atoms: N_27  and  C_28
REMARK   12  A    between atoms: C_29  and  N_63
REMARK   13  A    between atoms: C_30  and  N_63
REMARK                            x       y       z     vdW  Elec       q    Type
REMARK                         _______ _______ _______ _____ _____    ______ ____
ROOT
ATOM      1  C   UNL     1       4.299  -2.497   3.492  0.00  0.00    +0.095 C 
ENDROOT
BRANCH   1   2
ATOM      2  N   UNL     1       5.117  -2.745   4.681  0.00  0.00    -0.191 NA
ATOM      3  H   UNL     1       4.842  -2.393   5.542  0.00  0.00    +0.148 HD
BRANCH   2   4
ATOM      4  S   UNL     1       6.513  -3.628   4.556  0.00  0.00    +0.058 S 
ATOM      5  O   UNL     1       7.085  -3.670   5.856  0.00  0.00    -0.153 OA
ATOM      6  O   UNL     1       6.186  -4.805   3.830  0.00  0.00    -0.153 OA
BRANCH   4  10
ATOM      7  C   UNL     1      10.310  -0.086   3.969  0.00  0.00    +0.047 C 
ATOM      8  C   UNL     1       9.364  -1.074   3.337  0.00  0.00    -0.007 A 
ATOM      9  C   UNL     1       8.492  -1.798   4.126  0.00  0.00    +0.035 A 
ATOM     10  C   UNL     1       7.624  -2.706   3.546  0.00  0.00    +0.106 A 
ATOM     11  C   UNL     1       7.630  -2.894   2.177  0.00  0.00    +0.035 A 
ATOM     12  C   UNL     1       8.497  -2.168   1.383  0.00  0.00    -0.007 A 
ATOM     13  C   UNL     1       9.368  -1.257   1.961  0.00  0.00    +0.126 A 
ATOM     14  C   UNL     1       8.499  -2.370  -0.111  0.00  0.00    +0.047 C 
BRANCH  13  15
ATOM     15  O   UNL     1      10.225  -0.546   1.183  0.00  0.00    -0.495 OA
ATOM     16  C   UNL     1      11.509  -1.122   0.936  0.00  0.00    +0.277 C 
ENDBRANCH  13  15
ENDBRANCH   4  10
ENDBRANCH   2   4
ENDBRANCH   1   2
BRANCH   1  17
ATOM     17  C   UNL     1       2.893  -2.071   3.920  0.00  0.00    -0.023 C 
BRANCH  17  18
ATOM     18  C   UNL     1       2.078  -1.730   2.699  0.00  0.00    -0.059 A 
ATOM     19  C   UNL     1       1.078  -2.585   2.274  0.00  0.00    +0.004 A 
ATOM     20  C   UNL     1       0.336  -2.274   1.155  0.00  0.00    +0.023 A 
ATOM     21  C   UNL     1       0.586  -1.097   0.446  0.00  0.00    +0.033 A 
ATOM     22  C   UNL     1       1.584  -0.243   0.879  0.00  0.00    -0.026 A 
ATOM     23  C   UNL     1       2.328  -0.564   2.004  0.00  0.00    +0.007 A 
ATOM     24  C   UNL     1       1.894   1.051   0.169  0.00  0.00    +0.038 C 
ATOM     25  C   UNL     1       1.256   1.039  -1.223  0.00  0.00    +0.024 C 
ATOM     26  C   UNL     1      -0.196   0.568  -1.072  0.00  0.00    +0.105 C 
ATOM     27  N   UNL     1      -0.194  -0.843  -0.681  0.00  0.00    -0.333 N 
ATOM     28  C   UNL     1      -1.563  -1.340  -0.497  0.00  0.00    +0.129 C 
ENDBRANCH  17  18
BRANCH  17  31
ATOM     29  C   UNL     1       2.517  -4.461   3.998  0.00  0.00    -0.096 C 
ATOM     30  C   UNL     1       2.673  -3.193   6.054  0.00  0.00    -0.096 C 
ATOM     31  N   UNL     1       2.220  -3.167   4.647  0.00  0.00    +0.381 N 
ATOM     32  H   UNL     1       1.206  -3.008   4.626  0.00  0.00    -0.082 HD
ENDBRANCH  17  31
ENDBRANCH   1  17
TORSDOF 7
