REMARK  Name = ZINC39676264
REMARK  6 active torsions:
REMARK  status: ('A' for Active; 'I' for Inactive)
REMARK    1  A    between atoms: C_11  and  C_13
REMARK    2  A    between atoms: C_13  and  N_14
REMARK    3  A    between atoms: C_15  and  C_17
REMARK    4  A    between atoms: C_28  and  C_30
REMARK    5  A    between atoms: C_30  and  O_31
REMARK    6  A    between atoms: O_31  and  C_32
REMARK                            x       y       z     vdW  Elec       q    Type
REMARK                         _______ _______ _______ _____ _____    ______ ____
ROOT
ATOM      1  C   UNL     1       8.431  -0.891  -0.090  0.00  0.00    +0.100 C 
ATOM      2  C   UNL     1       8.426  -0.119  -1.428  0.00  0.00    +0.121 C 
ATOM      3  N   UNL     1       9.857   0.123  -1.726  0.00  0.00    -0.297 N 
ATOM      4  C   UNL     1      10.536  -1.130  -1.318  0.00  0.00    +0.115 C 
ATOM      5  C   UNL     1       9.817  -1.554  -0.021  0.00  0.00    -0.004 C 
ATOM      6  C   UNL     1       9.675  -3.072   0.030  0.00  0.00    -0.010 C 
ATOM      7  C   UNL     1      11.063  -3.706   0.156  0.00  0.00    -0.082 C 
ATOM      8  N   UNL     1      11.719  -3.215   1.374  0.00  0.00    +0.379 N 
ATOM      9  C   UNL     1      11.936  -1.766   1.276  0.00  0.00    -0.082 C 
ATOM     10  C   UNL     1      10.585  -1.050   1.197  0.00  0.00    -0.010 C 
ATOM     11  C   UNL     1      10.416   1.233  -2.249  0.00  0.00    +0.253 C 
ATOM     12  O   UNL     1      11.613   1.278  -2.436  0.00  0.00    -0.272 OA
ATOM     13  H   UNL     1      11.134  -3.413   2.172  0.00  0.00    -0.086 HD
ATOM     14  H   UNL     1      12.607  -3.679   1.487  0.00  0.00    -0.086 HD
ENDROOT
BRANCH   1  16
ATOM     15  N   UNL     1       6.784  -2.319   1.079  0.00  0.00    -0.308 N 
ATOM     16  C   UNL     1       7.348  -1.939  -0.084  0.00  0.00    +0.219 C 
ATOM     17  O   UNL     1       6.983  -2.439  -1.127  0.00  0.00    -0.275 OA
ATOM     18  H   UNL     1       7.076  -1.919   1.913  0.00  0.00    +0.149 HD
BRANCH  15  19
ATOM     19  C   UNL     1       5.731  -3.337   1.085  0.00  0.00    +0.178 C 
BRANCH  19  30
ATOM     20  C   UNL     1       4.686  -3.452   7.388  0.00  0.00    +0.001 A 
ATOM     21  C   UNL     1       5.681  -2.533   7.080  0.00  0.00    +0.002 A 
ATOM     22  C   UNL     1       6.079  -2.335   5.777  0.00  0.00    +0.028 A 
ATOM     23  C   UNL     1       5.475  -3.065   4.751  0.00  0.00    +0.078 A 
ATOM     24  C   UNL     1       4.463  -3.998   5.068  0.00  0.00    +0.065 A 
ATOM     25  C   UNL     1       4.076  -4.184   6.393  0.00  0.00    +0.015 A 
ATOM     26  C   UNL     1       3.848  -4.750   3.965  0.00  0.00    +0.259 A 
ATOM     27  O   UNL     1       2.971  -5.569   4.170  0.00  0.00    -0.267 OA
ATOM     28  N   UNL     1       4.294  -4.497   2.712  0.00  0.00    -0.309 N 
ATOM     29  H   UNL     1       3.911  -4.974   1.960  0.00  0.00    +0.170 HD
ATOM     30  C   UNL     1       5.273  -3.579   2.500  0.00  0.00    +0.128 A 
ATOM     31  N   UNL     1       5.835  -2.901   3.453  0.00  0.00    -0.232 NA
ENDBRANCH  19  30
ENDBRANCH  15  19
ENDBRANCH   1  16
BRANCH  11  32
ATOM     32  C   UNL     1       9.553   2.416  -2.603  0.00  0.00    +0.324 C 
BRANCH  32  33
ATOM     33  O   UNL     1      10.370   3.460  -3.136  0.00  0.00    -0.483 OA
BRANCH  33  34
ATOM     34  C   UNL     1       9.742   4.606  -3.508  0.00  0.00    +0.123 A 
ATOM     35  C   UNL     1       8.368   4.727  -3.357  0.00  0.00    +0.046 A 
ATOM     36  C   UNL     1       7.732   5.893  -3.734  0.00  0.00    +0.005 A 
ATOM     37  C   UNL     1       8.463   6.941  -4.263  0.00  0.00    +0.020 A 
ATOM     38  C   UNL     1       9.833   6.824  -4.416  0.00  0.00    +0.044 A 
ATOM     39  C   UNL     1      10.475   5.660  -4.034  0.00  0.00    +0.065 A 
ATOM     40 CL   UNL     1      10.748   8.141  -5.080  0.00  0.00    -0.083 Cl
ENDBRANCH  33  34
ENDBRANCH  32  33
ENDBRANCH  11  32
TORSDOF 6
