REMARK  Name = ZINC20214193
REMARK  9 active torsions:
REMARK  status: ('A' for Active; 'I' for Inactive)
REMARK    1  A    between atoms: C_1  and  C_2
REMARK    2  A    between atoms: C_2  and  O_3
REMARK    3  A    between atoms: O_3  and  C_4
REMARK    4  A    between atoms: C_4  and  C_6
REMARK    5  A    between atoms: C_7  and  C_21
REMARK    6  A    between atoms: C_12  and  C_14
REMARK    7  A    between atoms: C_21  and  N_22
REMARK    8  A    between atoms: N_25  and  C_28
REMARK    9  A    between atoms: C_33  and  C_34
REMARK                            x       y       z     vdW  Elec       q    Type
REMARK                         _______ _______ _______ _____ _____    ______ ____
ROOT
ATOM      1  C   UNL     1      -1.218   2.273  -0.325  0.00  0.00    +0.079 C 
ATOM      2  C   UNL     1      -0.125   1.511  -0.105  0.00  0.00    +0.038 C 
ATOM      3  N   UNL     1       1.068   2.075   0.247  0.00  0.00    -0.271 N 
ATOM      4  C   UNL     1       1.254   3.393   0.390  0.00  0.00    +0.304 C 
ATOM      5  O   UNL     1       2.355   3.802   0.701  0.00  0.00    -0.252 OA
ATOM      6  N   UNL     1       0.257   4.282   0.204  0.00  0.00    -0.288 N 
ATOM      7  C   UNL     1      -1.073   3.774  -0.173  0.00  0.00    +0.144 C 
ATOM      8  H   UNL     1       1.945   1.437   0.431  0.00  0.00    +0.156 HD
ATOM      9  H   UNL     1       0.419   5.362   0.328  0.00  0.00    +0.151 HD
ENDROOT
BRANCH   7  10
ATOM     10  C   UNL     1      -2.058   4.233   0.870  0.00  0.00    -0.022 A 
ATOM     11  C   UNL     1      -1.765   4.079   2.212  0.00  0.00    +0.007 A 
ATOM     12  C   UNL     1      -2.666   4.505   3.170  0.00  0.00    +0.020 A 
ATOM     13  C   UNL     1      -3.866   5.075   2.785  0.00  0.00    +0.041 A 
ATOM     14  C   UNL     1      -4.162   5.223   1.442  0.00  0.00    +0.020 A 
ATOM     15  C   UNL     1      -3.258   4.802   0.485  0.00  0.00    +0.007 A 
ATOM     16 CL   UNL     1      -5.002   5.604   3.988  0.00  0.00    -0.084 Cl
ENDBRANCH   7  10
BRANCH   1  17
ATOM     17  C   UNL     1      -2.455   1.691  -0.685  0.00  0.00    +0.339 C 
ATOM     18  O   UNL     1      -2.581   0.480  -0.685  0.00  0.00    -0.245 OA
BRANCH  17  19
ATOM     19  O   UNL     1      -3.497   2.477  -1.028  0.00  0.00    -0.462 OA
BRANCH  19  21
ATOM     20  C   UNL     1      -5.774   2.868  -1.737  0.00  0.00    +0.048 C 
ATOM     21  C   UNL     1      -4.716   1.821  -1.381  0.00  0.00    +0.229 C 
ENDBRANCH  19  21
ENDBRANCH  17  19
ENDBRANCH   1  17
BRANCH   2  22
ATOM     22  C   UNL     1      -0.225   0.014  -0.244  0.00  0.00    +0.136 C 
BRANCH  22  23
ATOM     23  N   UNL     1      -0.710  -0.564   1.016  0.00  0.00    -0.294 NA
ATOM     24  C   UNL     1       0.274  -0.381   2.092  0.00  0.00    +0.103 C 
ATOM     25  C   UNL     1      -0.300  -0.924   3.403  0.00  0.00    +0.120 C 
ATOM     26  N   UNL     1      -0.636  -2.345   3.236  0.00  0.00    -0.327 N 
ATOM     27  C   UNL     1      -1.620  -2.527   2.160  0.00  0.00    +0.120 C 
ATOM     28  C   UNL     1      -1.046  -1.984   0.849  0.00  0.00    +0.103 C 
BRANCH  26  29
ATOM     29  C   UNL     1      -1.097  -2.894   4.434  0.00  0.00    +0.034 A 
ATOM     30  C   UNL     1      -2.272  -2.424   5.009  0.00  0.00    +0.043 A 
ATOM     31  C   UNL     1      -2.727  -2.973   6.193  0.00  0.00    +0.043 A 
ATOM     32  C   UNL     1      -2.009  -3.983   6.810  0.00  0.00    +0.020 A 
ATOM     33  C   UNL     1      -0.838  -4.449   6.243  0.00  0.00    +0.006 A 
ATOM     34  C   UNL     1      -0.380  -3.907   5.057  0.00  0.00    -0.029 A 
ATOM     35  C   UNL     1       0.898  -4.415   4.440  0.00  0.00    +0.045 C 
ATOM     36 CL   UNL     1      -4.198  -2.392   6.909  0.00  0.00    -0.083 Cl
ENDBRANCH  26  29
ENDBRANCH  22  23
ENDBRANCH   2  22
TORSDOF 7
