REMARK  Name = ZINC60161535
REMARK  6 active torsions:
REMARK  status: ('A' for Active; 'I' for Inactive)
REMARK    1  A    between atoms: C_4  and  C_7
REMARK    2  A    between atoms: C_7  and  N_8
REMARK    3  A    between atoms: C_13  and  C_15
REMARK    4  A    between atoms: C_15  and  N_16
REMARK    5  A    between atoms: N_22  and  S_25
REMARK    6  A    between atoms: S_25  and  C_28
REMARK                            x       y       z     vdW  Elec       q    Type
REMARK                         _______ _______ _______ _____ _____    ______ ____
ROOT
ATOM      1  N   UNL     1       4.734  -2.627  -1.008  0.00  0.00    -0.301 N 
ATOM      2  C   UNL     1       4.370  -3.544  -1.926  0.00  0.00    +0.302 C 
ATOM      3  O   UNL     1       4.403  -4.728  -1.648  0.00  0.00    -0.253 OA
ATOM      4  N   UNL     1       3.968  -3.150  -3.150  0.00  0.00    -0.283 N 
ATOM      5  C   UNL     1       3.458  -4.129  -4.121  0.00  0.00    +0.126 C 
ATOM      6  C   UNL     1       2.064  -3.683  -4.580  0.00  0.00    +0.128 C 
ATOM      7  N   UNL     1       2.128  -2.267  -4.968  0.00  0.00    -0.174 NA
ATOM      8  C   UNL     1       2.639  -1.288  -3.998  0.00  0.00    +0.128 C 
ATOM      9  C   UNL     1       4.027  -1.734  -3.537  0.00  0.00    +0.126 C 
ATOM     10  H   UNL     1       4.778  -1.689  -1.251  0.00  0.00    +0.150 HD
ENDROOT
BRANCH   7  11
ATOM     11  S   UNL     1       1.635  -1.782  -6.473  0.00  0.00    +0.061 S 
ATOM     12  O   UNL     1       2.308  -0.561  -6.748  0.00  0.00    -0.153 OA
ATOM     13  O   UNL     1       1.742  -2.918  -7.321  0.00  0.00    -0.153 OA
BRANCH  11  14
ATOM     14  C   UNL     1      -0.081  -1.398  -6.361  0.00  0.00    +0.105 A 
ATOM     15  C   UNL     1      -1.026  -2.382  -6.586  0.00  0.00    +0.028 A 
ATOM     16  C   UNL     1      -2.372  -2.080  -6.498  0.00  0.00    +0.002 A 
ATOM     17  C   UNL     1      -2.773  -0.796  -6.183  0.00  0.00    +0.000 A 
ATOM     18  C   UNL     1      -1.828   0.188  -5.957  0.00  0.00    +0.002 A 
ATOM     19  C   UNL     1      -0.482  -0.115  -6.041  0.00  0.00    +0.028 A 
ENDBRANCH  11  14
ENDBRANCH   7  11
BRANCH   1  20
ATOM     20  C   UNL     1       5.064  -3.046   0.356  0.00  0.00    +0.090 C 
BRANCH  20  26
ATOM     21  N   UNL     1       6.354  -0.979   0.587  0.00  0.00    +0.385 N 
ATOM     22  C   UNL     1       6.665   0.170   1.446  0.00  0.00    -0.078 C 
ATOM     23  C   UNL     1       5.422   1.050   1.597  0.00  0.00    -0.019 C 
ATOM     24  C   UNL     1       4.295   0.228   2.228  0.00  0.00    -0.003 C 
ATOM     25  C   UNL     1       4.030  -1.007   1.363  0.00  0.00    -0.014 C 
ATOM     26  C   UNL     1       5.324  -1.810   1.220  0.00  0.00    -0.051 C 
ATOM     27  H   UNL     1       6.016  -0.648  -0.305  0.00  0.00    -0.081 HD
BRANCH  21  28
ATOM     28  C   UNL     1       7.569  -1.778   0.382  0.00  0.00    -0.043 C 
BRANCH  28  32
ATOM     29  C   UNL     1      10.432   0.515  -1.808  0.00  0.00    +0.000 A 
ATOM     30  C   UNL     1      10.418   0.565  -0.426  0.00  0.00    +0.000 A 
ATOM     31  C   UNL     1       9.491  -0.177   0.282  0.00  0.00    +0.002 A 
ATOM     32  C   UNL     1       8.579  -0.968  -0.391  0.00  0.00    -0.064 A 
ATOM     33  C   UNL     1       8.593  -1.017  -1.772  0.00  0.00    +0.002 A 
ATOM     34  C   UNL     1       9.520  -0.276  -2.481  0.00  0.00    +0.000 A 
ENDBRANCH  28  32
ENDBRANCH  21  28
ENDBRANCH  20  26
ENDBRANCH   1  20
TORSDOF 6
