REMARK  Name = ZINC20069609
REMARK  7 active torsions:
REMARK  status: ('A' for Active; 'I' for Inactive)
REMARK    1  A    between atoms: C_1  and  C_2
REMARK    2  A    between atoms: C_2  and  C_4
REMARK    3  A    between atoms: C_2  and  N_14
REMARK    4  A    between atoms: C_15  and  C_17
REMARK    5  A    between atoms: C_17  and  S_18
REMARK    6  A    between atoms: S_18  and  C_19
REMARK    7  A    between atoms: C_25  and  C_29
REMARK                            x       y       z     vdW  Elec       q    Type
REMARK                         _______ _______ _______ _____ _____    ______ ____
ROOT
ATOM      1  N   UNL     1      -0.749   3.044   1.275  0.00  0.00    -0.308 N 
ATOM      2  C   UNL     1      -1.720   3.708   0.618  0.00  0.00    +0.224 C 
ATOM      3  O   UNL     1      -2.578   3.094   0.021  0.00  0.00    -0.275 OA
ATOM      4  H   UNL     1       0.029   3.602   1.817  0.00  0.00    +0.149 HD
ENDROOT
BRANCH   1   6
ATOM      5  C   UNL     1      -0.013   1.086   0.008  0.00  0.00    +0.033 C 
ATOM      6  C   UNL     1      -0.729   1.579   1.267  0.00  0.00    +0.100 C 
BRANCH   6   7
ATOM      7  C   UNL     1       0.000   1.080   2.488  0.00  0.00    -0.027 A 
ATOM      8  C   UNL     1       1.144   1.722   2.924  0.00  0.00    +0.006 A 
ATOM      9  C   UNL     1       1.804   1.262   4.044  0.00  0.00    +0.004 A 
ATOM     10  C   UNL     1       1.335   0.149   4.731  0.00  0.00    -0.044 A 
ATOM     11  C   UNL     1       0.197  -0.492   4.296  0.00  0.00    -0.044 A 
ATOM     12  C   UNL     1      -0.469  -0.023   3.171  0.00  0.00    +0.009 A 
ATOM     13  C   UNL     1      -0.373  -1.697   4.997  0.00  0.00    +0.035 C 
ATOM     14  C   UNL     1       0.672  -2.330   5.913  0.00  0.00    +0.005 C 
ATOM     15  C   UNL     1       1.261  -1.232   6.806  0.00  0.00    +0.005 C 
ATOM     16  C   UNL     1       2.113  -0.309   5.937  0.00  0.00    +0.035 C 
ENDBRANCH   6   7
ENDBRANCH   1   6
BRANCH   2  17
ATOM     17  C   UNL     1      -1.741   5.215   0.626  0.00  0.00    +0.173 C 
BRANCH  17  18
ATOM     18  S   UNL     1      -3.159   5.806  -0.338  0.00  0.00    -0.076 S 
BRANCH  18  19
ATOM     19  C   UNL     1      -3.044   7.561  -0.233  0.00  0.00    +0.196 A 
ATOM     20  N   UNL     1      -2.123   8.245   0.408  0.00  0.00    -0.122 NA
ATOM     21  N   UNL     1      -2.335   9.507   0.282  0.00  0.00    -0.127 NA
ATOM     22  C   UNL     1      -3.413   9.706  -0.454  0.00  0.00    +0.180 A 
ATOM     23  N   UNL     1      -3.891   8.462  -0.808  0.00  0.00    -0.276 N 
ATOM     24  C   UNL     1      -5.018   8.346  -1.575  0.00  0.00    +0.107 A 
ATOM     25  C   UNL     1      -5.668   9.446  -2.005  0.00  0.00    +0.073 A 
ATOM     26  C   UNL     1      -5.201  10.729  -1.666  0.00  0.00    +0.037 A 
ATOM     27  C   UNL     1      -4.086  10.863  -0.899  0.00  0.00    +0.086 A 
ATOM     28 CL   UNL     1      -3.497  12.439  -0.472  0.00  0.00    -0.080 Cl
BRANCH  25  29
ATOM     29  C   UNL     1      -6.904   9.299  -2.855  0.00  0.00    +0.419 C 
ATOM     30  F   UNL     1      -7.401  10.567  -3.177  0.00  0.00    -0.166 F 
ATOM     31  F   UNL     1      -6.583   8.612  -4.030  0.00  0.00    -0.166 F 
ATOM     32  F   UNL     1      -7.875   8.584  -2.146  0.00  0.00    -0.166 F 
ENDBRANCH  25  29
ENDBRANCH  18  19
ENDBRANCH  17  18
ENDBRANCH   2  17
TORSDOF 6
