REMARK  Name = ZINC22516094
REMARK  7 active torsions:
REMARK  status: ('A' for Active; 'I' for Inactive)
REMARK    1  A    between atoms: C_4  and  C_7
REMARK    2  A    between atoms: C_7  and  C_8
REMARK    3  A    between atoms: C_8  and  C_31
REMARK    4  A    between atoms: N_11  and  C_15
REMARK    5  A    between atoms: C_15  and  C_16
REMARK    6  A    between atoms: C_18  and  C_21
REMARK    7  A    between atoms: C_24  and  C_27
REMARK                            x       y       z     vdW  Elec       q    Type
REMARK                         _______ _______ _______ _____ _____    ______ ____
ROOT
ATOM      1  C   UNL     1       1.419  -0.406  -0.014  0.00  0.00    +0.142 C 
ATOM      2  C   UNL     1       2.164   0.914  -0.014  0.00  0.00    +0.252 C 
ATOM      3  O   UNL     1       3.365   1.077  -0.025  0.00  0.00    -0.272 OA
ATOM      4  N   UNL     1       1.213   1.869   0.001  0.00  0.00    -0.215 N 
ATOM      5  C   UNL     1      -0.016   1.341   0.009  0.00  0.00    +0.310 C 
ATOM      6  O   UNL     1      -1.036   2.003   0.018  0.00  0.00    -0.252 OA
ATOM      7  N   UNL     1       0.002  -0.004   0.002  0.00  0.00    -0.281 N 
ATOM      8  H   UNL     1      -0.787  -0.770   0.005  0.00  0.00    +0.152 HD
ENDROOT
BRANCH   1   9
ATOM      9  C   UNL     1       1.734  -1.192  -1.260  0.00  0.00    -0.015 A 
ATOM     10  C   UNL     1       2.735  -2.145  -1.242  0.00  0.00    +0.006 A 
ATOM     11  C   UNL     1       3.020  -2.869  -2.385  0.00  0.00    +0.000 A 
ATOM     12  C   UNL     1       2.310  -2.634  -3.548  0.00  0.00    +0.000 A 
ATOM     13  C   UNL     1       1.313  -1.678  -3.567  0.00  0.00    +0.000 A 
ATOM     14  C   UNL     1       1.024  -0.957  -2.423  0.00  0.00    +0.006 A 
ENDBRANCH   1   9
BRANCH   1  15
ATOM     15  C   UNL     1       1.762  -1.218   1.237  0.00  0.00    +0.075 C 
BRANCH  15  19
ATOM     16  C   UNL     1       0.664   0.999   4.719  0.00  0.00    +0.000 A 
ATOM     17  C   UNL     1      -0.246   0.142   4.130  0.00  0.00    +0.000 A 
ATOM     18  C   UNL     1       0.109  -0.576   3.003  0.00  0.00    +0.004 A 
ATOM     19  C   UNL     1       1.375  -0.436   2.466  0.00  0.00    -0.045 A 
ATOM     20  C   UNL     1       2.287   0.418   3.058  0.00  0.00    +0.004 A 
ATOM     21  C   UNL     1       1.930   1.139   4.182  0.00  0.00    +0.000 A 
ENDBRANCH  15  19
ENDBRANCH   1  15
BRANCH   4  22
ATOM     22  C   UNL     1       1.491   3.307   0.005  0.00  0.00    +0.216 C 
BRANCH  22  23
ATOM     23  C   UNL     1       1.600   3.794   1.427  0.00  0.00    +0.246 A 
ATOM     24  N   UNL     1       2.690   3.840   2.152  0.00  0.00    -0.190 NA
ATOM     25  C   UNL     1       2.310   4.344   3.348  0.00  0.00    +0.202 A 
ATOM     26  N   UNL     1       1.023   4.564   3.282  0.00  0.00    -0.056 NA
ATOM     27  O   UNL     1       0.602   4.254   2.187  0.00  0.00    -0.336 OA
BRANCH  25  28
ATOM     28  C   UNL     1       3.188   4.595   4.517  0.00  0.00    +0.022 A 
ATOM     29  C   UNL     1       4.549   4.306   4.445  0.00  0.00    +0.012 A 
ATOM     30  C   UNL     1       5.362   4.545   5.534  0.00  0.00    +0.013 A 
ATOM     31  C   UNL     1       4.826   5.062   6.700  0.00  0.00    +0.055 A 
ATOM     32  C   UNL     1       3.474   5.346   6.779  0.00  0.00    +0.013 A 
ATOM     33  C   UNL     1       2.653   5.115   5.694  0.00  0.00    +0.012 A 
BRANCH  31  34
ATOM     34  C   UNL     1       5.717   5.316   7.888  0.00  0.00    +0.417 C 
ATOM     35  F   UNL     1       5.761   4.172   8.692  0.00  0.00    -0.166 F 
ATOM     36  F   UNL     1       7.008   5.625   7.445  0.00  0.00    -0.166 F 
ATOM     37  F   UNL     1       5.210   6.388   8.630  0.00  0.00    -0.166 F 
ENDBRANCH  31  34
ENDBRANCH  25  28
ENDBRANCH  22  23
ENDBRANCH   4  22
TORSDOF 7
