REMARK  Name = ZINC30009021
REMARK  8 active torsions:
REMARK  status: ('A' for Active; 'I' for Inactive)
REMARK    1  A    between atoms: C_1  and  C_2
REMARK    2  A    between atoms: C_2  and  O_3
REMARK    3  A    between atoms: O_3  and  C_4
REMARK    4  A    between atoms: C_4  and  C_6
REMARK    5  A    between atoms: C_7  and  C_19
REMARK    6  A    between atoms: C_12  and  C_14
REMARK    7  A    between atoms: C_19  and  S_20
REMARK    8  A    between atoms: S_20  and  C_21
REMARK                            x       y       z     vdW  Elec       q    Type
REMARK                         _______ _______ _______ _____ _____    ______ ____
ROOT
ATOM      1  C   UNL     1       1.930  -2.097  -1.354  0.00  0.00    +0.082 C 
ATOM      2  C   UNL     1       3.020  -2.757  -1.801  0.00  0.00    +0.034 C 
ATOM      3  N   UNL     1       4.130  -2.896  -1.019  0.00  0.00    -0.272 N 
ATOM      4  C   UNL     1       4.230  -2.404   0.223  0.00  0.00    +0.304 C 
ATOM      5  O   UNL     1       5.260  -2.579   0.844  0.00  0.00    -0.252 OA
ATOM      6  N   UNL     1       3.224  -1.722   0.807  0.00  0.00    -0.285 N 
ATOM      7  C   UNL     1       1.981  -1.517   0.045  0.00  0.00    +0.179 C 
ATOM      8  H   UNL     1       5.008  -3.437  -1.401  0.00  0.00    +0.156 HD
ATOM      9  H   UNL     1       3.316  -1.323   1.827  0.00  0.00    +0.151 HD
ENDROOT
BRANCH   7  10
ATOM     10  C   UNL     1       1.739  -0.033  -0.058  0.00  0.00    +0.130 A 
ATOM     11  C   UNL     1       0.546   0.578   0.049  0.00  0.00    +0.047 A 
ATOM     12  C   UNL     1       0.779   1.964  -0.110  0.00  0.00    +0.041 A 
ATOM     13  C   UNL     1       2.102   2.116  -0.304  0.00  0.00    +0.195 A 
ATOM     14  O   UNL     1       2.678   0.903  -0.272  0.00  0.00    -0.466 OA
ENDBRANCH   7  10
BRANCH   1  15
ATOM     15  C   UNL     1       0.779  -1.952  -2.164  0.00  0.00    +0.339 C 
ATOM     16  O   UNL     1       0.809  -2.297  -3.331  0.00  0.00    -0.245 OA
BRANCH  15  17
ATOM     17  O   UNL     1      -0.352  -1.432  -1.643  0.00  0.00    -0.462 OA
BRANCH  17  19
ATOM     18  C   UNL     1      -2.655  -0.709  -1.755  0.00  0.00    +0.048 C 
ATOM     19  C   UNL     1      -1.475  -1.315  -2.518  0.00  0.00    +0.229 C 
ENDBRANCH  17  19
ENDBRANCH  15  17
ENDBRANCH   1  15
BRANCH   2  20
ATOM     20  C   UNL     1       3.010  -3.350  -3.187  0.00  0.00    +0.128 C 
BRANCH  20  21
ATOM     21  S   UNL     1       3.884  -2.244  -4.322  0.00  0.00    -0.087 S 
BRANCH  21  22
ATOM     22  C   UNL     1       3.725  -3.156  -5.821  0.00  0.00    +0.123 C 
ATOM     23  N   UNL     1       3.094  -4.298  -5.826  0.00  0.00    -0.382 N 
ATOM     24  N   UNL     1       4.265  -2.664  -6.987  0.00  0.00    -0.340 N 
ATOM     25  H   UNL     1       2.994  -4.867  -6.762  0.00  0.00    +0.158 HD
ATOM     26  H   UNL     1       4.166  -3.233  -7.923  0.00  0.00    +0.144 HD
ATOM     27  H   UNL     1       4.797  -1.701  -6.983  0.00  0.00    +0.144 HD
ATOM     28  H   UNL     1       2.661  -4.691  -4.894  0.00  0.00    +0.158 HD
ENDBRANCH  21  22
ENDBRANCH  20  21
ENDBRANCH   2  20
TORSDOF 7
