REMARK  Name = ZINC60135552
REMARK  6 active torsions:
REMARK  status: ('A' for Active; 'I' for Inactive)
REMARK    1  A    between atoms: C_1  and  C_2
REMARK    2  A    between atoms: C_8  and  N_10
REMARK    3  A    between atoms: C_11  and  C_13
REMARK    4  A    between atoms: C_18  and  C_21
REMARK    5  A    between atoms: N_23  and  C_24
REMARK    6  A    between atoms: C_30  and  C_32
REMARK                            x       y       z     vdW  Elec       q    Type
REMARK                         _______ _______ _______ _____ _____    ______ ____
ROOT
ATOM      1  C   UNL     1       4.209   0.649   2.377  0.00  0.00    +0.076 C 
ATOM      2  C   UNL     1       5.088  -0.278   1.537  0.00  0.00    +0.013 C 
ATOM      3  C   UNL     1       6.524   0.251   1.526  0.00  0.00    +0.001 C 
ATOM      4  C   UNL     1       7.059   0.302   2.958  0.00  0.00    +0.013 C 
ATOM      5  C   UNL     1       6.180   1.230   3.799  0.00  0.00    +0.076 C 
ATOM      6  C   UNL     1       4.745   0.700   3.810  0.00  0.00    +0.025 C 
ENDROOT
BRANCH   1   8
ATOM      7  N   UNL     1       2.116  -0.004   1.231  0.00  0.00    -0.312 N 
ATOM      8  C   UNL     1       2.795   0.128   2.388  0.00  0.00    +0.216 C 
ATOM      9  O   UNL     1       2.268  -0.174   3.438  0.00  0.00    -0.276 OA
ATOM     10  H   UNL     1       2.538   0.237   0.392  0.00  0.00    +0.149 HD
BRANCH   7  17
ATOM     11  C   UNL     1      -0.019   1.526   0.010  0.00  0.00    +0.009 C 
ATOM     12  C   UNL     1       0.002  -0.004   0.002  0.00  0.00    +0.006 C 
ATOM     13  C   UNL     1       0.718  -0.497  -1.257  0.00  0.00    +0.005 C 
ATOM     14  C   UNL     1       0.739  -2.027  -1.265  0.00  0.00    +0.000 C 
ATOM     15  C   UNL     1       1.479  -2.534  -0.026  0.00  0.00    +0.002 C 
ATOM     16  C   UNL     1       0.763  -2.041   1.233  0.00  0.00    +0.022 C 
ATOM     17  C   UNL     1       0.742  -0.511   1.242  0.00  0.00    +0.076 C 
ENDBRANCH   7  17
ENDBRANCH   1   8
BRANCH   5  18
ATOM     18  C   UNL     1       6.707   1.280   5.210  0.00  0.00    +0.216 C 
ATOM     19  O   UNL     1       6.005   0.927   6.133  0.00  0.00    -0.276 OA
ATOM     20  N   UNL     1       7.960   1.717   5.445  0.00  0.00    -0.312 N 
ATOM     21  H   UNL     1       8.523   2.000   4.707  0.00  0.00    +0.149 HD
BRANCH  20  22
ATOM     22  C   UNL     1       8.473   1.766   6.817  0.00  0.00    +0.076 C 
ATOM     23  C   UNL     1       8.048   3.080   7.474  0.00  0.00    +0.022 C 
ATOM     24  C   UNL     1       8.614   4.256   6.676  0.00  0.00    +0.002 C 
ATOM     25  C   UNL     1      10.142   4.168   6.652  0.00  0.00    +0.000 C 
ATOM     26  C   UNL     1      10.567   2.854   5.995  0.00  0.00    +0.005 C 
ATOM     27  C   UNL     1      10.001   1.678   6.793  0.00  0.00    +0.006 C 
ATOM     28  C   UNL     1      10.426   0.363   6.136  0.00  0.00    +0.009 C 
ENDBRANCH  20  22
ENDBRANCH   5  18
TORSDOF 4
