REMARK  Name = ZINC03098430
REMARK  6 active torsions:
REMARK  status: ('A' for Active; 'I' for Inactive)
REMARK    1  A    between atoms: C_1  and  C_2
REMARK    2  A    between atoms: C_2  and  O_3
REMARK    3  A    between atoms: O_3  and  C_4
REMARK    4  A    between atoms: C_4  and  C_6
REMARK    5  A    between atoms: C_7  and  C_28
REMARK    6  A    between atoms: C_11  and  C_13
REMARK                            x       y       z     vdW  Elec       q    Type
REMARK                         _______ _______ _______ _____ _____    ______ ____
ROOT
ATOM      1  C   UNL     1      -0.689   1.722   3.737  0.00  0.00    +0.065 C 
ATOM      2  C   UNL     1      -0.437   1.173   4.938  0.00  0.00    +0.016 C 
ATOM      3  N   UNL     1      -1.179   1.528   6.030  0.00  0.00    -0.321 N 
ATOM      4  C   UNL     1      -1.896   2.694   6.038  0.00  0.00    +0.015 C 
ATOM      5  C   UNL     1      -2.213   3.310   4.880  0.00  0.00    +0.024 C 
ATOM      6  C   UNL     1      -1.786   2.731   3.557  0.00  0.00    +0.093 C 
ATOM      7  C   UNL     1      -2.949   4.508   4.873  0.00  0.00    +0.162 C 
ATOM      8  O   UNL     1      -3.203   5.047   3.814  0.00  0.00    -0.292 OA
ATOM      9  C   UNL     1      -3.427   5.136   6.154  0.00  0.00    +0.080 C 
ATOM     10  C   UNL     1      -3.632   4.036   7.202  0.00  0.00    +0.014 C 
ATOM     11  C   UNL     1      -2.316   3.272   7.367  0.00  0.00    +0.051 C 
ATOM     12  C   UNL     1       0.670   0.161   5.081  0.00  0.00    +0.061 C 
ATOM     13  H   UNL     1      -1.203   0.873   6.914  0.00  0.00    +0.152 HD
ENDROOT
BRANCH   6  14
ATOM     14  C   UNL     1      -2.970   2.063   2.908  0.00  0.00    -0.027 A 
ATOM     15  C   UNL     1      -3.572   1.000   3.510  0.00  0.00    +0.005 A 
ATOM     16  C   UNL     1      -4.668   0.370   2.925  0.00  0.00    +0.001 A 
ATOM     17  C   UNL     1      -5.170   0.799   1.735  0.00  0.00    +0.008 A 
ATOM     18  C   UNL     1      -4.577   1.893   1.083  0.00  0.00    -0.018 A 
ATOM     19  C   UNL     1      -3.464   2.538   1.681  0.00  0.00    -0.014 A 
ATOM     20  C   UNL     1      -2.867   3.628   1.026  0.00  0.00    +0.009 A 
ATOM     21  C   UNL     1      -3.369   4.057  -0.164  0.00  0.00    +0.001 A 
ATOM     22  C   UNL     1      -4.466   3.427  -0.748  0.00  0.00    +0.001 A 
ATOM     23  C   UNL     1      -5.067   2.365  -0.147  0.00  0.00    +0.008 A 
ENDBRANCH   6  14
BRANCH   1  24
ATOM     24  C   UNL     1       0.097   1.346   2.623  0.00  0.00    +0.338 C 
ATOM     25  O   UNL     1       1.068   0.628   2.778  0.00  0.00    -0.245 OA
BRANCH  24  26
ATOM     26  O   UNL     1      -0.228   1.783   1.389  0.00  0.00    -0.462 OA
BRANCH  26  28
ATOM     27  C   UNL     1       0.087   1.954  -1.001  0.00  0.00    +0.048 C 
ATOM     28  C   UNL     1       0.610   1.364   0.310  0.00  0.00    +0.229 C 
ENDBRANCH  26  28
ENDBRANCH  24  26
ENDBRANCH   1  24
TORSDOF 4
