REMARK  Name = ZINC03145974
REMARK  10 active torsions:
REMARK  status: ('A' for Active; 'I' for Inactive)
REMARK    1  A    between atoms: C_1  and  C_2
REMARK    2  A    between atoms: C_5  and  N_9
REMARK    3  A    between atoms: C_7  and  C_8
REMARK    4  A    between atoms: N_9  and  C_10
REMARK    5  A    between atoms: N_9  and  S_27
REMARK    6  A    between atoms: C_10  and  C_11
REMARK    7  A    between atoms: N_13  and  N_14
REMARK    8  A    between atoms: C_15  and  C_16
REMARK    9  A    between atoms: C_25  and  O_26
REMARK   10  A    between atoms: S_27  and  C_30
REMARK                            x       y       z     vdW  Elec       q    Type
REMARK                         _______ _______ _______ _____ _____    ______ ____
ROOT
ATOM      1  C   UNL     1       0.610  -4.899   1.122  0.00  0.00    +0.228 C 
ENDROOT
BRANCH   1   2
ATOM      2  C   UNL     1      -0.456  -5.063   2.175  0.00  0.00    +0.251 C 
ATOM      3  O   UNL     1      -1.567  -4.613   1.989  0.00  0.00    -0.272 OA
ATOM      4  N   UNL     1      -0.174  -5.709   3.324  0.00  0.00    -0.206 N 
ATOM      5  H   UNL     1       0.714  -6.069   3.473  0.00  0.00    +0.177 HD
BRANCH   4   6
ATOM      6  N   UNL     1      -1.165  -5.862   4.303  0.00  0.00    -0.188 NA
ATOM      7  C   UNL     1      -0.894  -6.485   5.410  0.00  0.00    +0.142 C 
BRANCH   7   8
ATOM      8  C   UNL     1      -1.933  -6.645   6.437  0.00  0.00    +0.044 A 
ATOM      9  C   UNL     1      -1.643  -7.338   7.691  0.00  0.00    -0.006 A 
ATOM     10  C   UNL     1      -0.376  -7.870   7.956  0.00  0.00    +0.009 A 
ATOM     11  C   UNL     1      -0.146  -8.509   9.138  0.00  0.00    +0.001 A 
ATOM     12  C   UNL     1      -1.157  -8.640  10.088  0.00  0.00    +0.001 A 
ATOM     13  C   UNL     1      -2.401  -8.135   9.862  0.00  0.00    +0.008 A 
ATOM     14  C   UNL     1      -2.673  -7.470   8.655  0.00  0.00    -0.017 A 
ATOM     15  C   UNL     1      -3.945  -6.934   8.387  0.00  0.00    +0.012 A 
ATOM     16  C   UNL     1      -4.197  -6.292   7.216  0.00  0.00    +0.046 A 
ATOM     17  C   UNL     1      -3.215  -6.134   6.239  0.00  0.00    +0.126 A 
BRANCH  17  18
ATOM     18  O   UNL     1      -3.510  -5.480   5.086  0.00  0.00    -0.506 OA
ATOM     19  H   UNL     1      -3.843  -6.055   4.383  0.00  0.00    +0.292 HD
ENDBRANCH  17  18
ENDBRANCH   7   8
ENDBRANCH   4   6
ENDBRANCH   1   2
BRANCH   1  20
ATOM     20  N   UNL     1       0.058  -4.167  -0.021  0.00  0.00    -0.194 N 
BRANCH  20  25
ATOM     21  C   UNL     1      -0.018   1.503   0.010  0.00  0.00    +0.044 C 
ATOM     22  C   UNL     1       0.002  -0.004   0.002  0.00  0.00    -0.047 A 
ATOM     23  C   UNL     1       0.006  -0.687  -1.200  0.00  0.00    +0.005 A 
ATOM     24  C   UNL     1       0.024  -2.068  -1.212  0.00  0.00    +0.025 A 
ATOM     25  C   UNL     1       0.040  -2.771  -0.013  0.00  0.00    +0.052 A 
ATOM     26  C   UNL     1       0.036  -2.081   1.192  0.00  0.00    +0.028 A 
ATOM     27  C   UNL     1       0.023  -0.700   1.196  0.00  0.00    -0.046 A 
ATOM     28  C   UNL     1       0.025   0.049   2.504  0.00  0.00    +0.044 C 
ENDBRANCH  20  25
BRANCH  20  29
ATOM     29  S   UNL     1      -0.543  -4.996  -1.322  0.00  0.00    +0.075 S 
ATOM     30  O   UNL     1      -1.041  -6.230  -0.823  0.00  0.00    -0.150 OA
ATOM     31  O   UNL     1      -1.358  -4.083  -2.045  0.00  0.00    -0.150 OA
BRANCH  29  32
ATOM     32  C   UNL     1       0.821  -5.389  -2.366  0.00  0.00    +0.109 A 
ATOM     33  C   UNL     1       1.208  -4.508  -3.359  0.00  0.00    +0.029 A 
ATOM     34  C   UNL     1       2.278  -4.816  -4.177  0.00  0.00    +0.002 A 
ATOM     35  C   UNL     1       2.962  -6.005  -4.003  0.00  0.00    +0.000 A 
ATOM     36  C   UNL     1       2.576  -6.885  -3.010  0.00  0.00    +0.002 A 
ATOM     37  C   UNL     1       1.508  -6.575  -2.188  0.00  0.00    +0.029 A 
ENDBRANCH  29  32
ENDBRANCH  20  29
ENDBRANCH   1  20
TORSDOF 8
