REMARK  Name = ZINC11775905
REMARK  6 active torsions:
REMARK  status: ('A' for Active; 'I' for Inactive)
REMARK    1  A    between atoms: C_1  and  C_2
REMARK    2  A    between atoms: C_5  and  C_8
REMARK    3  A    between atoms: C_8  and  N_65
REMARK    4  A    between atoms: C_14  and  C_16
REMARK    5  A    between atoms: C_16  and  C_17
REMARK    6  A    between atoms: N_22  and  C_26
REMARK                            x       y       z     vdW  Elec       q    Type
REMARK                         _______ _______ _______ _____ _____    ______ ____
ROOT
ATOM      1  C   UNL     1       3.402   5.769  -4.558  0.00  0.00    -0.058 C 
ATOM      2  C   UNL     1       3.632   7.029  -3.720  0.00  0.00    +0.085 C 
ATOM      3  N   UNL     1       4.156   6.666  -2.406  0.00  0.00    -0.318 N 
ATOM      4  C   UNL     1       4.059   5.433  -1.900  0.00  0.00    +0.200 C 
ATOM      5  O   UNL     1       4.495   5.225  -0.787  0.00  0.00    -0.278 OA
ATOM      6  C   UNL     1       3.434   4.292  -2.652  0.00  0.00    +0.028 C 
ATOM      7  H   UNL     1       4.594   7.351  -1.877  0.00  0.00    +0.149 HD
ATOM      8  N   UNL     1       2.606   4.823  -3.752  0.00  0.00    +0.391 N 
ATOM      9  H   UNL     1       1.798   5.316  -3.355  0.00  0.00    -0.080 HD
ENDROOT
BRANCH   8  10
ATOM     10  C   UNL     1       2.121   3.712  -4.603  0.00  0.00    -0.042 C 
BRANCH  10  15
ATOM     11  C   UNL     1      -0.756   5.899  -9.111  0.00  0.00    +0.044 C 
ATOM     12  C   UNL     1      -0.006   5.329  -7.935  0.00  0.00    -0.050 A 
ATOM     13  C   UNL     1       1.353   5.092  -8.031  0.00  0.00    +0.003 A 
ATOM     14  C   UNL     1       2.041   4.569  -6.953  0.00  0.00    +0.002 A 
ATOM     15  C   UNL     1       1.371   4.283  -5.778  0.00  0.00    -0.064 A 
ATOM     16  C   UNL     1       0.011   4.515  -5.684  0.00  0.00    +0.002 A 
ATOM     17  C   UNL     1      -0.676   5.042  -6.761  0.00  0.00    +0.003 A 
ENDBRANCH  10  15
ENDBRANCH   8  10
BRANCH   6  18
ATOM     18  C   UNL     1       2.545   3.485  -1.704  0.00  0.00    +0.090 C 
BRANCH  18  19
ATOM     19  C   UNL     1       1.459   4.375  -1.155  0.00  0.00    +0.215 C 
ATOM     20  O   UNL     1       1.346   5.513  -1.558  0.00  0.00    -0.276 OA
ATOM     21  N   UNL     1       0.614   3.906  -0.215  0.00  0.00    -0.291 N 
ATOM     22  C   UNL     1      -0.457   4.749   0.342  0.00  0.00    +0.127 C 
ATOM     23  C   UNL     1      -1.800   4.094   0.012  0.00  0.00    +0.127 C 
ATOM     24  N   UNL     1      -1.768   2.669   0.307  0.00  0.00    -0.296 N 
ATOM     25  C   UNL     1      -0.655   1.940   0.403  0.00  0.00    +0.233 C 
ATOM     26  O   UNL     1      -0.760   0.744   0.580  0.00  0.00    -0.274 OA
ATOM     27  C   UNL     1       0.724   2.531   0.294  0.00  0.00    +0.203 C 
BRANCH  24  28
ATOM     28  C   UNL     1      -3.048   1.989   0.520  0.00  0.00    +0.076 C 
ATOM     29  C   UNL     1      -3.080   1.390   1.927  0.00  0.00    +0.022 C 
ATOM     30  C   UNL     1      -4.417   0.680   2.150  0.00  0.00    +0.002 C 
ATOM     31  C   UNL     1      -4.578  -0.437   1.117  0.00  0.00    +0.000 C 
ATOM     32  C   UNL     1      -4.547   0.162  -0.291  0.00  0.00    +0.002 C 
ATOM     33  C   UNL     1      -3.210   0.872  -0.513  0.00  0.00    +0.022 C 
ENDBRANCH  24  28
ENDBRANCH  18  19
ENDBRANCH   6  18
TORSDOF 5
