REMARK  Name = ZINC39325231
REMARK  8 active torsions:
REMARK  status: ('A' for Active; 'I' for Inactive)
REMARK    1  A    between atoms: C_1  and  C_2
REMARK    2  A    between atoms: C_5  and  C_33
REMARK    3  A    between atoms: C_10  and  C_14
REMARK    4  A    between atoms: C_14  and  N_15
REMARK    5  A    between atoms: N_15  and  C_16
REMARK    6  A    between atoms: N_15  and  S_23
REMARK    7  A    between atoms: C_16  and  C_17
REMARK    8  A    between atoms: S_23  and  C_26
REMARK                            x       y       z     vdW  Elec       q    Type
REMARK                         _______ _______ _______ _____ _____    ______ ____
ROOT
ATOM      1  N   UNL     1       1.111  -1.058   5.902  0.00  0.00    -0.171 NA
ENDROOT
BRANCH   1   2
ATOM      2  S   UNL     1       0.319  -0.121   7.015  0.00  0.00    +0.061 S 
ATOM      3  O   UNL     1       0.730  -0.579   8.296  0.00  0.00    -0.153 OA
ATOM      4  O   UNL     1       0.483   1.228   6.600  0.00  0.00    -0.153 OA
BRANCH   2   5
ATOM      5  C   UNL     1      -1.399  -0.486   6.876  0.00  0.00    +0.106 A 
ATOM      6  C   UNL     1      -2.190   0.235   6.002  0.00  0.00    +0.029 A 
ATOM      7  C   UNL     1      -3.538  -0.051   5.892  0.00  0.00    +0.017 A 
ATOM      8  C   UNL     1      -4.095  -1.060   6.657  0.00  0.00    +0.018 A 
ATOM      9  C   UNL     1      -3.303  -1.782   7.532  0.00  0.00    +0.017 A 
ATOM     10  C   UNL     1      -1.954  -1.498   7.637  0.00  0.00    +0.029 A 
ATOM     11 BR   UNL     1      -5.939  -1.452   6.508  0.00  0.00    -0.050 Br
ENDBRANCH   2   5
ENDBRANCH   1   2
BRANCH   1  12
ATOM     12  C   UNL     1       1.335  -0.552   4.546  0.00  0.00    +0.126 C 
BRANCH  12  22
ATOM     13  C   UNL     1       0.515   1.473  -0.103  0.00  0.00    +0.044 C 
ATOM     14  C   UNL     1       0.324  -0.021  -0.047  0.00  0.00    -0.042 A 
ATOM     15  C   UNL     1       0.274  -0.754  -1.189  0.00  0.00    +0.004 A 
ATOM     16  C   UNL     1       0.099  -2.138  -1.156  0.00  0.00    +0.005 A 
ATOM     17  C   UNL     1      -0.031  -2.833   0.004  0.00  0.00    -0.029 A 
ATOM     18  C   UNL     1       0.007  -2.168   1.243  0.00  0.00    +0.043 A 
ATOM     19  N   UNL     1      -0.121  -2.861   2.375  0.00  0.00    -0.284 N 
ATOM     20  C   UNL     1      -0.095  -2.299   3.572  0.00  0.00    +0.225 C 
ATOM     21  O   UNL     1      -0.217  -2.984   4.570  0.00  0.00    -0.275 OA
ATOM     22  C   UNL     1       0.088  -0.803   3.695  0.00  0.00    +0.114 C 
ATOM     23  C   UNL     1       0.235  -0.011   2.410  0.00  0.00    -0.003 C 
ATOM     24  C   UNL     1       0.197  -0.707   1.239  0.00  0.00    -0.004 A 
ATOM     25  C   UNL     1      -0.218  -4.328  -0.037  0.00  0.00    +0.045 C 
ATOM     26  H   UNL     1      -0.240  -3.822   2.317  0.00  0.00    +0.155 HD
ENDBRANCH  12  22
ENDBRANCH   1  12
BRANCH   1  27
ATOM     27  C   UNL     1       1.586  -2.393   6.274  0.00  0.00    +0.144 C 
BRANCH  27  28
ATOM     28  C   UNL     1       3.019  -2.305   6.734  0.00  0.00    -0.032 A 
ATOM     29  C   UNL     1       4.048  -2.440   5.821  0.00  0.00    +0.005 A 
ATOM     30  C   UNL     1       5.361  -2.360   6.243  0.00  0.00    +0.000 A 
ATOM     31  C   UNL     1       5.646  -2.144   7.578  0.00  0.00    +0.000 A 
ATOM     32  C   UNL     1       4.617  -2.009   8.492  0.00  0.00    +0.000 A 
ATOM     33  C   UNL     1       3.304  -2.085   8.069  0.00  0.00    +0.005 A 
ENDBRANCH  27  28
ENDBRANCH   1  27
TORSDOF 6
