REMARK  Name = ZINC00722077
REMARK  9 active torsions:
REMARK  status: ('A' for Active; 'I' for Inactive)
REMARK    1  A    between atoms: C_1  and  C_2
REMARK    2  A    between atoms: C_3  and  C_18
REMARK    3  A    between atoms: C_4  and  C_13
REMARK    4  A    between atoms: C_6  and  C_11
REMARK    5  A    between atoms: C_7  and  S_9
REMARK    6  A    between atoms: S_9  and  C_10
REMARK    7  A    between atoms: N_20  and  C_21
REMARK    8  A    between atoms: C_26  and  O_27
REMARK    9  A    between atoms: O_27  and  C_28
REMARK                            x       y       z     vdW  Elec       q    Type
REMARK                         _______ _______ _______ _____ _____    ______ ____
ROOT
ATOM      1  C   UNL     1       2.315  -0.218   0.141  0.00  0.00    +0.061 C 
ATOM      2  C   UNL     1       2.340   1.286   0.059  0.00  0.00    +0.015 C 
ATOM      3  C   UNL     1       1.183   1.964  -0.017  0.00  0.00    +0.047 C 
ATOM      4  C   UNL     1       1.150   3.463  -0.104  0.00  0.00    +0.134 C 
ATOM      5  C   UNL     1       2.475   4.051   0.291  0.00  0.00    +0.072 C 
ATOM      6  C   UNL     1       3.598   3.285   0.350  0.00  0.00    +0.080 C 
ATOM      7  N   UNL     1       3.542   1.940   0.056  0.00  0.00    -0.312 N 
ATOM      8  H   UNL     1       4.466   1.393  -0.182  0.00  0.00    +0.152 HD
ENDROOT
BRANCH   4   9
ATOM      9  C   UNL     1       0.830   3.870  -1.519  0.00  0.00    +0.118 A 
ATOM     10  C   UNL     1      -0.232   4.599  -1.906  0.00  0.00    +0.045 A 
ATOM     11  C   UNL     1      -0.140   4.743  -3.310  0.00  0.00    +0.041 A 
ATOM     12  C   UNL     1       0.973   4.093  -3.696  0.00  0.00    +0.195 A 
ATOM     13  O   UNL     1       1.559   3.571  -2.606  0.00  0.00    -0.467 OA
ENDBRANCH   4   9
BRANCH   3  14
ATOM     14  C   UNL     1      -0.037   1.247  -0.008  0.00  0.00    +0.247 C 
ATOM     15  O   UNL     1      -0.685   1.160   1.020  0.00  0.00    -0.270 OA
ATOM     16  N   UNL     1      -0.479   0.655  -1.135  0.00  0.00    -0.279 N 
ATOM     17  H   UNL     1       0.148   0.655  -2.039  0.00  0.00    +0.155 HD
BRANCH  16  18
ATOM     18  C   UNL     1      -1.737   0.040  -1.156  0.00  0.00    +0.076 A 
ATOM     19  C   UNL     1      -2.724   0.445  -0.270  0.00  0.00    +0.027 A 
ATOM     20  C   UNL     1      -3.967  -0.160  -0.295  0.00  0.00    +0.002 A 
ATOM     21  C   UNL     1      -4.226  -1.176  -1.197  0.00  0.00    +0.004 A 
ATOM     22  C   UNL     1      -3.245  -1.589  -2.080  0.00  0.00    +0.047 A 
ATOM     23  C   UNL     1      -1.999  -0.984  -2.064  0.00  0.00    +0.141 A 
BRANCH  23  24
ATOM     24  O   UNL     1      -1.034  -1.389  -2.932  0.00  0.00    -0.493 OA
ATOM     25  C   UNL     1      -1.373  -2.444  -3.834  0.00  0.00    +0.277 C 
ENDBRANCH  23  24
ENDBRANCH  16  18
ENDBRANCH   3  14
BRANCH   6  26
ATOM     26  S   UNL     1       5.134   4.018   0.806  0.00  0.00    -0.113 S 
ATOM     27  C   UNL     1       6.213   2.568   0.713  0.00  0.00    +0.091 C 
ENDBRANCH   6  26
BRANCH   5  28
ATOM     28  C   UNL     1       2.558   5.444   0.610  0.00  0.00    +0.098 C 
ATOM     29  N   UNL     1       2.624   6.550   0.864  0.00  0.00    -0.191 NA
ENDBRANCH   5  28
TORSDOF 6
