REMARK  Name = ZINC38617825
REMARK  7 active torsions:
REMARK  status: ('A' for Active; 'I' for Inactive)
REMARK    1  A    between atoms: C_1  and  C_2
REMARK    2  A    between atoms: C_2  and  C_3
REMARK    3  A    between atoms: C_6  and  C_9
REMARK    4  A    between atoms: C_12  and  C_19
REMARK    5  A    between atoms: N_14  and  S_15
REMARK    6  A    between atoms: S_15  and  C_18
REMARK    7  A    between atoms: C_21  and  C_32
REMARK                            x       y       z     vdW  Elec       q    Type
REMARK                         _______ _______ _______ _____ _____    ______ ____
ROOT
ATOM      1  C   UNL     1       1.534  -4.688   6.885  0.00  0.00    +0.152 C 
ATOM      2  C   UNL     1       0.599  -4.478   8.060  0.00  0.00    -0.014 C 
ATOM      3  C   UNL     1       0.944  -5.096   9.264  0.00  0.00    +0.002 A 
ATOM      4  C   UNL     1       0.130  -4.954  10.408  0.00  0.00    +0.030 A 
ATOM      5  C   UNL     1       0.490  -5.567  11.568  0.00  0.00    +0.042 A 
ATOM      6  C   UNL     1       1.650  -6.336  11.652  0.00  0.00    +0.022 A 
ATOM      7  C   UNL     1       2.475  -6.510  10.582  0.00  0.00    +0.025 A 
ATOM      8  C   UNL     1       2.165  -5.905   9.351  0.00  0.00    +0.041 A 
ATOM      9  N   UNL     1       2.977  -6.078   8.302  0.00  0.00    -0.284 N 
ATOM     10  C   UNL     1       2.757  -5.545   7.116  0.00  0.00    +0.230 C 
ATOM     11  O   UNL     1       3.540  -5.746   6.206  0.00  0.00    -0.274 OA
ATOM     12 CL   UNL     1      -0.515  -5.389  12.972  0.00  0.00    -0.084 Cl
ATOM     13  H   UNL     1       3.769  -6.624   8.420  0.00  0.00    +0.155 HD
ENDROOT
BRANCH   2  14
ATOM     14  C   UNL     1      -0.574  -3.689   7.942  0.00  0.00    -0.020 A 
ATOM     15  C   UNL     1      -0.717  -2.517   8.703  0.00  0.00    +0.008 A 
ATOM     16  C   UNL     1      -1.859  -1.758   8.581  0.00  0.00    +0.001 A 
ATOM     17  C   UNL     1      -2.865  -2.147   7.712  0.00  0.00    +0.000 A 
ATOM     18  C   UNL     1      -2.735  -3.301   6.957  0.00  0.00    +0.001 A 
ATOM     19  C   UNL     1      -1.597  -4.071   7.060  0.00  0.00    +0.008 A 
ENDBRANCH   2  14
BRANCH   1  22
ATOM     20  C   UNL     1       3.000  -1.545   5.159  0.00  0.00    +0.153 C 
ATOM     21  C   UNL     1       2.793  -3.074   5.156  0.00  0.00    +0.084 C 
ATOM     22  C   UNL     1       2.001  -3.333   6.417  0.00  0.00    +0.057 C 
ATOM     23  N   UNL     1       1.788  -2.238   7.023  0.00  0.00    -0.171 NA
ATOM     24  N   UNL     1       2.323  -1.112   6.393  0.00  0.00    -0.120 N 
BRANCH  20  28
ATOM     25  C   UNL     1       1.174   0.230   1.730  0.00  0.00    -0.048 A 
ATOM     26  C   UNL     1       2.542   0.040   1.764  0.00  0.00    +0.004 A 
ATOM     27  C   UNL     1       3.134  -0.534   2.873  0.00  0.00    +0.006 A 
ATOM     28  C   UNL     1       2.356  -0.918   3.950  0.00  0.00    -0.023 A 
ATOM     29  C   UNL     1       0.987  -0.727   3.917  0.00  0.00    +0.006 A 
ATOM     30  C   UNL     1       0.397  -0.149   2.809  0.00  0.00    +0.004 A 
BRANCH  25  32
ATOM     31  C   UNL     1       0.484   2.376   0.696  0.00  0.00    +0.009 C 
ATOM     32  C   UNL     1       0.529   0.857   0.521  0.00  0.00    +0.032 C 
ENDBRANCH  25  32
ENDBRANCH  20  28
BRANCH  24  33
ATOM     33  S   UNL     1       2.215   0.448   6.937  0.00  0.00    +0.057 S 
ATOM     34  O   UNL     1       2.183   0.336   8.354  0.00  0.00    -0.154 OA
ATOM     35  O   UNL     1       3.277   1.133   6.288  0.00  0.00    -0.154 OA
ATOM     36  C   UNL     1       0.617   1.047   6.322  0.00  0.00    +0.220 C 
ENDBRANCH  24  33
ENDBRANCH   1  22
TORSDOF 5
