REMARK  Name = ZINC16038025
REMARK  7 active torsions:
REMARK  status: ('A' for Active; 'I' for Inactive)
REMARK    1  A    between atoms: C_1  and  O_2
REMARK    2  A    between atoms: O_2  and  C_3
REMARK    3  A    between atoms: C_3  and  C_5
REMARK    4  A    between atoms: C_5  and  C_35
REMARK    5  A    between atoms: C_6  and  C_28
REMARK    6  A    between atoms: C_8  and  C_20
REMARK    7  A    between atoms: C_20  and  C_22
REMARK                            x       y       z     vdW  Elec       q    Type
REMARK                         _______ _______ _______ _____ _____    ______ ____
ROOT
ATOM      1  C   UNL     1       3.761   3.091   0.990  0.00  0.00    +0.183 C 
ATOM      2  C   UNL     1       4.285   4.476   1.464  0.00  0.00    +0.078 C 
ATOM      3  C   UNL     1       2.982   5.314   1.502  0.00  0.00    +0.138 C 
ATOM      4  C   UNL     1       2.676   3.487  -0.026  0.00  0.00    +0.119 C 
ATOM      5  C   UNL     1       1.526   2.515  -0.004  0.00  0.00    -0.019 A 
ATOM      6  C   UNL     1       1.733   1.170   0.195  0.00  0.00    +0.006 A 
ATOM      7  C   UNL     1       0.656   0.300   0.221  0.00  0.00    +0.000 A 
ATOM      8  C   UNL     1      -0.630   0.778   0.042  0.00  0.00    +0.001 A 
ATOM      9  C   UNL     1      -0.852   2.126  -0.157  0.00  0.00    +0.008 A 
ATOM     10  C   UNL     1       0.229   3.009  -0.187  0.00  0.00    -0.019 A 
ATOM     11  C   UNL     1       0.004   4.451  -0.417  0.00  0.00    +0.022 C 
ATOM     12  C   UNL     1       0.973   5.330  -0.093  0.00  0.00    +0.054 C 
ATOM     13  N   UNL     1       2.392   4.885   0.193  0.00  0.00    -0.383 NA
ATOM     14  H   UNL     1       2.947   5.375  -0.519  0.00  0.00    +0.127 HD
ENDROOT
BRANCH   2  15
ATOM     15  C   UNL     1       5.266   5.049   0.473  0.00  0.00    -0.040 A 
ATOM     16  C   UNL     1       4.870   5.293  -0.829  0.00  0.00    +0.005 A 
ATOM     17  C   UNL     1       5.768   5.823  -1.736  0.00  0.00    +0.015 A 
ATOM     18  C   UNL     1       7.065   6.100  -1.344  0.00  0.00    +0.018 A 
ATOM     19  C   UNL     1       7.462   5.851  -0.043  0.00  0.00    +0.015 A 
ATOM     20  C   UNL     1       6.562   5.326   0.866  0.00  0.00    +0.005 A 
ATOM     21 BR   UNL     1       8.296   6.818  -2.587  0.00  0.00    -0.050 Br
ENDBRANCH   2  15
BRANCH   1  22
ATOM     22  C   UNL     1       4.859   2.300   0.325  0.00  0.00    +0.330 C 
ATOM     23  O   UNL     1       5.967   2.771   0.223  0.00  0.00    -0.249 OA
BRANCH  22  25
ATOM     24  C   UNL     1       5.709   0.369  -0.783  0.00  0.00    +0.280 C 
ATOM     25  O   UNL     1       4.605   1.072  -0.155  0.00  0.00    -0.467 OA
ENDBRANCH  22  25
ENDBRANCH   1  22
BRANCH   3  26
ATOM     26  C   UNL     1       3.291   6.769   1.259  0.00  0.00    +0.182 C 
ATOM     27  O   UNL     1       3.067   7.263   0.175  0.00  0.00    -0.290 OA
BRANCH  26  28
ATOM     28  C   UNL     1       3.863   7.589   2.338  0.00  0.00    +0.019 A 
ATOM     29  C   UNL     1       4.117   7.024   3.592  0.00  0.00    +0.011 A 
ATOM     30  C   UNL     1       4.658   7.798   4.596  0.00  0.00    +0.001 A 
ATOM     31  C   UNL     1       4.940   9.134   4.370  0.00  0.00    +0.000 A 
ATOM     32  C   UNL     1       4.686   9.702   3.134  0.00  0.00    +0.001 A 
ATOM     33  C   UNL     1       4.151   8.940   2.117  0.00  0.00    +0.011 A 
ENDBRANCH  26  28
ENDBRANCH   3  26
BRANCH   1  34
ATOM     34  C   UNL     1       3.180   2.337   2.112  0.00  0.00    +0.084 C 
ATOM     35  N   UNL     1       2.731   1.755   2.978  0.00  0.00    -0.195 NA
ENDBRANCH   1  34
TORSDOF 6
