REMARK  Name = ZINC41586352
REMARK  9 active torsions:
REMARK  status: ('A' for Active; 'I' for Inactive)
REMARK    1  A    between atoms: C_1  and  C_2
REMARK    2  A    between atoms: C_2  and  O_3
REMARK    3  A    between atoms: O_3  and  C_4
REMARK    4  A    between atoms: C_4  and  C_6
REMARK    5  A    between atoms: N_11  and  C_13
REMARK    6  A    between atoms: C_13  and  C_14
REMARK    7  A    between atoms: C_15  and  O_34
REMARK    8  A    between atoms: C_17  and  C_33
REMARK    9  A    between atoms: C_22  and  C_23
REMARK                            x       y       z     vdW  Elec       q    Type
REMARK                         _______ _______ _______ _____ _____    ______ ____
ROOT
ATOM      1  C   UNL     1       3.057  -6.502   4.600  0.00  0.00    +0.020 A 
ATOM      2  C   UNL     1       4.423  -6.674   4.440  0.00  0.00    +0.122 A 
ATOM      3  C   UNL     1       5.197  -7.198   5.471  0.00  0.00    +0.050 A 
ATOM      4  C   UNL     1       4.614  -7.548   6.657  0.00  0.00    -0.033 A 
ATOM      5  C   UNL     1       3.240  -7.380   6.833  0.00  0.00    +0.071 A 
ATOM      6  C   UNL     1       2.450  -6.847   5.801  0.00  0.00    +0.145 A 
ATOM      7  O   UNL     1       1.163  -6.774   6.205  0.00  0.00    -0.451 OA
ATOM      8  C   UNL     1       1.007  -7.223   7.472  0.00  0.00    +0.176 C 
ATOM      9  C   UNL     1      -0.159  -7.280   8.165  0.00  0.00    +0.062 C 
ATOM     10  C   UNL     1       2.327  -7.650   7.958  0.00  0.00    +0.232 C 
ATOM     11  O   UNL     1       2.606  -8.113   9.051  0.00  0.00    -0.283 OA
ATOM     12  C   UNL     1       5.454  -8.116   7.772  0.00  0.00    +0.045 C 
ENDROOT
BRANCH   9  13
ATOM     13  C   UNL     1      -1.408  -6.827   7.539  0.00  0.00    +0.032 A 
ATOM     14  C   UNL     1      -1.466  -5.577   6.905  0.00  0.00    +0.132 A 
ATOM     15  C   UNL     1      -2.645  -5.160   6.319  0.00  0.00    +0.039 A 
ATOM     16  C   UNL     1      -3.766  -5.970   6.357  0.00  0.00    +0.004 A 
ATOM     17  C   UNL     1      -3.717  -7.205   6.980  0.00  0.00    +0.021 A 
ATOM     18  C   UNL     1      -2.546  -7.642   7.566  0.00  0.00    +0.051 A 
ATOM     19 CL   UNL     1      -2.487  -9.195   8.340  0.00  0.00    -0.083 Cl
ATOM     20  F   UNL     1      -0.373  -4.784   6.868  0.00  0.00    -0.205 F 
ENDBRANCH   9  13
BRANCH   2  21
ATOM     21  O   UNL     1       5.011  -6.330   3.266  0.00  0.00    -0.506 OA
ATOM     22  H   UNL     1       5.321  -5.414   3.235  0.00  0.00    +0.292 HD
ENDBRANCH   2  21
BRANCH   1  23
ATOM     23  C   UNL     1       2.232  -5.933   3.475  0.00  0.00    -0.036 C 
BRANCH  23  28
ATOM     24  C   UNL     1       1.516  -2.381   2.500  0.00  0.00    +0.081 C 
ATOM     25  C   UNL     1       0.812  -1.927   3.782  0.00  0.00    +0.011 C 
ATOM     26  C   UNL     1       1.499  -2.578   4.987  0.00  0.00    -0.018 C 
ATOM     27  C   UNL     1       1.477  -4.098   4.820  0.00  0.00    -0.078 C 
ATOM     28  N   UNL     1       2.188  -4.470   3.591  0.00  0.00    +0.383 N 
ATOM     29  C   UNL     1       1.495  -3.909   2.425  0.00  0.00    -0.064 C 
ATOM     30  H   UNL     1       3.130  -4.109   3.626  0.00  0.00    -0.081 HD
BRANCH  24  31
ATOM     31  C   UNL     1       0.801  -1.808   1.304  0.00  0.00    +0.308 C 
ATOM     32  O   UNL     1       0.324  -2.546   0.475  0.00  0.00    -0.251 OA
BRANCH  31  33
ATOM     33  O   UNL     1       0.693  -0.477   1.160  0.00  0.00    -0.465 OA
BRANCH  33  35
ATOM     34  C   UNL     1      -0.019   1.526   0.010  0.00  0.00    +0.048 C 
ATOM     35  C   UNL     1       0.002  -0.004   0.002  0.00  0.00    +0.229 C 
ENDBRANCH  33  35
ENDBRANCH  31  33
ENDBRANCH  24  31
ENDBRANCH  23  28
ENDBRANCH   1  23
TORSDOF 7
