REMARK  Name = ZINC12404031
REMARK  7 active torsions:
REMARK  status: ('A' for Active; 'I' for Inactive)
REMARK    1  A    between atoms: C_4  and  C_27
REMARK    2  A    between atoms: C_6  and  C_9
REMARK    3  A    between atoms: N_11  and  C_12
REMARK    4  A    between atoms: C_12  and  C_13
REMARK    5  A    between atoms: C_13  and  N_14
REMARK    6  A    between atoms: C_15  and  C_17
REMARK    7  A    between atoms: C_23  and  C_25
REMARK                            x       y       z     vdW  Elec       q    Type
REMARK                         _______ _______ _______ _____ _____    ______ ____
ROOT
ATOM      1  C   UNL     1       5.385   2.765   2.606  0.00  0.00    +0.123 C 
ENDROOT
BRANCH   1   4
ATOM      2  C   UNL     1       3.398   3.012   1.216  0.00  0.00    +0.217 C 
ATOM      3  O   UNL     1       2.790   2.334   2.017  0.00  0.00    -0.275 OA
ATOM      4  N   UNL     1       4.702   3.286   1.419  0.00  0.00    -0.314 N 
ATOM      5  H   UNL     1       5.189   3.829   0.778  0.00  0.00    +0.149 HD
BRANCH   2  10
ATOM      6  C   UNL     1       2.067   5.608   1.262  0.00  0.00    +0.001 C 
ATOM      7  C   UNL     1       0.605   5.154   1.273  0.00  0.00    +0.001 C 
ATOM      8  C   UNL     1       0.546   3.625   1.266  0.00  0.00    +0.015 C 
ATOM      9  C   UNL     1       1.235   3.094   0.007  0.00  0.00    +0.114 C 
ATOM     10  C   UNL     1       2.696   3.548  -0.005  0.00  0.00    +0.089 C 
ATOM     11  C   UNL     1       2.755   5.077   0.003  0.00  0.00    +0.013 C 
BRANCH   9  12
ATOM     12  C   UNL     1       1.177   1.588  -0.001  0.00  0.00    +0.360 C 
ATOM     13  O   UNL     1       2.199   0.944  -0.014  0.00  0.00    -0.246 OA
ATOM     14  O   UNL     1      -0.011   0.963   0.007  0.00  0.00    -0.246 OA
ENDBRANCH   9  12
ENDBRANCH   2  10
ENDBRANCH   1   4
BRANCH   1  15
ATOM     15  C   UNL     1       6.846   3.219   2.594  0.00  0.00    +0.123 C 
BRANCH  15  16
ATOM     16  N   UNL     1       7.528   2.698   3.781  0.00  0.00    -0.314 N 
ATOM     17  C   UNL     1       8.832   2.972   3.983  0.00  0.00    +0.217 C 
ATOM     18  O   UNL     1       9.441   3.650   3.183  0.00  0.00    -0.275 OA
ATOM     19  H   UNL     1       7.042   2.155   4.421  0.00  0.00    +0.149 HD
BRANCH  17  20
ATOM     20  C   UNL     1       9.534   2.436   5.204  0.00  0.00    +0.089 C 
ATOM     21  C   UNL     1       8.845   2.967   6.463  0.00  0.00    +0.013 C 
ATOM     22  C   UNL     1       9.558   2.422   7.703  0.00  0.00    +0.001 C 
ATOM     23  C   UNL     1      11.019   2.876   7.691  0.00  0.00    +0.001 C 
ATOM     24  C   UNL     1      11.708   2.345   6.432  0.00  0.00    +0.015 C 
ATOM     25  C   UNL     1      10.996   2.889   5.193  0.00  0.00    +0.114 C 
BRANCH  25  26
ATOM     26  C   UNL     1      11.674   2.367   3.953  0.00  0.00    +0.360 C 
ATOM     27  O   UNL     1      11.053   1.700   3.160  0.00  0.00    -0.246 OA
ATOM     28  O   UNL     1      12.969   2.642   3.730  0.00  0.00    -0.246 OA
ENDBRANCH  25  26
ENDBRANCH  17  20
ENDBRANCH  15  16
ENDBRANCH   1  15
TORSDOF 7
