REMARK  Name = ZINC36345912
REMARK  17 active torsions:
REMARK  status: ('A' for Active; 'I' for Inactive)
REMARK    1  A    between atoms: C_1  and  C_2
REMARK    2  A    between atoms: C_2  and  C_3
REMARK    3  A    between atoms: C_3  and  N_4
REMARK    4  A    between atoms: N_4  and  C_5
REMARK    5  A    between atoms: N_4  and  C_26
REMARK    6  A    between atoms: C_5  and  C_6
REMARK    7  A    between atoms: C_7  and  C_25
REMARK    8  A    between atoms: N_9  and  C_19
REMARK    9  A    between atoms: C_10  and  O_11
REMARK   10  A    between atoms: O_11  and  C_12
REMARK   11  A    between atoms: C_15  and  C_18
REMARK   12  A    between atoms: C_26  and  C_27
REMARK   13  A    between atoms: C_27  and  C_29
REMARK   14  A    between atoms: C_27  and  O_38
REMARK   15  A    between atoms: C_29  and  O_30
REMARK   16  A    between atoms: O_30  and  C_31
REMARK   17  A    between atoms: C_31  and  C_32
REMARK                            x       y       z     vdW  Elec       q    Type
REMARK                         _______ _______ _______ _____ _____    ______ ____
ROOT
ATOM      1  C   UNL     1      -2.898  -1.939  -1.542  0.00  0.00    +0.021 A 
ATOM      2  C   UNL     1      -3.501  -0.728  -1.895  0.00  0.00    +0.065 A 
ATOM      3  N   UNL     1      -3.462  -0.610  -3.198  0.00  0.00    -0.168 NA
ATOM      4  N   UNL     1      -2.831  -1.744  -3.726  0.00  0.00    -0.200 N 
ATOM      5  C   UNL     1      -2.487  -2.549  -2.686  0.00  0.00    +0.225 A 
ATOM      6  C   UNL     1      -4.096   0.272  -0.937  0.00  0.00    +0.068 C 
ENDROOT
BRANCH   4   7
ATOM      7  C   UNL     1      -2.593  -2.000  -5.083  0.00  0.00    +0.069 A 
ATOM      8  C   UNL     1      -1.388  -2.561  -5.484  0.00  0.00    +0.028 A 
ATOM      9  C   UNL     1      -1.157  -2.812  -6.822  0.00  0.00    +0.002 A 
ATOM     10  C   UNL     1      -2.123  -2.505  -7.762  0.00  0.00    +0.000 A 
ATOM     11  C   UNL     1      -3.324  -1.945  -7.366  0.00  0.00    +0.002 A 
ATOM     12  C   UNL     1      -3.564  -1.698  -6.029  0.00  0.00    +0.028 A 
ENDBRANCH   4   7
BRANCH   1  13
ATOM     13  C   UNL     1      -2.729  -2.471  -0.142  0.00  0.00    -0.036 C 
BRANCH  13  14
ATOM     14  N   UNL     1      -1.451  -2.000   0.409  0.00  0.00    +0.384 N 
ATOM     15  H   UNL     1      -0.701  -2.259  -0.213  0.00  0.00    -0.081 HD
BRANCH  14  16
ATOM     16  C   UNL     1      -1.488  -0.538   0.550  0.00  0.00    -0.079 C 
BRANCH  16  18
ATOM     17  C   UNL     1      -0.115   1.494   1.026  0.00  0.00    +0.002 C 
ATOM     18  C   UNL     1      -0.119  -0.036   1.012  0.00  0.00    -0.022 C 
ENDBRANCH  16  18
ENDBRANCH  14  16
BRANCH  14  19
ATOM     19  C   UNL     1      -1.230  -2.614   1.725  0.00  0.00    -0.044 C 
BRANCH  19  20
ATOM     20  C   UNL     1      -1.033  -4.122   1.558  0.00  0.00    +0.124 C 
BRANCH  20  21
ATOM     21  O   UNL     1       0.152  -4.366   0.797  0.00  0.00    -0.391 OA
ATOM     22  H   UNL     1       0.966  -4.083   1.235  0.00  0.00    +0.210 HD
ENDBRANCH  20  21
BRANCH  20  23
ATOM     23  C   UNL     1      -0.897  -4.774   2.935  0.00  0.00    +0.189 C 
BRANCH  23  24
ATOM     24  O   UNL     1      -0.830  -6.194   2.785  0.00  0.00    -0.373 OA
BRANCH  24  25
ATOM     25  C   UNL     1      -0.702  -6.903   4.019  0.00  0.00    +0.195 C 
BRANCH  25  26
ATOM     26  C   UNL     1      -0.640  -8.383   3.743  0.00  0.00    -0.022 A 
ATOM     27  C   UNL     1      -1.805  -9.127   3.697  0.00  0.00    +0.006 A 
ATOM     28  C   UNL     1      -1.748 -10.485   3.444  0.00  0.00    +0.000 A 
ATOM     29  C   UNL     1      -0.527 -11.099   3.237  0.00  0.00    +0.000 A 
ATOM     30  C   UNL     1       0.637 -10.355   3.282  0.00  0.00    +0.000 A 
ATOM     31  C   UNL     1       0.580  -8.997   3.531  0.00  0.00    +0.006 A 
ENDBRANCH  25  26
ENDBRANCH  24  25
ENDBRANCH  23  24
ENDBRANCH  20  23
ENDBRANCH  19  20
ENDBRANCH  14  19
ENDBRANCH  13  14
ENDBRANCH   1  13
BRANCH   5  32
ATOM     32  O   UNL     1      -1.851  -3.745  -2.773  0.00  0.00    -0.438 OA
BRANCH  32  33
ATOM     33  C   UNL     1      -2.603  -4.853  -3.003  0.00  0.00    +0.130 A 
ATOM     34  C   UNL     1      -3.964  -4.730  -3.250  0.00  0.00    +0.046 A 
ATOM     35  C   UNL     1      -4.727  -5.857  -3.484  0.00  0.00    +0.007 A 
ATOM     36  C   UNL     1      -4.136  -7.108  -3.472  0.00  0.00    -0.050 A 
ATOM     37  C   UNL     1      -2.781  -7.233  -3.227  0.00  0.00    +0.007 A 
ATOM     38  C   UNL     1      -2.013  -6.108  -2.999  0.00  0.00    +0.046 A 
ATOM     39  C   UNL     1      -4.971  -8.336  -3.727  0.00  0.00    +0.044 C 
ENDBRANCH  32  33
ENDBRANCH   5  32
TORSDOF 14
