REMARK  Name = ZINC40023511
REMARK  4 active torsions:
REMARK  status: ('A' for Active; 'I' for Inactive)
REMARK    1  A    between atoms: C_4  and  N_7
REMARK    2  A    between atoms: C_8  and  N_15
REMARK    3  A    between atoms: C_16  and  C_18
REMARK    4  A    between atoms: C_18  and  C_19
REMARK                            x       y       z     vdW  Elec       q    Type
REMARK                         _______ _______ _______ _____ _____    ______ ____
ROOT
ATOM      1  N   UNL     1       3.047  -2.485   1.488  0.00  0.00    -0.270 N 
ATOM      2  C   UNL     1       3.355  -3.735   1.886  0.00  0.00    +0.224 C 
ATOM      3  O   UNL     1       4.416  -4.229   1.566  0.00  0.00    -0.275 OA
ATOM      4  H   UNL     1       2.217  -2.075   1.778  0.00  0.00    +0.156 HD
ENDROOT
BRANCH   1   6
ATOM      5  N   UNL     1       3.581  -0.802  -0.221  0.00  0.00    -0.218 N 
ATOM      6  C   UNL     1       3.920  -1.782   0.660  0.00  0.00    +0.132 A 
ATOM      7  C   UNL     1       5.270  -1.950   0.584  0.00  0.00    +0.016 A 
ATOM      8  C   UNL     1       5.763  -1.050  -0.366  0.00  0.00    +0.068 A 
ATOM      9  N   UNL     1       4.753  -0.368  -0.851  0.00  0.00    -0.169 NA
ATOM     10  C   UNL     1       7.264  -1.207  -0.479  0.00  0.00    +0.058 C 
ATOM     11  C   UNL     1       7.689  -1.969   0.794  0.00  0.00    +0.011 C 
ATOM     12  C   UNL     1       6.413  -2.757   1.159  0.00  0.00    +0.041 C 
BRANCH   5  16
ATOM     13  C   UNL     1      -0.266   0.638  -0.931  0.00  0.00    +0.000 A 
ATOM     14  C   UNL     1       0.799   1.517  -0.866  0.00  0.00    +0.002 A 
ATOM     15  C   UNL     1       2.075   1.043  -0.630  0.00  0.00    +0.028 A 
ATOM     16  C   UNL     1       2.287  -0.318  -0.460  0.00  0.00    +0.067 A 
ATOM     17  C   UNL     1       1.216  -1.199  -0.526  0.00  0.00    +0.028 A 
ATOM     18  C   UNL     1      -0.057  -0.719  -0.761  0.00  0.00    +0.002 A 
ENDBRANCH   5  16
ENDBRANCH   1   6
BRANCH   2  19
ATOM     19  C   UNL     1       2.382  -4.519   2.729  0.00  0.00    +0.154 C 
BRANCH  19  20
ATOM     20  C   UNL     1       2.900  -5.921   2.921  0.00  0.00    +0.078 A 
ATOM     21  C   UNL     1       2.073  -6.920   3.598  0.00  0.00    +0.011 A 
ATOM     22  C   UNL     1       0.799  -6.617   4.082  0.00  0.00    +0.010 A 
ATOM     23  C   UNL     1       0.065  -7.585   4.707  0.00  0.00    +0.001 A 
ATOM     24  C   UNL     1       0.568  -8.869   4.870  0.00  0.00    +0.001 A 
ATOM     25  C   UNL     1       1.822  -9.197   4.404  0.00  0.00    +0.014 A 
ATOM     26  C   UNL     1       2.589  -8.226   3.761  0.00  0.00    +0.050 A 
ATOM     27  C   UNL     1       3.932  -8.513   3.241  0.00  0.00    +0.272 A 
ATOM     28  O   UNL     1       4.418  -9.624   3.358  0.00  0.00    -0.266 OA
ATOM     29  N   UNL     1       4.616  -7.523   2.631  0.00  0.00    -0.242 N 
ATOM     30  H   UNL     1       5.504  -7.707   2.285  0.00  0.00    +0.192 HD
ATOM     31  N   UNL     1       4.079  -6.245   2.479  0.00  0.00    -0.175 NA
ENDBRANCH  19  20
ENDBRANCH   2  19
TORSDOF 4
