REMARK  Name = ZINC41584683
REMARK  5 active torsions:
REMARK  status: ('A' for Active; 'I' for Inactive)
REMARK    1  A    between atoms: C_8  and  C_10
REMARK    2  A    between atoms: C_15  and  O_35
REMARK    3  A    between atoms: C_16  and  C_21
REMARK    4  A    between atoms: C_21  and  N_22
REMARK    5  A    between atoms: C_27  and  C_29
REMARK                            x       y       z     vdW  Elec       q    Type
REMARK                         _______ _______ _______ _____ _____    ______ ____
ROOT
ATOM      1  C   UNL     1       2.984  -4.019  -0.049  0.00  0.00    +0.092 A 
ATOM      2  C   UNL     1       4.312  -4.420  -0.058  0.00  0.00    +0.029 A 
ATOM      3  C   UNL     1       4.589  -5.810  -0.101  0.00  0.00    +0.019 A 
ATOM      4  C   UNL     1       5.897  -6.280   0.089  0.00  0.00    +0.015 A 
ATOM      5  C   UNL     1       6.144  -7.621   0.088  0.00  0.00    +0.046 A 
ATOM      6  C   UNL     1       5.107  -8.531  -0.110  0.00  0.00    +0.122 A 
ATOM      7  C   UNL     1       3.811  -8.085  -0.319  0.00  0.00    +0.020 A 
ATOM      8  C   UNL     1       3.544  -6.726  -0.327  0.00  0.00    +0.144 A 
ATOM      9  O   UNL     1       2.289  -6.277  -0.573  0.00  0.00    -0.421 OA
ATOM     10  C   UNL     1       1.956  -5.074  -0.044  0.00  0.00    +0.347 A 
ATOM     11  O   UNL     1       0.848  -4.870   0.415  0.00  0.00    -0.244 OA
ENDROOT
BRANCH   1  19
ATOM     12  C   UNL     1      -0.016   1.355   0.009  0.00  0.00    +0.002 A 
ATOM     13  C   UNL     1       1.155   2.100   0.002  0.00  0.00    +0.001 A 
ATOM     14  C   UNL     1       2.373   1.447  -0.013  0.00  0.00    +0.017 A 
ATOM     15  C   UNL     1       2.403   0.074  -0.020  0.00  0.00    +0.040 A 
ATOM     16  C   UNL     1       1.227  -0.713  -0.013  0.00  0.00    +0.079 A 
ATOM     17  C   UNL     1       0.002  -0.004   0.002  0.00  0.00    +0.029 A 
ATOM     18  N   UNL     1       1.417  -2.047  -0.023  0.00  0.00    -0.239 NA
ATOM     19  C   UNL     1       2.616  -2.590  -0.037  0.00  0.00    +0.116 A 
ATOM     20  S   UNL     1       3.684  -1.157  -0.040  0.00  0.00    -0.067 S 
ENDBRANCH   1  19
BRANCH   6  21
ATOM     21  O   UNL     1       5.368  -9.863  -0.097  0.00  0.00    -0.506 OA
ATOM     22  H   UNL     1       5.296 -10.269   0.777  0.00  0.00    +0.292 HD
ENDBRANCH   6  21
BRANCH   7  23
ATOM     23  C   UNL     1       2.697  -9.077  -0.536  0.00  0.00    -0.035 C 
BRANCH  23  24
ATOM     24  N   UNL     1       2.102  -9.436   0.758  0.00  0.00    +0.387 N 
ATOM     25  C   UNL     1       3.100 -10.135   1.576  0.00  0.00    -0.078 C 
ATOM     26  C   UNL     1       2.511 -10.440   2.955  0.00  0.00    -0.019 C 
ATOM     27  C   UNL     1       1.273 -11.326   2.791  0.00  0.00    -0.003 C 
ATOM     28  C   UNL     1       0.270 -10.620   1.875  0.00  0.00    -0.011 C 
ATOM     29  C   UNL     1       0.942 -10.308   0.536  0.00  0.00    -0.036 C 
ATOM     30  H   UNL     1       1.806  -8.598   1.235  0.00  0.00    -0.080 HD
BRANCH  29  31
ATOM     31  C   UNL     1      -0.042  -9.612  -0.370  0.00  0.00    -0.043 A 
ATOM     32  C   UNL     1      -0.714 -10.322  -1.354  0.00  0.00    +0.005 A 
ATOM     33  C   UNL     1      -1.609  -9.640  -2.163  0.00  0.00    +0.020 A 
ATOM     34  C   UNL     1      -1.802  -8.286  -1.964  0.00  0.00    +0.111 A 
ATOM     35  N   UNL     1      -1.145  -7.644  -1.018  0.00  0.00    -0.263 NA
ATOM     36  C   UNL     1      -0.290  -8.260  -0.226  0.00  0.00    +0.112 A 
ENDBRANCH  29  31
ENDBRANCH  23  24
ENDBRANCH   7  23
TORSDOF 5
