REMARK  Name = ZINC14743413
REMARK  12 active torsions:
REMARK  status: ('A' for Active; 'I' for Inactive)
REMARK    1  A    between atoms: C_1  and  C_2
REMARK    2  A    between atoms: C_2  and  C_3
REMARK    3  A    between atoms: C_2  and  C_4
REMARK    4  A    between atoms: C_4  and  C_5
REMARK    5  A    between atoms: C_5  and  N_6
REMARK    6  A    between atoms: N_9  and  C_26
REMARK    7  A    between atoms: C_17  and  C_18
REMARK    8  A    between atoms: C_17  and  N_70
REMARK    9  A    between atoms: C_23  and  O_24
REMARK   10  A    between atoms: C_26  and  C_27
REMARK   11  A    between atoms: C_27  and  C_28
REMARK   12  A    between atoms: C_28  and  C_29
REMARK                            x       y       z     vdW  Elec       q    Type
REMARK                         _______ _______ _______ _____ _____    ______ ____
ROOT
ATOM      1  N   UNL     1      -0.014   1.345   0.008  0.00  0.00    -0.271 N 
ATOM      2  C   UNL     1       0.007  -0.001   0.037  0.00  0.00    +0.312 C 
ATOM      3  O   UNL     1      -0.991  -0.693   0.082  0.00  0.00    -0.252 OA
ATOM      4  N   UNL     1       1.252  -0.492   0.009  0.00  0.00    -0.224 N 
ATOM      5  C   UNL     1       2.174   0.492  -0.040  0.00  0.00    +0.247 C 
ATOM      6  O   UNL     1       3.380   0.368  -0.073  0.00  0.00    -0.273 OA
ATOM      7  C   UNL     1       1.386   1.781  -0.044  0.00  0.00    +0.112 C 
ATOM      8  C   UNL     1       1.732   2.622   1.181  0.00  0.00    +0.017 C 
ATOM      9  C   UNL     1       0.941   3.933   1.136  0.00  0.00    -0.076 C 
ATOM     10  C   UNL     1       0.867   3.880  -1.288  0.00  0.00    -0.076 C 
ATOM     11  C   UNL     1       1.655   2.567  -1.324  0.00  0.00    +0.017 C 
ATOM     12  N   UNL     1       1.290   4.659  -0.104  0.00  0.00    +0.383 N 
ATOM     13  H   UNL     1       2.308   4.789  -0.138  0.00  0.00    -0.081 HD
ENDROOT
BRANCH   1  14
ATOM     14  C   UNL     1      -1.201   2.204   0.020  0.00  0.00    +0.110 C 
BRANCH  14  15
ATOM     15  C   UNL     1      -1.979   2.018  -1.284  0.00  0.00    +0.022 C 
BRANCH  15  17
ATOM     16  C   UNL     1      -3.848   2.907  -2.684  0.00  0.00    +0.007 C 
ATOM     17  C   UNL     1      -3.146   3.007  -1.328  0.00  0.00    -0.016 C 
ATOM     18  C   UNL     1      -4.139   2.672  -0.214  0.00  0.00    +0.007 C 
ENDBRANCH  15  17
ENDBRANCH  14  15
ENDBRANCH   1  14
BRANCH  12  19
ATOM     19  C   UNL     1       0.637   5.984  -0.113  0.00  0.00    -0.039 C 
BRANCH  19  20
ATOM     20  C   UNL     1       1.246   6.833   0.973  0.00  0.00    -0.021 A 
ATOM     21  C   UNL     1       0.580   7.006   2.170  0.00  0.00    +0.025 A 
ATOM     22  C   UNL     1       1.141   7.782   3.169  0.00  0.00    +0.041 A 
ATOM     23  C   UNL     1       2.366   8.392   2.967  0.00  0.00    +0.023 A 
ATOM     24  C   UNL     1       3.033   8.225   1.769  0.00  0.00    +0.047 A 
ATOM     25  C   UNL     1       2.474   7.444   0.768  0.00  0.00    +0.118 A 
ATOM     26 CL   UNL     1       0.305   7.993   4.676  0.00  0.00    -0.084 Cl
BRANCH  25  27
ATOM     27  O   UNL     1       3.129   7.279  -0.411  0.00  0.00    -0.507 OA
ATOM     28  H   UNL     1       2.910   7.942  -1.080  0.00  0.00    +0.292 HD
ENDBRANCH  25  27
ENDBRANCH  19  20
ENDBRANCH  12  19
BRANCH   4  29
ATOM     29  C   UNL     1       1.575  -1.921   0.030  0.00  0.00    +0.118 C 
BRANCH  29  30
ATOM     30  C   UNL     1       1.642  -2.450  -1.404  0.00  0.00    +0.024 C 
BRANCH  30  31
ATOM     31  C   UNL     1       1.979  -3.942  -1.382  0.00  0.00    +0.037 C 
BRANCH  31  32
ATOM     32  C   UNL     1       2.045  -4.463  -2.794  0.00  0.00    -0.044 A 
ATOM     33  C   UNL     1       0.917  -4.975  -3.416  0.00  0.00    +0.023 A 
ATOM     34  C   UNL     1       1.015  -5.439  -4.714  0.00  0.00    +0.111 A 
ATOM     35  N   UNL     1       2.167  -5.409  -5.356  0.00  0.00    -0.263 NA
ATOM     36  C   UNL     1       3.261  -4.934  -4.795  0.00  0.00    +0.111 A 
ATOM     37  C   UNL     1       3.238  -4.447  -3.501  0.00  0.00    +0.023 A 
ENDBRANCH  31  32
ENDBRANCH  30  31
ENDBRANCH  29  30
ENDBRANCH   4  29
TORSDOF 10
