REMARK  Name = ZINC13064779
REMARK  13 active torsions:
REMARK  status: ('A' for Active; 'I' for Inactive)
REMARK    1  A    between atoms: C_1  and  C_2
REMARK    2  A    between atoms: C_2  and  C_3
REMARK    3  A    between atoms: C_3  and  C_5
REMARK    4  A    between atoms: C_3  and  N_71
REMARK    5  A    between atoms: N_9  and  C_10
REMARK    6  A    between atoms: C_10  and  C_11
REMARK    7  A    between atoms: C_10  and  C_12
REMARK    8  A    between atoms: C_10  and  C_13
REMARK    9  A    between atoms: C_14  and  C_15
REMARK   10  A    between atoms: C_14  and  N_71
REMARK   11  A    between atoms: C_18  and  C_28
REMARK   12  A    between atoms: C_20  and  C_27
REMARK   13  A    between atoms: C_29  and  N_71
REMARK                            x       y       z     vdW  Elec       q    Type
REMARK                         _______ _______ _______ _____ _____    ______ ____
ROOT
ATOM      1  N   UNL     1       4.504  -0.109   0.789  0.00  0.00    +0.391 N 
ATOM      2  H   UNL     1       4.366  -1.092   0.528  0.00  0.00    -0.080 HD
ENDROOT
BRANCH   1   3
ATOM      3  C   UNL     1       3.998   0.099   2.161  0.00  0.00    -0.067 C 
ATOM      4  C   UNL     1       4.112  -1.220   2.928  0.00  0.00    -0.015 C 
ATOM      5  C   UNL     1       3.580  -1.032   4.350  0.00  0.00    -0.002 C 
ATOM      6  C   UNL     1       2.113  -0.600   4.293  0.00  0.00    -0.000 C 
ATOM      7  C   UNL     1       1.999   0.720   3.527  0.00  0.00    -0.002 C 
ATOM      8  C   UNL     1       2.531   0.531   2.105  0.00  0.00    -0.015 C 
ENDBRANCH   1   3
BRANCH   1   9
ATOM      9  C   UNL     1       3.761   0.748  -0.159  0.00  0.00    +0.003 C 
BRANCH   9  10
ATOM     10  C   UNL     1       3.858   0.141  -1.535  0.00  0.00    +0.139 A 
ATOM     11  N   UNL     1       4.929  -0.373  -2.090  0.00  0.00    -0.115 NA
ATOM     12  N   UNL     1       4.607  -0.787  -3.267  0.00  0.00    -0.023 NA
ATOM     13  N   UNL     1       3.360  -0.550  -3.478  0.00  0.00    -0.043 NA
ATOM     14  N   UNL     1       2.863   0.021  -2.433  0.00  0.00    -0.226 N 
BRANCH  14  15
ATOM     15  C   UNL     1       1.476   0.458  -2.257  0.00  0.00    +0.059 C 
ATOM     16  C   UNL     1       0.700   0.229  -3.556  0.00  0.00    +0.036 C 
ATOM     17  C   UNL     1       0.827  -0.345  -1.128  0.00  0.00    +0.036 C 
ATOM     18  C   UNL     1       1.450   1.946  -1.904  0.00  0.00    +0.036 C 
ENDBRANCH  14  15
ENDBRANCH   9  10
BRANCH   9  20
ATOM     19  C   UNL     1       4.101   2.839   1.165  0.00  0.00    +0.002 C 
ATOM     20  C   UNL     1       4.353   2.159  -0.182  0.00  0.00    -0.011 C 
ENDBRANCH   9  20
ENDBRANCH   1   9
BRANCH   1  21
ATOM     21  C   UNL     1       5.947   0.205   0.730  0.00  0.00    -0.036 C 
BRANCH  21  22
ATOM     22  C   UNL     1       6.706  -0.854   1.487  0.00  0.00    +0.001 A 
ATOM     23  C   UNL     1       7.167  -1.950   0.835  0.00  0.00    +0.017 A 
ATOM     24  C   UNL     1       7.905  -2.958   1.599  0.00  0.00    +0.002 A 
ATOM     25  C   UNL     1       8.409  -4.108   0.981  0.00  0.00    -0.041 A 
ATOM     26  C   UNL     1       9.089  -5.032   1.723  0.00  0.00    +0.007 A 
ATOM     27  C   UNL     1       9.283  -4.841   3.084  0.00  0.00    -0.048 A 
ATOM     28  C   UNL     1       8.794  -3.717   3.714  0.00  0.00    +0.029 A 
ATOM     29  C   UNL     1       8.099  -2.762   2.979  0.00  0.00    +0.050 A 
ATOM     30  N   UNL     1       7.600  -1.627   3.583  0.00  0.00    -0.322 N 
ATOM     31  H   UNL     1       7.735  -1.493   4.534  0.00  0.00    +0.169 HD
ATOM     32  C   UNL     1       6.928  -0.704   2.872  0.00  0.00    +0.251 A 
ATOM     33  O   UNL     1       6.501   0.286   3.439  0.00  0.00    -0.268 OA
ATOM     34  C   UNL     1      10.036  -5.874   3.882  0.00  0.00    +0.044 C 
ATOM     35  C   UNL     1       8.204  -4.325  -0.496  0.00  0.00    +0.044 C 
ENDBRANCH  21  22
ENDBRANCH   1  21
TORSDOF 7
