REMARK  Name = ZINC21702193
REMARK  5 active torsions:
REMARK  status: ('A' for Active; 'I' for Inactive)
REMARK    1  A    between atoms: C_1  and  C_2
REMARK    2  A    between atoms: N_8  and  S_9
REMARK    3  A    between atoms: S_9  and  C_12
REMARK    4  A    between atoms: C_14  and  C_17
REMARK    5  A    between atoms: C_19  and  C_22
REMARK                            x       y       z     vdW  Elec       q    Type
REMARK                         _______ _______ _______ _____ _____    ______ ____
ROOT
ATOM      1  C   UNL     1      -2.247  -0.499  -1.505  0.00  0.00    +0.150 A 
ATOM      2  C   UNL     1      -2.156  -1.143  -2.690  0.00  0.00    +0.048 A 
ATOM      3  C   UNL     1      -2.925  -0.663  -3.748  0.00  0.00    +0.031 A 
ATOM      4  C   UNL     1      -3.713   0.430  -3.534  0.00  0.00    +0.058 A 
ATOM      5  S   UNL     1      -3.409   0.804  -1.868  0.00  0.00    -0.076 S 
ENDROOT
BRANCH   3   6
ATOM      6  C   UNL     1      -2.882  -1.320  -5.077  0.00  0.00    +0.203 A 
ATOM      7  N   UNL     1      -3.573  -0.948  -6.179  0.00  0.00    -0.191 NA
ATOM      8  C   UNL     1      -3.233  -1.802  -7.112  0.00  0.00    +0.231 A 
ATOM      9  O   UNL     1      -2.361  -2.655  -6.566  0.00  0.00    -0.337 OA
ATOM     10  N   UNL     1      -2.166  -2.365  -5.404  0.00  0.00    -0.056 NA
BRANCH   8  11
ATOM     11  C   UNL     1      -3.731  -1.819  -8.534  0.00  0.00    +0.078 C 
ATOM     12  C   UNL     1      -3.358  -3.025  -9.399  0.00  0.00    +0.014 C 
ATOM     13  C   UNL     1      -2.694  -1.669  -9.648  0.00  0.00    +0.014 C 
ENDBRANCH   8  11
ENDBRANCH   3   6
BRANCH   1  14
ATOM     14  S   UNL     1      -1.421  -0.852   0.011  0.00  0.00    +0.107 S 
ATOM     15  O   UNL     1      -1.073  -2.229  -0.027  0.00  0.00    -0.146 OA
ATOM     16  O   UNL     1      -2.218  -0.295   1.047  0.00  0.00    -0.146 OA
BRANCH  14  24
ATOM     17  C   UNL     1      -0.172   5.612   0.033  0.00  0.00    +0.045 C 
ATOM     18  C   UNL     1      -0.087   4.107   0.025  0.00  0.00    -0.034 A 
ATOM     19  C   UNL     1       1.149   3.474   0.010  0.00  0.00    +0.008 A 
ATOM     20  C   UNL     1       1.182   2.092   0.002  0.00  0.00    +0.048 A 
ATOM     21  C   UNL     1      -0.017   1.386   0.010  0.00  0.00    +0.153 A 
ATOM     22  N   UNL     1      -1.175   2.026   0.019  0.00  0.00    -0.345 N 
ATOM     23  C   UNL     1      -1.238   3.344   0.032  0.00  0.00    +0.087 A 
ATOM     24  N   UNL     1       0.002  -0.004   0.002  0.00  0.00    -0.110 NA
ATOM     25  H   UNL     1      -2.118   1.458   0.015  0.00  0.00    +0.167 HD
ENDBRANCH  14  24
ENDBRANCH   1  14
TORSDOF 4
