REMARK  Name = ZINC34677791
REMARK  11 active torsions:
REMARK  status: ('A' for Active; 'I' for Inactive)
REMARK    1  A    between atoms: C_1  and  C_2
REMARK    2  A    between atoms: C_2  and  C_3
REMARK    3  A    between atoms: C_8  and  N_9
REMARK    4  A    between atoms: C_15  and  C_17
REMARK    5  A    between atoms: C_20  and  C_22
REMARK    6  A    between atoms: C_22  and  N_23
REMARK    7  A    between atoms: N_26  and  C_29
REMARK    8  A    between atoms: C_29  and  C_30
REMARK    9  A    between atoms: C_30  and  C_32
REMARK   10  A    between atoms: C_30  and  O_39
REMARK   11  A    between atoms: C_32  and  C_33
REMARK                            x       y       z     vdW  Elec       q    Type
REMARK                         _______ _______ _______ _____ _____    ______ ____
ROOT
ATOM      1  C   UNL     1       6.434   1.722   2.536  0.00  0.00    +0.164 A 
ATOM      2  C   UNL     1       7.256   2.156   3.530  0.00  0.00    +0.230 A 
ATOM      3  O   UNL     1       7.543   3.441   3.266  0.00  0.00    -0.449 OA
ATOM      4  C   UNL     1       6.912   3.789   2.136  0.00  0.00    +0.179 A 
ATOM      5  N   UNL     1       6.248   2.767   1.685  0.00  0.00    -0.210 NA
ENDROOT
BRANCH   1  12
ATOM      6  N   UNL     1       4.891  -0.827  -1.277  0.00  0.00    -0.327 N 
ATOM      7  C   UNL     1       5.369   0.548  -1.077  0.00  0.00    +0.124 C 
ATOM      8  C   UNL     1       4.856   1.054   0.277  0.00  0.00    +0.127 C 
ATOM      9  N   UNL     1       5.157   0.043   1.301  0.00  0.00    -0.293 N 
ATOM     10  C   UNL     1       4.678  -1.332   1.101  0.00  0.00    +0.127 C 
ATOM     11  C   UNL     1       5.187  -1.836  -0.251  0.00  0.00    +0.124 C 
ATOM     12  C   UNL     1       5.859   0.371   2.403  0.00  0.00    +0.268 C 
ATOM     13  O   UNL     1       6.019  -0.448   3.288  0.00  0.00    -0.268 OA
BRANCH   6  19
ATOM     14  C   UNL     1       4.821  -1.614  -3.557  0.00  0.00    -0.027 A 
ATOM     15  C   UNL     1       4.097  -1.955  -4.683  0.00  0.00    +0.005 A 
ATOM     16  C   UNL     1       2.719  -1.845  -4.680  0.00  0.00    +0.000 A 
ATOM     17  C   UNL     1       2.060  -1.394  -3.551  0.00  0.00    +0.002 A 
ATOM     18  C   UNL     1       2.778  -1.052  -2.422  0.00  0.00    +0.023 A 
ATOM     19  C   UNL     1       4.162  -1.167  -2.419  0.00  0.00    +0.033 A 
BRANCH  14  21
ATOM     20  C   UNL     1       6.729  -3.087  -2.973  0.00  0.00    +0.009 C 
ATOM     21  C   UNL     1       6.323  -1.734  -3.561  0.00  0.00    +0.033 C 
ENDBRANCH  14  21
ENDBRANCH   6  19
ENDBRANCH   1  12
BRANCH   4  22
ATOM     22  C   UNL     1       6.967   5.148   1.488  0.00  0.00    +0.019 C 
BRANCH  22  23
ATOM     23  N   UNL     1       5.883   5.987   2.015  0.00  0.00    +0.387 N 
ATOM     24  C   UNL     1       4.588   5.418   1.619  0.00  0.00    -0.063 C 
ATOM     25  C   UNL     1       3.457   6.281   2.185  0.00  0.00    +0.066 C 
ATOM     26  N   UNL     1       3.587   7.652   1.671  0.00  0.00    -0.303 NA
ATOM     27  C   UNL     1       4.890   8.225   2.039  0.00  0.00    +0.066 C 
ATOM     28  C   UNL     1       6.008   7.347   1.475  0.00  0.00    -0.063 C 
ATOM     29  H   UNL     1       5.942   6.019   3.022  0.00  0.00    -0.081 HD
BRANCH  26  30
ATOM     30  C   UNL     1       2.486   8.499   2.147  0.00  0.00    +0.115 C 
BRANCH  30  31
ATOM     31  C   UNL     1       2.512   9.836   1.403  0.00  0.00    +0.133 C 
BRANCH  31  32
ATOM     32  O   UNL     1       2.247   9.614   0.017  0.00  0.00    -0.390 OA
ATOM     33  H   UNL     1       1.387   9.206  -0.159  0.00  0.00    +0.210 HD
ENDBRANCH  31  32
BRANCH  31  34
ATOM     34  C   UNL     1       1.444  10.764   1.985  0.00  0.00    +0.067 C 
BRANCH  34  35
ATOM     35  C   UNL     1       1.551  12.120   1.336  0.00  0.00    -0.045 A 
ATOM     36  C   UNL     1       2.370  13.088   1.888  0.00  0.00    +0.004 A 
ATOM     37  C   UNL     1       2.468  14.332   1.293  0.00  0.00    +0.000 A 
ATOM     38  C   UNL     1       1.747  14.608   0.147  0.00  0.00    +0.000 A 
ATOM     39  C   UNL     1       0.929  13.641  -0.405  0.00  0.00    +0.000 A 
ATOM     40  C   UNL     1       0.834  12.396   0.187  0.00  0.00    +0.004 A 
ENDBRANCH  34  35
ENDBRANCH  31  34
ENDBRANCH  30  31
ENDBRANCH  26  30
ENDBRANCH  22  23
ENDBRANCH   4  22
TORSDOF 10
