REMARK  Name = ZINC13473997
REMARK  8 active torsions:
REMARK  status: ('A' for Active; 'I' for Inactive)
REMARK    1  A    between atoms: C_1  and  C_2
REMARK    2  A    between atoms: C_4  and  O_18
REMARK    3  A    between atoms: C_6  and  O_9
REMARK    4  A    between atoms: O_9  and  C_10
REMARK    5  A    between atoms: C_14  and  C_16
REMARK    6  A    between atoms: O_18  and  C_19
REMARK    7  A    between atoms: C_23  and  C_25
REMARK    8  A    between atoms: C_25  and  C_26
REMARK                            x       y       z     vdW  Elec       q    Type
REMARK                         _______ _______ _______ _____ _____    ______ ____
ROOT
ATOM      1  C   UNL     1      -0.902   0.127  -1.732  0.00  0.00    +0.050 C 
ATOM      2  C   UNL     1      -1.338   0.970  -0.561  0.00  0.00    +0.030 A 
ATOM      3  C   UNL     1      -0.703   2.171  -0.277  0.00  0.00    +0.191 A 
ATOM      4  C   UNL     1      -1.130   2.922   0.810  0.00  0.00    +0.260 A 
ATOM      5  N   UNL     1      -2.130   2.505   1.569  0.00  0.00    -0.172 NA
ATOM      6  C   UNL     1      -2.757   1.365   1.327  0.00  0.00    +0.260 A 
ATOM      7  C   UNL     1      -2.385   0.566   0.253  0.00  0.00    +0.191 A 
ATOM      8  F   UNL     1      -3.034  -0.594   0.008  0.00  0.00    -0.200 F 
ATOM      9  F   UNL     1       0.318   2.603  -1.048  0.00  0.00    -0.200 F 
ENDROOT
BRANCH   6  10
ATOM     10  O   UNL     1      -3.777   0.975   2.133  0.00  0.00    -0.436 OA
BRANCH  10  11
ATOM     11  C   UNL     1      -4.015   1.701   3.257  0.00  0.00    +0.131 A 
ATOM     12  C   UNL     1      -2.981   2.404   3.861  0.00  0.00    +0.046 A 
ATOM     13  C   UNL     1      -3.217   3.143   5.005  0.00  0.00    +0.004 A 
ATOM     14  C   UNL     1      -4.483   3.187   5.554  0.00  0.00    +0.011 A 
ATOM     15  C   UNL     1      -5.527   2.484   4.954  0.00  0.00    +0.016 A 
ATOM     16  C   UNL     1      -5.289   1.743   3.798  0.00  0.00    +0.057 A 
BRANCH  15  17
ATOM     17  C   UNL     1      -6.887   2.529   5.541  0.00  0.00    +0.094 C 
ATOM     18  N   UNL     1      -7.121   3.267   6.681  0.00  0.00    -0.345 N 
ATOM     19  H   UNL     1      -8.785   1.839   5.287  0.00  0.00    +0.157 HD
ATOM     20  H   UNL     1      -6.396   3.756   7.099  0.00  0.00    +0.144 HD
ATOM     21  H   UNL     1      -8.011   3.296   7.065  0.00  0.00    +0.144 HD
ATOM     22  N   UNL     1      -7.833   1.839   4.922  0.00  0.00    -0.387 N 
ATOM     23  H   UNL     1      -7.608   1.305   4.075  0.00  0.00    +0.157 HD
ENDBRANCH  15  17
ENDBRANCH  10  11
ENDBRANCH   6  10
BRANCH   4  24
ATOM     24  O   UNL     1      -0.515   4.098   1.096  0.00  0.00    -0.436 OA
BRANCH  24  25
ATOM     25  C   UNL     1      -1.047   4.875   2.076  0.00  0.00    +0.131 A 
ATOM     26  C   UNL     1      -2.392   4.760   2.401  0.00  0.00    +0.046 A 
ATOM     27  C   UNL     1      -2.930   5.550   3.397  0.00  0.00    +0.004 A 
ATOM     28  C   UNL     1      -2.130   6.455   4.072  0.00  0.00    +0.004 A 
ATOM     29  C   UNL     1      -0.791   6.571   3.751  0.00  0.00    -0.035 A 
ATOM     30  C   UNL     1      -0.246   5.779   2.757  0.00  0.00    +0.050 A 
BRANCH  29  31
ATOM     31  C   UNL     1       0.078   7.557   4.488  0.00  0.00    +0.130 C 
BRANCH  31  32
ATOM     32  C   UNL     1       0.684   6.889   5.695  0.00  0.00    +0.215 C 
ATOM     33  O   UNL     1       0.435   5.726   5.933  0.00  0.00    -0.276 OA
ATOM     34  N   UNL     1       1.502   7.583   6.510  0.00  0.00    -0.329 N 
ATOM     35  H   UNL     1       1.701   8.513   6.320  0.00  0.00    +0.145 HD
ATOM     36  H   UNL     1       1.893   7.153   7.287  0.00  0.00    +0.145 HD
ENDBRANCH  31  32
ENDBRANCH  29  31
ENDBRANCH  24  25
ENDBRANCH   4  24
TORSDOF 7
