REMARK  Name = ZINC40850137
REMARK  11 active torsions:
REMARK  status: ('A' for Active; 'I' for Inactive)
REMARK    1  A    between atoms: C_1  and  C_2
REMARK    2  A    between atoms: C_4  and  C_31
REMARK    3  A    between atoms: C_9  and  C_28
REMARK    4  A    between atoms: C_11  and  S_13
REMARK    5  A    between atoms: S_13  and  C_14
REMARK    6  A    between atoms: C_14  and  C_15
REMARK    7  A    between atoms: C_15  and  C_16
REMARK    8  A    between atoms: N_18  and  C_19
REMARK    9  A    between atoms: C_19  and  C_20
REMARK   10  A    between atoms: C_28  and  C_29
REMARK   11  A    between atoms: C_28  and  C_30
REMARK                            x       y       z     vdW  Elec       q    Type
REMARK                         _______ _______ _______ _____ _____    ______ ____
ROOT
ATOM      1  C   UNL     1      -0.018   1.503   0.010  0.00  0.00    +0.067 C 
ATOM      2  C   UNL     1       0.002  -0.004   0.002  0.00  0.00    +0.061 A 
ATOM      3  C   UNL     1       0.008  -0.817  -1.138  0.00  0.00    +0.048 A 
ATOM      4  C   UNL     1       0.027  -2.106  -0.731  0.00  0.00    +0.045 A 
ATOM      5  N   UNL     1       0.034  -2.108   0.628  0.00  0.00    -0.202 N 
ATOM      6  N   UNL     1       0.023  -0.775   1.058  0.00  0.00    -0.169 NA
ATOM      7  C   UNL     1       0.053  -3.236   1.449  0.00  0.00    +0.253 A 
ATOM      8  N   UNL     1       0.051  -3.078   2.763  0.00  0.00    -0.215 NA
ATOM      9  C   UNL     1       0.068  -4.124   3.576  0.00  0.00    +0.050 A 
ATOM     10  C   UNL     1       0.088  -5.396   3.039  0.00  0.00    +0.058 A 
ATOM     11  C   UNL     1       0.089  -5.532   1.648  0.00  0.00    +0.103 A 
ATOM     12  N   UNL     1       0.066  -4.436   0.894  0.00  0.00    -0.204 NA
ATOM     13  C   UNL     1       0.039  -3.321  -1.622  0.00  0.00    +0.066 C 
ENDROOT
BRANCH   9  14
ATOM     14  C   UNL     1       0.067  -3.928   5.070  0.00  0.00    +0.032 C 
ATOM     15  C   UNL     1      -1.369  -4.009   5.593  0.00  0.00    +0.014 C 
ATOM     16  C   UNL     1       0.912  -5.020   5.729  0.00  0.00    +0.014 C 
ENDBRANCH   9  14
BRANCH  11  17
ATOM     17  S   UNL     1       0.115  -7.129   0.905  0.00  0.00    -0.105 S 
BRANCH  17  18
ATOM     18  C   UNL     1       0.108  -6.785  -0.876  0.00  0.00    +0.085 C 
BRANCH  18  19
ATOM     19  C   UNL     1       0.129  -8.104  -1.651  0.00  0.00    +0.107 C 
BRANCH  19  20
ATOM     20  C   UNL     1       0.124  -7.818  -3.130  0.00  0.00    +0.214 C 
ATOM     21  O   UNL     1       0.104  -6.672  -3.526  0.00  0.00    -0.276 OA
ATOM     22  N   UNL     1       0.140  -8.836  -4.013  0.00  0.00    -0.311 N 
ATOM     23  H   UNL     1       0.155  -9.753  -3.697  0.00  0.00    +0.149 HD
BRANCH  22  24
ATOM     24  C   UNL     1       0.134  -8.558  -5.452  0.00  0.00    +0.139 C 
BRANCH  24  25
ATOM     25  C   UNL     1       0.155  -9.857  -6.215  0.00  0.00    -0.025 A 
ATOM     26  C   UNL     1       1.361 -10.436  -6.560  0.00  0.00    +0.043 A 
ATOM     27  C   UNL     1       1.382 -11.630  -7.261  0.00  0.00    +0.126 A 
ATOM     28  C   UNL     1       0.193 -12.244  -7.616  0.00  0.00    +0.076 A 
ATOM     29  C   UNL     1      -1.015 -11.664  -7.269  0.00  0.00    +0.126 A 
ATOM     30  C   UNL     1      -1.033 -10.473  -6.563  0.00  0.00    +0.043 A 
ATOM     31  F   UNL     1      -2.176 -12.262  -7.615  0.00  0.00    -0.205 F 
ATOM     32  F   UNL     1       2.561 -12.195  -7.600  0.00  0.00    -0.205 F 
ENDBRANCH  24  25
ENDBRANCH  22  24
ENDBRANCH  19  20
ENDBRANCH  18  19
ENDBRANCH  17  18
ENDBRANCH  11  17
TORSDOF 7
