REMARK  Name = ZINC08429208
REMARK  3 active torsions:
REMARK  status: ('A' for Active; 'I' for Inactive)
REMARK    1  A    between atoms: C_1  and  C_2
REMARK    2  A    between atoms: C_10  and  C_16
REMARK    3  A    between atoms: N_18  and  C_19
REMARK                            x       y       z     vdW  Elec       q    Type
REMARK                         _______ _______ _______ _____ _____    ______ ____
ROOT
ATOM      1  C   UNL     1       5.963  -4.009  -0.894  0.00  0.00    +0.008 C 
ATOM      2  C   UNL     1       4.510  -4.130  -0.430  0.00  0.00    -0.009 C 
ATOM      3  C   UNL     1       3.829  -5.282  -1.175  0.00  0.00    +0.009 C 
ATOM      4  C   UNL     1       2.463  -5.565  -0.541  0.00  0.00    +0.054 C 
ATOM      5  C   UNL     1       1.708  -4.260  -0.424  0.00  0.00    +0.020 A 
ATOM      6  C   UNL     1       2.293  -3.050  -0.511  0.00  0.00    -0.019 A 
ATOM      7  C   UNL     1       1.243  -2.048  -0.351  0.00  0.00    +0.004 A 
ATOM      8  C   UNL     1       1.221  -0.655  -0.347  0.00  0.00    +0.023 A 
ATOM      9  C   UNL     1       0.013   0.010  -0.161  0.00  0.00    +0.038 A 
ATOM     10  C   UNL     1      -1.169  -0.721   0.027  0.00  0.00    +0.015 A 
ATOM     11  C   UNL     1      -1.152  -2.084   0.017  0.00  0.00    +0.027 A 
ATOM     12  C   UNL     1       0.046  -2.771  -0.168  0.00  0.00    +0.047 A 
ATOM     13  N   UNL     1       0.366  -4.107  -0.219  0.00  0.00    -0.358 N 
ATOM     14  H   UNL     1      -0.268  -4.835  -0.123  0.00  0.00    +0.166 HD
ATOM     15  C   UNL     1       3.766  -2.822  -0.732  0.00  0.00    +0.040 C 
ENDROOT
BRANCH   9  16
ATOM     16  C   UNL     1      -0.024   1.485  -0.155  0.00  0.00    +0.248 C 
ATOM     17  O   UNL     1       1.002   2.119  -0.313  0.00  0.00    -0.270 OA
ATOM     18  N   UNL     1      -1.194   2.130   0.019  0.00  0.00    -0.281 N 
ATOM     19  H   UNL     1      -2.022   1.627   0.067  0.00  0.00    +0.155 HD
BRANCH  18  20
ATOM     20  C   UNL     1      -1.215   3.526   0.133  0.00  0.00    +0.037 A 
ATOM     21  C   UNL     1      -0.158   4.189   0.743  0.00  0.00    +0.027 A 
ATOM     22  C   UNL     1      -0.175   5.566   0.850  0.00  0.00    +0.051 A 
ATOM     23  C   UNL     1      -1.250   6.289   0.360  0.00  0.00    +0.166 A 
ATOM     24  C   UNL     1      -2.314   5.626  -0.247  0.00  0.00    +0.168 A 
ATOM     25  C   UNL     1      -2.295   4.246  -0.359  0.00  0.00    +0.072 A 
ATOM     26  O   UNL     1      -3.238   6.552  -0.640  0.00  0.00    -0.453 OA
ATOM     27  C   UNL     1      -2.544   7.813  -0.635  0.00  0.00    +0.466 C 
ATOM     28  O   UNL     1      -1.508   7.630   0.348  0.00  0.00    -0.453 OA
ENDBRANCH  18  20
ENDBRANCH   9  16
TORSDOF 2
