REMARK  Name = ZINC30683407
REMARK  13 active torsions:
REMARK  status: ('A' for Active; 'I' for Inactive)
REMARK    1  A    between atoms: C_1  and  C_2
REMARK    2  A    between atoms: C_2  and  O_3
REMARK    3  A    between atoms: O_3  and  C_4
REMARK    4  A    between atoms: N_6  and  C_7
REMARK    5  A    between atoms: C_7  and  C_9
REMARK    6  A    between atoms: C_7  and  C_12
REMARK    7  A    between atoms: C_9  and  C_10
REMARK    8  A    between atoms: C_9  and  C_11
REMARK    9  A    between atoms: N_17  and  C_20
REMARK   10  A    between atoms: C_20  and  C_22
REMARK   11  A    between atoms: C_20  and  C_29
REMARK   12  A    between atoms: C_29  and  O_31
REMARK   13  A    between atoms: O_31  and  C_32
REMARK                            x       y       z     vdW  Elec       q    Type
REMARK                         _______ _______ _______ _____ _____    ______ ____
ROOT
ATOM      1  C   UNL     1      -1.151   0.722  -2.173  0.00  0.00    +0.236 C 
ATOM      2  O   UNL     1      -0.733  -0.415  -2.209  0.00  0.00    -0.274 OA
ATOM      3  N   UNL     1      -0.896   1.501  -1.103  0.00  0.00    -0.298 N 
ATOM      4  C   UNL     1      -0.209   0.958   0.079  0.00  0.00    +0.123 C 
ATOM      5  C   UNL     1      -1.029   1.306   1.325  0.00  0.00    +0.104 C 
ATOM      6  N   UNL     1      -1.277   2.754   1.356  0.00  0.00    -0.283 NA
ATOM      7  C   UNL     1      -2.077   3.187   0.203  0.00  0.00    +0.104 C 
ATOM      8  C   UNL     1      -1.295   2.917  -1.087  0.00  0.00    +0.123 C 
ENDROOT
BRANCH   1   9
ATOM      9  C   UNL     1      -1.957   1.265  -3.325  0.00  0.00    +0.165 C 
BRANCH   9  12
ATOM     10  C   UNL     1      -3.878   0.467  -4.595  0.00  0.00    +0.401 C 
ATOM     11  O   UNL     1      -4.247   1.620  -4.705  0.00  0.00    -0.226 OA
ATOM     12  N   UNL     1      -2.744   0.184  -3.923  0.00  0.00    -0.270 N 
ATOM     13  H   UNL     1      -2.410  -0.860  -3.824  0.00  0.00    +0.153 HD
BRANCH  10  14
ATOM     14  O   UNL     1      -4.601  -0.527  -5.145  0.00  0.00    -0.451 OA
BRANCH  14  16
ATOM     15  C   UNL     1      -6.492  -1.401  -6.405  0.00  0.00    +0.048 C 
ATOM     16  C   UNL     1      -5.810  -0.148  -5.854  0.00  0.00    +0.230 C 
ENDBRANCH  14  16
ENDBRANCH  10  14
ENDBRANCH   9  12
BRANCH   9  17
ATOM     17  C   UNL     1      -1.013   1.851  -4.377  0.00  0.00    +0.012 C 
ATOM     18  C   UNL     1      -1.833   2.463  -5.514  0.00  0.00    +0.009 C 
ATOM     19  C   UNL     1      -0.144   2.934  -3.735  0.00  0.00    +0.009 C 
ENDBRANCH   9  17
ENDBRANCH   1   9
BRANCH   6  20
ATOM     20  C   UNL     1      -1.915   3.152   2.618  0.00  0.00    +0.197 C 
BRANCH  20  21
ATOM     21  C   UNL     1      -1.133   2.587   3.776  0.00  0.00    -0.019 A 
ATOM     22  C   UNL     1       0.249   2.574   3.736  0.00  0.00    +0.007 A 
ATOM     23  C   UNL     1       0.967   2.061   4.800  0.00  0.00    +0.020 A 
ATOM     24  C   UNL     1       0.302   1.550   5.901  0.00  0.00    +0.041 A 
ATOM     25  C   UNL     1      -1.081   1.558   5.938  0.00  0.00    +0.020 A 
ATOM     26  C   UNL     1      -1.798   2.076   4.875  0.00  0.00    +0.007 A 
ATOM     27 CL   UNL     1       1.202   0.899   7.234  0.00  0.00    -0.084 Cl
ENDBRANCH  20  21
BRANCH  20  28
ATOM     28  C   UNL     1      -1.941   4.655   2.716  0.00  0.00    +0.329 C 
ATOM     29  O   UNL     1      -1.476   5.327   1.826  0.00  0.00    -0.249 OA
BRANCH  28  30
ATOM     30  O   UNL     1      -2.481   5.249   3.792  0.00  0.00    -0.467 OA
ATOM     31  C   UNL     1      -2.472   6.700   3.819  0.00  0.00    +0.280 C 
ENDBRANCH  28  30
ENDBRANCH  20  28
ENDBRANCH   6  20
TORSDOF 9
