REMARK  Name = ZINC39694156
REMARK  8 active torsions:
REMARK  status: ('A' for Active; 'I' for Inactive)
REMARK    1  A    between atoms: C_4  and  C_7
REMARK    2  A    between atoms: C_7  and  C_8
REMARK    3  A    between atoms: C_8  and  C_9
REMARK    4  A    between atoms: C_9  and  C_10
REMARK    5  A    between atoms: C_14  and  C_23
REMARK    6  A    between atoms: N_25  and  C_26
REMARK    7  A    between atoms: C_26  and  C_27
REMARK    8  A    between atoms: C_31  and  N_33
REMARK                            x       y       z     vdW  Elec       q    Type
REMARK                         _______ _______ _______ _____ _____    ______ ____
ROOT
ATOM      1  C   UNL     1       5.961  -2.003   2.956  0.00  0.00    +0.216 C 
ATOM      2  O   UNL     1       5.331  -1.587   3.905  0.00  0.00    -0.276 OA
ATOM      3  N   UNL     1       7.142  -2.623   3.151  0.00  0.00    -0.300 N 
ATOM      4  C   UNL     1       8.051  -3.188   2.126  0.00  0.00    +0.121 C 
ATOM      5  C   UNL     1       9.470  -2.836   2.626  0.00  0.00    +0.100 C 
ATOM      6  C   UNL     1       9.315  -2.646   4.144  0.00  0.00    -0.004 C 
ATOM      7  C   UNL     1       7.828  -2.889   4.438  0.00  0.00    +0.115 C 
ATOM      8  C   UNL     1       9.700  -1.224   4.541  0.00  0.00    -0.010 C 
ATOM      9  C   UNL     1       9.593  -1.077   6.061  0.00  0.00    -0.082 C 
ATOM     10  N   UNL     1      10.483  -2.046   6.713  0.00  0.00    +0.379 N 
ATOM     11  C   UNL     1      10.049  -3.413   6.400  0.00  0.00    -0.082 C 
ATOM     12  C   UNL     1      10.175  -3.659   4.894  0.00  0.00    -0.010 C 
ATOM     13  H   UNL     1      11.426  -1.910   6.381  0.00  0.00    -0.086 HD
ATOM     14  H   UNL     1      10.456  -1.906   7.711  0.00  0.00    -0.086 HD
ENDROOT
BRANCH   5  15
ATOM     15  C   UNL     1      10.425  -3.963   2.330  0.00  0.00    +0.218 C 
ATOM     16  O   UNL     1      10.024  -5.108   2.308  0.00  0.00    -0.275 OA
ATOM     17  N   UNL     1      11.725  -3.700   2.091  0.00  0.00    -0.311 N 
ATOM     18  H   UNL     1      12.046  -2.785   2.109  0.00  0.00    +0.149 HD
BRANCH  17  19
ATOM     19  C   UNL     1      12.654  -4.796   1.804  0.00  0.00    +0.139 C 
BRANCH  19  20
ATOM     20  C   UNL     1      14.035  -4.238   1.575  0.00  0.00    -0.028 A 
ATOM     21  C   UNL     1      14.429  -3.870   0.301  0.00  0.00    +0.005 A 
ATOM     22  C   UNL     1      15.695  -3.357   0.087  0.00  0.00    +0.002 A 
ATOM     23  C   UNL     1      16.570  -3.210   1.146  0.00  0.00    +0.026 A 
ATOM     24  C   UNL     1      16.177  -3.578   2.425  0.00  0.00    +0.046 A 
ATOM     25  C   UNL     1      14.903  -4.088   2.638  0.00  0.00    +0.031 A 
BRANCH  24  26
ATOM     26  N   UNL     1      17.063  -3.431   3.502  0.00  0.00    -0.323 N 
ATOM     27  C   UNL     1      16.800  -3.760   4.801  0.00  0.00    +0.091 A 
ATOM     28  C   UNL     1      17.893  -3.474   5.538  0.00  0.00    +0.019 A 
ATOM     29  C   UNL     1      18.867  -2.950   4.664  0.00  0.00    +0.019 A 
ATOM     30  C   UNL     1      18.335  -2.940   3.425  0.00  0.00    +0.091 A 
ENDBRANCH  24  26
ENDBRANCH  19  20
ENDBRANCH  17  19
ENDBRANCH   5  15
BRANCH   1  31
ATOM     31  C   UNL     1       5.424  -1.827   1.559  0.00  0.00    +0.096 C 
BRANCH  31  32
ATOM     32  C   UNL     1       4.080  -1.098   1.618  0.00  0.00    +0.014 C 
BRANCH  32  33
ATOM     33  C   UNL     1       3.535  -0.919   0.200  0.00  0.00    +0.035 C 
BRANCH  33  37
ATOM     34  C   UNL     1      -0.218   1.115   0.361  0.00  0.00    +0.000 A 
ATOM     35  C   UNL     1       0.955   1.837   0.251  0.00  0.00    +0.000 A 
ATOM     36  C   UNL     1       2.170   1.179   0.199  0.00  0.00    +0.003 A 
ATOM     37  C   UNL     1       2.211  -0.201   0.258  0.00  0.00    -0.047 A 
ATOM     38  C   UNL     1       1.037  -0.923   0.368  0.00  0.00    +0.003 A 
ATOM     39  C   UNL     1      -0.177  -0.265   0.419  0.00  0.00    +0.000 A 
ENDBRANCH  33  37
ENDBRANCH  32  33
ENDBRANCH  31  32
ENDBRANCH   1  31
TORSDOF 8
