REMARK  Name = ZINC12151762
REMARK  10 active torsions:
REMARK  status: ('A' for Active; 'I' for Inactive)
REMARK    1  A    between atoms: C_1  and  C_2
REMARK    2  A    between atoms: C_2  and  C_4
REMARK    3  A    between atoms: C_2  and  N_62
REMARK    4  A    between atoms: C_9  and  N_62
REMARK    5  A    between atoms: C_10  and  C_11
REMARK    6  A    between atoms: C_10  and  N_62
REMARK    7  A    between atoms: C_14  and  C_19
REMARK    8  A    between atoms: N_21  and  C_22
REMARK    9  A    between atoms: C_22  and  C_23
REMARK   10  A    between atoms: N_32  and  C_33
REMARK                            x       y       z     vdW  Elec       q    Type
REMARK                         _______ _______ _______ _____ _____    ______ ____
ROOT
ATOM      1  C   UNL     1       0.335   4.080  -0.340  0.00  0.00    +0.003 A 
ATOM      2  C   UNL     1      -0.753   3.269  -0.390  0.00  0.00    +0.020 A 
ATOM      3  C   UNL     1      -0.594   1.897  -0.582  0.00  0.00    +0.020 A 
ATOM      4  C   UNL     1       0.693   1.378  -0.711  0.00  0.00    +0.101 A 
ATOM      5  C   UNL     1       1.798   2.267  -0.652  0.00  0.00    +0.261 A 
ATOM      6  O   UNL     1       2.933   1.838  -0.766  0.00  0.00    -0.267 OA
ATOM      7  N   UNL     1       1.588   3.584  -0.469  0.00  0.00    -0.327 N 
ATOM      8  H   UNL     1       2.347   4.187  -0.430  0.00  0.00    +0.169 HD
ENDROOT
BRANCH   4   9
ATOM      9  C   UNL     1       0.902  -0.064  -0.910  0.00  0.00    +0.250 C 
ATOM     10  O   UNL     1      -0.045  -0.826  -0.877  0.00  0.00    -0.270 OA
ATOM     11  N   UNL     1       2.143  -0.541  -1.129  0.00  0.00    -0.307 N 
ATOM     12  H   UNL     1       2.908   0.055  -1.081  0.00  0.00    +0.149 HD
BRANCH  11  13
ATOM     13  C   UNL     1       2.339  -1.959  -1.440  0.00  0.00    +0.139 C 
BRANCH  13  14
ATOM     14  C   UNL     1       3.808  -2.232  -1.639  0.00  0.00    -0.030 A 
ATOM     15  C   UNL     1       4.368  -2.123  -2.899  0.00  0.00    +0.007 A 
ATOM     16  C   UNL     1       5.712  -2.371  -3.079  0.00  0.00    +0.024 A 
ATOM     17  C   UNL     1       6.512  -2.744  -1.997  0.00  0.00    +0.033 A 
ATOM     18  C   UNL     1       5.947  -2.851  -0.739  0.00  0.00    -0.026 A 
ATOM     19  C   UNL     1       4.595  -2.597  -0.566  0.00  0.00    +0.010 A 
ATOM     20  C   UNL     1       6.759  -3.232   0.473  0.00  0.00    +0.038 C 
ATOM     21  C   UNL     1       8.093  -3.838   0.029  0.00  0.00    +0.024 C 
ATOM     22  C   UNL     1       8.693  -2.923  -1.047  0.00  0.00    +0.105 C 
ATOM     23  N   UNL     1       7.859  -3.002  -2.248  0.00  0.00    -0.333 N 
ATOM     24  C   UNL     1       8.375  -2.124  -3.306  0.00  0.00    +0.129 C 
ENDBRANCH  13  14
ENDBRANCH  11  13
ENDBRANCH   4   9
BRANCH   1  25
ATOM     25  C   UNL     1       0.143   5.561  -0.137  0.00  0.00    -0.024 C 
BRANCH  25  27
ATOM     26  C   UNL     1      -0.350   6.148  -2.434  0.00  0.00    -0.095 C 
ATOM     27  N   UNL     1       0.633   6.271  -1.337  0.00  0.00    +0.388 N 
ATOM     28  H   UNL     1       1.520   5.849  -1.635  0.00  0.00    -0.081 HD
BRANCH  27  30
ATOM     29  C   UNL     1      -0.470   8.421  -0.817  0.00  0.00    -0.005 C 
ATOM     30  C   UNL     1       0.862   7.697  -1.022  0.00  0.00    -0.004 C 
BRANCH  30  31
ATOM     31  C   UNL     1       1.608   8.334  -2.167  0.00  0.00    +0.091 A 
ATOM     32  C   UNL     1       2.698   9.115  -2.058  0.00  0.00    +0.043 A 
ATOM     33  C   UNL     1       3.065   9.490  -3.370  0.00  0.00    +0.041 A 
ATOM     34  C   UNL     1       2.179   8.916  -4.203  0.00  0.00    +0.195 A 
ATOM     35  O   UNL     1       1.302   8.212  -3.468  0.00  0.00    -0.469 OA
ENDBRANCH  30  31
ENDBRANCH  27  30
ENDBRANCH  25  27
ENDBRANCH   1  25
TORSDOF 7
