REMARK  Name = ZINC38976216
REMARK  5 active torsions:
REMARK  status: ('A' for Active; 'I' for Inactive)
REMARK    1  A    between atoms: C_1  and  C_2
REMARK    2  A    between atoms: C_6  and  S_8
REMARK    3  A    between atoms: S_8  and  N_11
REMARK    4  A    between atoms: C_13  and  N_23
REMARK    5  A    between atoms: N_23  and  C_24
REMARK                            x       y       z     vdW  Elec       q    Type
REMARK                         _______ _______ _______ _____ _____    ______ ____
ROOT
ATOM      1  N   UNL     1       1.496  -3.449   3.147  0.00  0.00    -0.110 NA
ATOM      2  C   UNL     1       1.904  -3.978   4.262  0.00  0.00    +0.192 C 
ATOM      3  C   UNL     1       3.379  -4.030   4.592  0.00  0.00    +0.237 C 
ATOM      4  N   UNL     1       3.776  -4.642   5.870  0.00  0.00    -0.359 N 
ATOM      5  C   UNL     1       2.843  -5.107   6.653  0.00  0.00    +0.063 A 
ATOM      6  C   UNL     1       3.187  -5.728   7.941  0.00  0.00    +0.027 A 
ATOM      7  C   UNL     1       2.192  -6.198   8.726  0.00  0.00    +0.002 A 
ATOM      8  C   UNL     1       0.844  -6.109   8.342  0.00  0.00    +0.002 A 
ATOM      9  C   UNL     1       0.451  -5.553   7.176  0.00  0.00    +0.030 A 
ATOM     10  C   UNL     1       1.411  -5.027   6.274  0.00  0.00    +0.089 A 
ATOM     11  N   UNL     1       1.022  -4.482   5.140  0.00  0.00    -0.226 NA
ATOM     12  H   UNL     1       4.710  -4.698   6.124  0.00  0.00    +0.162 HD
ENDROOT
BRANCH   1  13
ATOM     13  S   UNL     1      -0.123  -3.392   2.801  0.00  0.00    +0.100 S 
ATOM     14  O   UNL     1      -0.711  -2.515   3.752  0.00  0.00    -0.146 OA
ATOM     15  O   UNL     1      -0.551  -4.737   2.638  0.00  0.00    -0.146 OA
BRANCH  13  21
ATOM     16  C   UNL     1      -0.728   0.862  -0.176  0.00  0.00    +0.044 C 
ATOM     17  C   UNL     1      -0.571  -0.635  -0.087  0.00  0.00    -0.049 A 
ATOM     18  C   UNL     1      -0.560  -1.398  -1.240  0.00  0.00    +0.003 A 
ATOM     19  C   UNL     1      -0.416  -2.770  -1.158  0.00  0.00    +0.002 A 
ATOM     20  C   UNL     1      -0.282  -3.379   0.076  0.00  0.00    +0.029 A 
ATOM     21  C   UNL     1      -0.292  -2.616   1.228  0.00  0.00    +0.113 A 
ATOM     22  C   UNL     1      -0.432  -1.243   1.146  0.00  0.00    +0.032 A 
ENDBRANCH  13  21
ENDBRANCH   1  13
BRANCH   3  23
ATOM     23  N   UNL     1       4.051  -4.765   3.518  0.00  0.00    -0.316 N 
ATOM     24  H   UNL     1       3.659  -5.580   3.168  0.00  0.00    +0.148 HD
BRANCH  23  25
ATOM     25  C   UNL     1       5.260  -4.291   2.997  0.00  0.00    +0.065 A 
ATOM     26  C   UNL     1       5.888  -3.198   3.579  0.00  0.00    +0.027 A 
ATOM     27  C   UNL     1       7.081  -2.732   3.063  0.00  0.00    +0.017 A 
ATOM     28  C   UNL     1       7.652  -3.352   1.966  0.00  0.00    +0.021 A 
ATOM     29  C   UNL     1       7.030  -4.441   1.382  0.00  0.00    +0.055 A 
ATOM     30  C   UNL     1       5.838  -4.916   1.897  0.00  0.00    +0.145 A 
ATOM     31  F   UNL     1       5.233  -5.983   1.331  0.00  0.00    -0.204 F 
ATOM     32 BR   UNL     1       9.286  -2.710   1.263  0.00  0.00    -0.050 Br
ENDBRANCH  23  25
ENDBRANCH   3  23
TORSDOF 4
