REMARK  Name = ZINC08854899
REMARK  10 active torsions:
REMARK  status: ('A' for Active; 'I' for Inactive)
REMARK    1  A    between atoms: C_1  and  C_2
REMARK    2  A    between atoms: C_2  and  O_3
REMARK    3  A    between atoms: O_3  and  C_4
REMARK    4  A    between atoms: C_6  and  C_13
REMARK    5  A    between atoms: C_8  and  N_10
REMARK    6  A    between atoms: C_16  and  C_27
REMARK    7  A    between atoms: C_22  and  N_26
REMARK    8  A    between atoms: C_23  and  C_24
REMARK    9  A    between atoms: C_30  and  O_33
REMARK   10  A    between atoms: O_33  and  C_34
REMARK                            x       y       z     vdW  Elec       q    Type
REMARK                         _______ _______ _______ _____ _____    ______ ____
ROOT
ATOM      1  C   UNL     1       3.003   4.144  -1.712  0.00  0.00    +0.102 C 
ATOM      2  C   UNL     1       3.979   3.450  -0.798  0.00  0.00    +0.054 A 
ATOM      3  C   UNL     1       3.800   2.302  -0.020  0.00  0.00    +0.100 A 
ATOM      4  N   UNL     1       4.928   2.069   0.625  0.00  0.00    -0.171 NA
ATOM      5  N   UNL     1       5.856   3.059   0.265  0.00  0.00    -0.246 N 
ATOM      6  H   UNL     1       6.797   3.130   0.595  0.00  0.00    +0.192 HD
ATOM      7  C   UNL     1       5.255   3.897  -0.605  0.00  0.00    +0.223 A 
ATOM      8  O   UNL     1       5.746   4.999  -1.225  0.00  0.00    -0.423 OA
ATOM      9  C   UNL     1       5.038   5.504  -2.256  0.00  0.00    +0.200 C 
ATOM     10  C   UNL     1       3.765   5.150  -2.539  0.00  0.00    +0.098 C 
ENDROOT
BRANCH   1  13
ATOM     11  C   UNL     1      -0.343   5.146  -0.272  0.00  0.00    +0.170 A 
ATOM     12  C   UNL     1       0.623   4.501  -1.027  0.00  0.00    +0.054 A 
ATOM     13  C   UNL     1       1.953   4.851  -0.893  0.00  0.00    -0.029 A 
ATOM     14  C   UNL     1       2.323   5.851  -0.013  0.00  0.00    +0.041 A 
ATOM     15  C   UNL     1       1.364   6.502   0.740  0.00  0.00    +0.177 A 
ATOM     16  C   UNL     1       0.029   6.153   0.614  0.00  0.00    +0.250 A 
ATOM     17  O   UNL     1      -0.916   6.793   1.354  0.00  0.00    -0.282 OA
BRANCH  15  18
ATOM     18  N   UNL     1       1.763   7.574   1.680  0.00  0.00    +0.060 N 
ATOM     19  O   UNL     1       2.936   7.881   1.791  0.00  0.00    -0.126 OA
ATOM     20  O   UNL     1       0.918   8.148   2.344  0.00  0.00    -0.126 OA
ENDBRANCH  15  18
BRANCH  11  21
ATOM     21  O   UNL     1      -1.652   4.800  -0.399  0.00  0.00    -0.488 OA
BRANCH  21  23
ATOM     22  C   UNL     1      -3.446   3.374  -1.167  0.00  0.00    +0.048 C 
ATOM     23  C   UNL     1      -1.948   3.680  -1.236  0.00  0.00    +0.226 C 
ENDBRANCH  21  23
ENDBRANCH  11  21
ENDBRANCH   1  13
BRANCH   3  24
ATOM     24  C   UNL     1       2.560   1.493   0.070  0.00  0.00    +0.003 A 
ATOM     25  C   UNL     1       1.827   1.209  -1.081  0.00  0.00    +0.013 A 
ATOM     26  C   UNL     1       0.674   0.456  -0.995  0.00  0.00    +0.046 A 
ATOM     27  C   UNL     1       0.244  -0.017   0.237  0.00  0.00    +0.120 A 
ATOM     28  C   UNL     1       0.971   0.265   1.385  0.00  0.00    +0.046 A 
ATOM     29  C   UNL     1       2.125   1.016   1.305  0.00  0.00    +0.013 A 
BRANCH  27  30
ATOM     30  O   UNL     1      -0.893  -0.758   0.319  0.00  0.00    -0.495 OA
ATOM     31  C   UNL     1      -1.278  -1.214   1.618  0.00  0.00    +0.277 C 
ENDBRANCH  27  30
ENDBRANCH   3  24
BRANCH   9  32
ATOM     32  N   UNL     1       5.646   6.431  -3.065  0.00  0.00    -0.328 N 
ATOM     33  H   UNL     1       6.560   6.705  -2.887  0.00  0.00    +0.145 HD
ATOM     34  H   UNL     1       5.163   6.812  -3.814  0.00  0.00    +0.145 HD
ENDBRANCH   9  32
BRANCH  10  35
ATOM     35  C   UNL     1       3.116   5.751  -3.665  0.00  0.00    +0.101 C 
ATOM     36  N   UNL     1       2.601   6.227  -4.558  0.00  0.00    -0.191 NA
ENDBRANCH  10  35
TORSDOF 8
