REMARK  Name = ZINC40093842
REMARK  15 active torsions:
REMARK  status: ('A' for Active; 'I' for Inactive)
REMARK    1  A    between atoms: C_1  and  C_2
REMARK    2  A    between atoms: C_4  and  C_13
REMARK    3  A    between atoms: C_7  and  O_8
REMARK    4  A    between atoms: O_8  and  C_9
REMARK    5  A    between atoms: C_9  and  C_10
REMARK    6  A    between atoms: C_10  and  C_11
REMARK    7  A    between atoms: C_10  and  C_12
REMARK    8  A    between atoms: C_13  and  C_15
REMARK    9  A    between atoms: N_19  and  C_30
REMARK   10  A    between atoms: C_20  and  C_22
REMARK   11  A    between atoms: C_30  and  C_31
REMARK   12  A    between atoms: C_31  and  O_32
REMARK   13  A    between atoms: O_32  and  C_33
REMARK   14  A    between atoms: C_33  and  C_34
REMARK   15  A    between atoms: C_34  and  O_35
REMARK                            x       y       z     vdW  Elec       q    Type
REMARK                         _______ _______ _______ _____ _____    ______ ____
ROOT
ATOM      1  C   UNL     1       0.490  -4.772  -2.907  0.00  0.00    +0.076 C 
ATOM      2  C   UNL     1       0.510  -5.883  -3.679  0.00  0.00    +0.249 C 
ATOM      3  C   UNL     1       0.439  -7.078  -2.813  0.00  0.00    +0.288 C 
ATOM      4  O   UNL     1       0.437  -8.227  -3.208  0.00  0.00    -0.266 OA
ATOM      5  N   UNL     1       0.375  -6.706  -1.522  0.00  0.00    -0.281 N 
ATOM      6  C   UNL     1       0.408  -5.239  -1.473  0.00  0.00    +0.146 C 
ATOM      7  O   UNL     1       0.584  -5.897  -5.030  0.00  0.00    -0.282 OA
ENDROOT
BRANCH   6   8
ATOM      8  C   UNL     1       1.618  -4.770  -0.705  0.00  0.00    -0.004 A 
ATOM      9  C   UNL     1       2.736  -5.578  -0.618  0.00  0.00    +0.008 A 
ATOM     10  C   UNL     1       3.846  -5.149   0.085  0.00  0.00    +0.020 A 
ATOM     11  C   UNL     1       3.838  -3.910   0.703  0.00  0.00    +0.042 A 
ATOM     12  C   UNL     1       2.719  -3.102   0.615  0.00  0.00    +0.040 A 
ATOM     13  C   UNL     1       1.610  -3.530  -0.093  0.00  0.00    +0.048 A 
ATOM     14 CL   UNL     1       0.208  -2.513  -0.209  0.00  0.00    -0.083 Cl
ATOM     15 CL   UNL     1       5.231  -3.371   1.587  0.00  0.00    -0.083 Cl
ENDBRANCH   6   8
BRANCH   1  16
ATOM     16  C   UNL     1       0.543  -3.382  -3.372  0.00  0.00    +0.195 C 
ATOM     17  O   UNL     1       1.554  -2.955  -3.898  0.00  0.00    -0.287 OA
BRANCH  16  21
ATOM     18  C   UNL     1      -1.546   1.132  -3.736  0.00  0.00    +0.047 C 
ATOM     19  C   UNL     1      -1.639  -0.329  -3.378  0.00  0.00    -0.008 A 
ATOM     20  C   UNL     1      -0.542  -1.147  -3.536  0.00  0.00    +0.018 A 
ATOM     21  C   UNL     1      -0.629  -2.502  -3.203  0.00  0.00    +0.023 A 
ATOM     22  C   UNL     1      -1.831  -3.021  -2.710  0.00  0.00    +0.015 A 
ATOM     23  C   UNL     1      -2.922  -2.196  -2.555  0.00  0.00    +0.046 A 
ATOM     24  C   UNL     1      -2.829  -0.848  -2.882  0.00  0.00    +0.123 A 
BRANCH  24  25
ATOM     25  O   UNL     1      -3.906  -0.037  -2.722  0.00  0.00    -0.491 OA
BRANCH  25  26
ATOM     26  C   UNL     1      -5.097  -0.636  -2.208  0.00  0.00    +0.232 C 
BRANCH  26  27
ATOM     27  C   UNL     1      -6.194   0.425  -2.098  0.00  0.00    +0.020 C 
ATOM     28  C   UNL     1      -7.504  -0.237  -1.666  0.00  0.00    +0.010 C 
ATOM     29  C   UNL     1      -5.787   1.474  -1.060  0.00  0.00    +0.010 C 
ENDBRANCH  26  27
ENDBRANCH  25  26
ENDBRANCH  24  25
ENDBRANCH  16  21
ENDBRANCH   1  16
BRANCH   5  30
ATOM     30  C   UNL     1       0.293  -7.605  -0.368  0.00  0.00    +0.137 C 
BRANCH  30  31
ATOM     31  C   UNL     1      -1.170  -7.973  -0.111  0.00  0.00    +0.179 C 
BRANCH  31  32
ATOM     32  O   UNL     1      -1.669  -8.737  -1.210  0.00  0.00    -0.376 OA
BRANCH  32  33
ATOM     33  C   UNL     1      -3.063  -9.038  -1.123  0.00  0.00    +0.187 C 
BRANCH  33  34
ATOM     34  C   UNL     1      -3.459  -9.957  -2.280  0.00  0.00    +0.184 C 
BRANCH  34  35
ATOM     35  O   UNL     1      -2.800 -11.217  -2.135  0.00  0.00    -0.393 OA
ATOM     36  H   UNL     1      -3.006 -11.851  -2.836  0.00  0.00    +0.209 HD
ENDBRANCH  34  35
ENDBRANCH  33  34
ENDBRANCH  32  33
ENDBRANCH  31  32
ENDBRANCH  30  31
ENDBRANCH   5  30
TORSDOF 12
