REMARK  Name = ZINC06405659
REMARK  13 active torsions:
REMARK  status: ('A' for Active; 'I' for Inactive)
REMARK    1  A    between atoms: C_1  and  C_2
REMARK    2  A    between atoms: C_5  and  C_38
REMARK    3  A    between atoms: C_9  and  C_14
REMARK    4  A    between atoms: C_14  and  C_16
REMARK    5  A    between atoms: C_14  and  N_67
REMARK    6  A    between atoms: N_20  and  C_21
REMARK    7  A    between atoms: C_21  and  C_22
REMARK    8  A    between atoms: C_22  and  O_23
REMARK    9  A    between atoms: O_23  and  C_24
REMARK   10  A    between atoms: C_25  and  C_26
REMARK   11  A    between atoms: C_25  and  N_67
REMARK   12  A    between atoms: C_32  and  C_33
REMARK   13  A    between atoms: C_32  and  N_67
REMARK                            x       y       z     vdW  Elec       q    Type
REMARK                         _______ _______ _______ _____ _____    ______ ____
ROOT
ATOM      1  C   UNL     1       2.674   0.554  -0.034  0.00  0.00    +0.040 C 
ENDROOT
BRANCH   1  10
ATOM      2  C   UNL     1      -2.153  -1.376   0.269  0.00  0.00    +0.044 C 
ATOM      3  C   UNL     1      -2.251   0.111   0.493  0.00  0.00    -0.041 A 
ATOM      4  C   UNL     1      -3.466   0.692   0.723  0.00  0.00    +0.004 A 
ATOM      5  C   UNL     1      -3.566   2.061   0.930  0.00  0.00    +0.005 A 
ATOM      6  C   UNL     1      -2.443   2.860   0.909  0.00  0.00    -0.026 A 
ATOM      7  C   UNL     1      -1.195   2.291   0.678  0.00  0.00    +0.052 A 
ATOM      8  C   UNL     1      -1.098   0.903   0.462  0.00  0.00    +0.002 A 
ATOM      9  C   UNL     1       0.220   0.312   0.225  0.00  0.00    +0.018 A 
ATOM     10  C   UNL     1       1.303   1.129   0.212  0.00  0.00    +0.011 A 
ATOM     11  C   UNL     1       1.150   2.515   0.428  0.00  0.00    +0.251 A 
ATOM     12  O   UNL     1       2.137   3.231   0.412  0.00  0.00    -0.268 OA
ATOM     13  N   UNL     1      -0.056   3.066   0.651  0.00  0.00    -0.322 N 
ATOM     14  H   UNL     1      -0.125   4.022   0.796  0.00  0.00    +0.169 HD
ATOM     15  C   UNL     1      -2.567   4.345   1.135  0.00  0.00    +0.046 C 
ENDBRANCH   1  10
BRANCH   1  16
ATOM     16  C   UNL     1       3.567   0.864   1.139  0.00  0.00    +0.143 A 
ATOM     17  N   UNL     1       4.114   2.022   1.421  0.00  0.00    -0.115 NA
ATOM     18  N   UNL     1       4.803   1.883   2.501  0.00  0.00    -0.023 NA
ATOM     19  N   UNL     1       4.717   0.665   2.910  0.00  0.00    -0.044 NA
ATOM     20  N   UNL     1       3.964   0.006   2.097  0.00  0.00    -0.228 N 
BRANCH  20  21
ATOM     21  C   UNL     1       3.607  -1.412   2.197  0.00  0.00    +0.175 C 
BRANCH  21  22
ATOM     22  C   UNL     1       4.605  -2.247   1.392  0.00  0.00    +0.183 C 
BRANCH  22  23
ATOM     23  O   UNL     1       4.181  -3.611   1.377  0.00  0.00    -0.381 OA
ATOM     24  C   UNL     1       5.049  -4.481   0.647  0.00  0.00    +0.194 C 
ENDBRANCH  22  23
ENDBRANCH  21  22
ENDBRANCH  20  21
ENDBRANCH   1  16
BRANCH   1  25
ATOM     25  N   UNL     1       3.245   1.175  -1.248  0.00  0.00    +0.397 N 
ATOM     26  H   UNL     1       3.352   2.183  -1.088  0.00  0.00    -0.079 HD
BRANCH  25  27
ATOM     27  C   UNL     1       4.571   0.590  -1.538  0.00  0.00    -0.041 C 
BRANCH  27  28
ATOM     28  C   UNL     1       5.591   1.241  -0.640  0.00  0.00    -0.064 A 
ATOM     29  C   UNL     1       5.934   2.567  -0.830  0.00  0.00    +0.002 A 
ATOM     30  C   UNL     1       6.866   3.165  -0.003  0.00  0.00    +0.000 A 
ATOM     31  C   UNL     1       7.463   2.435   1.007  0.00  0.00    +0.000 A 
ATOM     32  C   UNL     1       7.125   1.107   1.193  0.00  0.00    +0.000 A 
ATOM     33  C   UNL     1       6.189   0.511   0.370  0.00  0.00    +0.002 A 
ENDBRANCH  27  28
ENDBRANCH  25  27
BRANCH  25  34
ATOM     34  C   UNL     1       2.338   0.965  -2.397  0.00  0.00    -0.001 C 
BRANCH  34  35
ATOM     35  C   UNL     1       1.330   2.085  -2.423  0.00  0.00    +0.089 A 
ATOM     36  C   UNL     1       1.528   3.309  -2.944  0.00  0.00    +0.042 A 
ATOM     37  C   UNL     1       0.329   4.034  -2.754  0.00  0.00    +0.041 A 
ATOM     38  C   UNL     1      -0.530   3.209  -2.128  0.00  0.00    +0.195 A 
ATOM     39  O   UNL     1       0.080   2.028  -1.936  0.00  0.00    -0.470 OA
ENDBRANCH  34  35
ENDBRANCH  25  34
ENDBRANCH   1  25
TORSDOF 10
