REMARK  Name = ZINC00861407
REMARK  10 active torsions:
REMARK  status: ('A' for Active; 'I' for Inactive)
REMARK    1  A    between atoms: C_1  and  C_2
REMARK    2  A    between atoms: C_3  and  C_31
REMARK    3  A    between atoms: C_4  and  C_23
REMARK    4  A    between atoms: C_10  and  C_15
REMARK    5  A    between atoms: C_18  and  O_21
REMARK    6  A    between atoms: O_21  and  C_22
REMARK    7  A    between atoms: C_26  and  O_29
REMARK    8  A    between atoms: O_29  and  C_30
REMARK    9  A    between atoms: C_31  and  O_33
REMARK   10  A    between atoms: O_33  and  C_34
REMARK                            x       y       z     vdW  Elec       q    Type
REMARK                         _______ _______ _______ _____ _____    ______ ____
ROOT
ATOM      1  C   UNL     1       2.640  -5.665  -2.545  0.00  0.00    +0.061 C 
ATOM      2  C   UNL     1       1.997  -5.204  -1.263  0.00  0.00    +0.016 C 
ATOM      3  C   UNL     1       0.730  -4.754  -1.276  0.00  0.00    +0.065 C 
ATOM      4  C   UNL     1       0.060  -4.277  -0.021  0.00  0.00    +0.092 C 
ATOM      5  C   UNL     1       0.791  -4.769   1.203  0.00  0.00    +0.024 C 
ATOM      6  C   UNL     1       2.059  -5.223   1.113  0.00  0.00    +0.016 C 
ATOM      7  N   UNL     1       2.704  -5.246  -0.094  0.00  0.00    -0.321 N 
ATOM      8  C   UNL     1       2.795  -5.720   2.332  0.00  0.00    +0.059 C 
ATOM      9  C   UNL     1       2.300  -4.972   3.572  0.00  0.00    +0.032 C 
ATOM     10  C   UNL     1       0.789  -5.195   3.702  0.00  0.00    +0.088 C 
ATOM     11  C   UNL     1       0.117  -4.739   2.436  0.00  0.00    +0.162 C 
ATOM     12  O   UNL     1      -1.030  -4.338   2.480  0.00  0.00    -0.292 OA
ATOM     13  H   UNL     1       3.803  -5.298  -0.118  0.00  0.00    +0.152 HD
ENDROOT
BRANCH   9  14
ATOM     14  C   UNL     1       2.998  -5.504   4.797  0.00  0.00    -0.043 A 
ATOM     15  C   UNL     1       2.882  -6.841   5.131  0.00  0.00    +0.007 A 
ATOM     16  C   UNL     1       3.525  -7.332   6.250  0.00  0.00    +0.046 A 
ATOM     17  C   UNL     1       4.279  -6.481   7.046  0.00  0.00    +0.120 A 
ATOM     18  C   UNL     1       4.389  -5.139   6.711  0.00  0.00    +0.046 A 
ATOM     19  C   UNL     1       3.748  -4.654   5.588  0.00  0.00    +0.007 A 
BRANCH  17  20
ATOM     20  O   UNL     1       4.909  -6.962   8.150  0.00  0.00    -0.495 OA
ATOM     21  C   UNL     1       4.751  -8.353   8.433  0.00  0.00    +0.277 C 
ENDBRANCH  17  20
ENDBRANCH   9  14
BRANCH   4  22
ATOM     22  C   UNL     1       0.040  -2.770  -0.013  0.00  0.00    -0.035 A 
ATOM     23  C   UNL     1      -1.168  -2.096   0.002  0.00  0.00    +0.008 A 
ATOM     24  C   UNL     1      -1.189  -0.715   0.010  0.00  0.00    +0.046 A 
ATOM     25  C   UNL     1       0.002  -0.004   0.002  0.00  0.00    +0.120 A 
ATOM     26  C   UNL     1       1.212  -0.682  -0.019  0.00  0.00    +0.046 A 
ATOM     27  C   UNL     1       1.228  -2.064  -0.020  0.00  0.00    +0.008 A 
BRANCH  25  28
ATOM     28  O   UNL     1      -0.016   1.355   0.009  0.00  0.00    -0.495 OA
ATOM     29  C   UNL     1       1.248   2.021   0.001  0.00  0.00    +0.277 C 
ENDBRANCH  25  28
ENDBRANCH   4  22
BRANCH   3  30
ATOM     30  C   UNL     1       0.015  -4.729  -2.497  0.00  0.00    +0.338 C 
ATOM     31  O   UNL     1       0.548  -5.113  -3.522  0.00  0.00    -0.245 OA
BRANCH  30  32
ATOM     32  O   UNL     1      -1.257  -4.279  -2.525  0.00  0.00    -0.458 OA
BRANCH  32  33
ATOM     33  C   UNL     1      -1.918  -4.282  -3.791  0.00  0.00    +0.177 C 
ATOM     34  C   UNL     1      -1.742  -2.914  -4.483  0.00  0.00    +0.044 C 
ATOM     35  C   UNL     1      -3.097  -2.670  -5.191  0.00  0.00    +0.004 C 
ATOM     36  C   UNL     1      -4.121  -3.232  -4.175  0.00  0.00    +0.004 C 
ATOM     37  C   UNL     1      -3.431  -4.484  -3.595  0.00  0.00    +0.044 C 
ENDBRANCH  32  33
ENDBRANCH  30  32
ENDBRANCH   3  30
TORSDOF 7
