REMARK  Name = ZINC13095180
REMARK  13 active torsions:
REMARK  status: ('A' for Active; 'I' for Inactive)
REMARK    1  A    between atoms: C_1  and  C_2
REMARK    2  A    between atoms: C_2  and  O_3
REMARK    3  A    between atoms: O_3  and  C_4
REMARK    4  A    between atoms: C_4  and  C_6
REMARK    5  A    between atoms: C_10  and  N_11
REMARK    6  A    between atoms: C_12  and  C_14
REMARK    7  A    between atoms: C_14  and  S_15
REMARK    8  A    between atoms: S_15  and  C_16
REMARK    9  A    between atoms: N_20  and  C_21
REMARK   10  A    between atoms: C_23  and  C_29
REMARK   11  A    between atoms: C_26  and  O_27
REMARK   12  A    between atoms: O_27  and  C_28
REMARK   13  A    between atoms: C_31  and  C_35
REMARK                            x       y       z     vdW  Elec       q    Type
REMARK                         _______ _______ _______ _____ _____    ______ ____
ROOT
ATOM      1  N   UNL     1      -1.092  -1.501  -2.534  0.00  0.00    -0.279 N 
ATOM      2  C   UNL     1      -1.898  -1.842  -3.559  0.00  0.00    +0.228 C 
ATOM      3  O   UNL     1      -2.890  -2.509  -3.354  0.00  0.00    -0.275 OA
ATOM      4  H   UNL     1      -0.298  -0.968  -2.699  0.00  0.00    +0.155 HD
ENDROOT
BRANCH   1   9
ATOM      5  C   UNL     1      -0.696  -1.663  -0.073  0.00  0.00    +0.091 A 
ATOM      6  C   UNL     1      -1.238  -2.209   1.160  0.00  0.00    -0.021 A 
ATOM      7  C   UNL     1      -2.381  -2.914   1.024  0.00  0.00    -0.004 A 
ATOM      8  S   UNL     1      -2.742  -2.862  -0.709  0.00  0.00    -0.077 S 
ATOM      9  C   UNL     1      -1.396  -1.911  -1.246  0.00  0.00    +0.086 A 
ATOM     10  C   UNL     1      -3.163  -3.587   2.110  0.00  0.00    +0.046 C 
ATOM     11  C   UNL     1      -2.678  -3.045   3.462  0.00  0.00    -0.009 C 
ATOM     12  C   UNL     1      -1.147  -3.075   3.485  0.00  0.00    +0.008 C 
ATOM     13  C   UNL     1      -0.591  -2.020   2.527  0.00  0.00    +0.037 C 
ATOM     14  C   UNL     1      -3.228  -3.917   4.592  0.00  0.00    +0.008 C 
BRANCH   5  15
ATOM     15  C   UNL     1       0.538  -0.875  -0.077  0.00  0.00    +0.342 C 
ATOM     16  O   UNL     1       1.612  -1.428  -0.222  0.00  0.00    -0.245 OA
BRANCH  15  17
ATOM     17  O   UNL     1       0.485   0.463   0.079  0.00  0.00    -0.461 OA
BRANCH  17  19
ATOM     18  C   UNL     1       1.488   2.675   0.255  0.00  0.00    +0.048 C 
ATOM     19  C   UNL     1       1.748   1.180   0.065  0.00  0.00    +0.229 C 
ENDBRANCH  17  19
ENDBRANCH  15  17
ENDBRANCH   5  15
ENDBRANCH   1   9
BRANCH   2  20
ATOM     20  C   UNL     1      -1.567  -1.396  -4.960  0.00  0.00    +0.173 C 
BRANCH  20  21
ATOM     21  S   UNL     1      -2.830  -2.008  -6.103  0.00  0.00    -0.075 S 
BRANCH  21  22
ATOM     22  C   UNL     1      -2.211  -1.359  -7.619  0.00  0.00    +0.215 A 
ATOM     23  N   UNL     1      -1.124  -0.634  -7.774  0.00  0.00    -0.101 NA
ATOM     24  N   UNL     1      -0.960  -0.327  -9.010  0.00  0.00    -0.022 NA
ATOM     25  N   UNL     1      -1.915  -0.816  -9.725  0.00  0.00    -0.038 NA
ATOM     26  N   UNL     1      -2.768  -1.507  -8.847  0.00  0.00    -0.184 N 
BRANCH  26  27
ATOM     27  C   UNL     1      -3.944  -2.201  -9.171  0.00  0.00    +0.112 A 
ATOM     28  C   UNL     1      -5.097  -2.002  -8.427  0.00  0.00    +0.035 A 
ATOM     29  C   UNL     1      -6.253  -2.686  -8.748  0.00  0.00    -0.048 A 
ATOM     30  C   UNL     1      -6.265  -3.571  -9.812  0.00  0.00    +0.007 A 
ATOM     31  C   UNL     1      -5.120  -3.774 -10.558  0.00  0.00    +0.048 A 
ATOM     32  C   UNL     1      -3.957  -3.088 -10.245  0.00  0.00    +0.146 A 
ATOM     33  C   UNL     1      -7.505  -2.468  -7.938  0.00  0.00    +0.044 C 
BRANCH  32  34
ATOM     34  O   UNL     1      -2.832  -3.283 -10.982  0.00  0.00    -0.493 OA
ATOM     35  C   UNL     1      -2.920  -4.207 -12.069  0.00  0.00    +0.277 C 
ENDBRANCH  32  34
ENDBRANCH  26  27
ENDBRANCH  21  22
ENDBRANCH  20  21
ENDBRANCH   2  20
TORSDOF 9
