REMARK  Name = ZINC39694398
REMARK  8 active torsions:
REMARK  status: ('A' for Active; 'I' for Inactive)
REMARK    1  A    between atoms: C_1  and  C_2
REMARK    2  A    between atoms: C_2  and  O_3
REMARK    3  A    between atoms: O_3  and  C_4
REMARK    4  A    between atoms: C_8  and  C_10
REMARK    5  A    between atoms: C_14  and  C_23
REMARK    6  A    between atoms: N_25  and  C_26
REMARK    7  A    between atoms: C_26  and  C_27
REMARK    8  A    between atoms: C_32  and  N_33
REMARK                            x       y       z     vdW  Elec       q    Type
REMARK                         _______ _______ _______ _____ _____    ______ ____
ROOT
ATOM      1  C   UNL     1       2.408  -4.394   4.183  0.00  0.00    +0.247 C 
ATOM      2  O   UNL     1       3.129  -3.735   4.906  0.00  0.00    -0.270 OA
ATOM      3  N   UNL     1       2.457  -5.740   4.229  0.00  0.00    -0.296 N 
ATOM      4  C   UNL     1       1.761  -6.705   3.345  0.00  0.00    +0.121 C 
ATOM      5  C   UNL     1       2.792  -7.831   3.107  0.00  0.00    +0.100 C 
ATOM      6  C   UNL     1       3.745  -7.751   4.311  0.00  0.00    -0.004 C 
ATOM      7  C   UNL     1       3.224  -6.590   5.171  0.00  0.00    +0.115 C 
ATOM      8  C   UNL     1       5.167  -7.456   3.842  0.00  0.00    -0.010 C 
ATOM      9  C   UNL     1       6.105  -7.438   5.052  0.00  0.00    -0.082 C 
ATOM     10  N   UNL     1       6.053  -8.738   5.733  0.00  0.00    +0.379 N 
ATOM     11  C   UNL     1       4.705  -8.972   6.262  0.00  0.00    -0.082 C 
ATOM     12  C   UNL     1       3.707  -9.055   5.103  0.00  0.00    -0.010 C 
ATOM     13  H   UNL     1       6.288  -9.468   5.078  0.00  0.00    -0.086 HD
ATOM     14  H   UNL     1       6.717  -8.745   6.492  0.00  0.00    -0.086 HD
ENDROOT
BRANCH   1  19
ATOM     15  C   UNL     1      -0.499  -3.765   1.884  0.00  0.00    +0.121 A 
ATOM     16  C   UNL     1      -0.263  -2.449   1.508  0.00  0.00    +0.046 A 
ATOM     17  C   UNL     1       0.837  -1.771   2.000  0.00  0.00    +0.004 A 
ATOM     18  C   UNL     1       1.707  -2.398   2.869  0.00  0.00    +0.013 A 
ATOM     19  C   UNL     1       1.478  -3.720   3.253  0.00  0.00    +0.040 A 
ATOM     20  C   UNL     1       0.364  -4.401   2.760  0.00  0.00    +0.058 A 
BRANCH  15  21
ATOM     21  O   UNL     1      -1.582  -4.426   1.397  0.00  0.00    -0.492 OA
BRANCH  21  23
ATOM     22  C   UNL     1      -3.586  -4.610   0.060  0.00  0.00    +0.048 C 
ATOM     23  C   UNL     1      -2.430  -3.709   0.498  0.00  0.00    +0.225 C 
ENDBRANCH  21  23
ENDBRANCH  15  21
ENDBRANCH   1  19
BRANCH   5  24
ATOM     24  C   UNL     1       2.106  -9.172   3.066  0.00  0.00    +0.218 C 
ATOM     25  O   UNL     1       1.230  -9.429   3.864  0.00  0.00    -0.275 OA
ATOM     26  N   UNL     1       2.466 -10.085   2.142  0.00  0.00    -0.311 N 
ATOM     27  H   UNL     1       3.167  -9.879   1.504  0.00  0.00    +0.149 HD
BRANCH  26  28
ATOM     28  C   UNL     1       1.798 -11.388   2.102  0.00  0.00    +0.141 C 
BRANCH  28  29
ATOM     29  C   UNL     1       2.381 -12.217   0.986  0.00  0.00    -0.009 A 
ATOM     30  C   UNL     1       1.718 -12.313  -0.222  0.00  0.00    +0.007 A 
ATOM     31  C   UNL     1       2.252 -13.074  -1.246  0.00  0.00    +0.000 A 
ATOM     32  C   UNL     1       3.451 -13.740  -1.065  0.00  0.00    +0.002 A 
ATOM     33  C   UNL     1       4.119 -13.647   0.140  0.00  0.00    +0.023 A 
ATOM     34  C   UNL     1       3.588 -12.880   1.169  0.00  0.00    +0.035 A 
BRANCH  34  35
ATOM     35  N   UNL     1       4.263 -12.779   2.388  0.00  0.00    -0.325 N 
ATOM     36  C   UNL     1       4.013 -13.741   3.474  0.00  0.00    +0.133 C 
ATOM     37  C   UNL     1       5.363 -14.278   3.963  0.00  0.00    +0.178 C 
ATOM     38  O   UNL     1       6.223 -13.179   4.274  0.00  0.00    -0.377 OA
ATOM     39  C   UNL     1       6.535 -12.346   3.155  0.00  0.00    +0.178 C 
ATOM     40  C   UNL     1       5.250 -11.713   2.621  0.00  0.00    +0.133 C 
ENDBRANCH  34  35
ENDBRANCH  28  29
ENDBRANCH  26  28
ENDBRANCH   5  24
TORSDOF 7
