REMARK  Name = ZINC46620520
REMARK  7 active torsions:
REMARK  status: ('A' for Active; 'I' for Inactive)
REMARK    1  A    between atoms: C_1  and  C_2
REMARK    2  A    between atoms: C_5  and  C_8
REMARK    3  A    between atoms: N_13  and  C_14
REMARK    4  A    between atoms: C_14  and  C_15
REMARK    5  A    between atoms: N_17  and  C_18
REMARK    6  A    between atoms: C_18  and  C_20
REMARK    7  A    between atoms: C_18  and  C_21
REMARK                            x       y       z     vdW  Elec       q    Type
REMARK                         _______ _______ _______ _____ _____    ______ ____
ROOT
ATOM      1  C   UNL     1       0.006  -4.253  -0.001  0.00  0.00    +0.165 A 
ATOM      2  N   UNL     1      -0.323  -5.032  -1.006  0.00  0.00    -0.128 NA
ATOM      3  N   UNL     1      -0.118  -6.261  -0.694  0.00  0.00    -0.121 NA
ATOM      4  C   UNL     1       0.353  -6.344   0.531  0.00  0.00    +0.203 A 
ATOM      5  S   UNL     1       0.783  -7.822   1.388  0.00  0.00    -0.009 SA
ATOM      6  N   UNL     1       0.454  -5.069   1.012  0.00  0.00    -0.293 N 
ENDROOT
BRANCH   1  11
ATOM      7  C   UNL     1      -0.341   1.489   0.132  0.00  0.00    +0.044 C 
ATOM      8  C   UNL     1      -0.250  -0.015   0.097  0.00  0.00    -0.050 A 
ATOM      9  C   UNL     1      -0.231  -0.676  -1.118  0.00  0.00    +0.004 A 
ATOM     10  C   UNL     1      -0.147  -2.052  -1.157  0.00  0.00    +0.012 A 
ATOM     11  C   UNL     1      -0.083  -2.778   0.033  0.00  0.00    +0.019 A 
ATOM     12  C   UNL     1      -0.103  -2.105   1.256  0.00  0.00    +0.012 A 
ATOM     13  C   UNL     1      -0.180  -0.728   1.280  0.00  0.00    +0.004 A 
ENDBRANCH   1  11
BRANCH   6  14
ATOM     14  C   UNL     1       0.935  -4.658   2.333  0.00  0.00    +0.221 C 
BRANCH  14  15
ATOM     15  C   UNL     1      -0.214  -4.656   3.308  0.00  0.00    +0.233 C 
ATOM     16  O   UNL     1      -1.326  -4.969   2.936  0.00  0.00    -0.274 OA
ATOM     17  N   UNL     1      -0.007  -4.308   4.593  0.00  0.00    -0.307 N 
ATOM     18  H   UNL     1       0.882  -4.058   4.891  0.00  0.00    +0.149 HD
BRANCH  17  19
ATOM     19  C   UNL     1      -1.124  -4.307   5.542  0.00  0.00    +0.107 C 
ATOM     20  C   UNL     1      -1.314  -5.715   6.107  0.00  0.00    +0.033 C 
BRANCH  19  21
ATOM     21  C   UNL     1      -0.827  -3.349   6.667  0.00  0.00    +0.011 A 
ATOM     22  C   UNL     1      -1.663  -2.491   7.300  0.00  0.00    +0.014 A 
ATOM     23  C   UNL     1      -1.165  -1.699   8.318  0.00  0.00    +0.028 A 
ATOM     24  C   UNL     1       0.146  -1.804   8.652  0.00  0.00    +0.078 A 
ATOM     25  S   UNL     1       0.716  -3.058   7.516  0.00  0.00    -0.080 S 
ATOM     26 CL   UNL     1       1.036  -0.946   9.871  0.00  0.00    -0.076 Cl
ENDBRANCH  19  21
ENDBRANCH  17  19
ENDBRANCH  14  15
ENDBRANCH   6  14
TORSDOF 5
