REMARK  Name = ZINC43746783
REMARK  7 active torsions:
REMARK  status: ('A' for Active; 'I' for Inactive)
REMARK    1  A    between atoms: C_1  and  C_2
REMARK    2  A    between atoms: C_6  and  O_35
REMARK    3  A    between atoms: C_7  and  O_34
REMARK    4  A    between atoms: N_12  and  C_13
REMARK    5  A    between atoms: C_13  and  C_14
REMARK    6  A    between atoms: C_26  and  C_33
REMARK    7  A    between atoms: O_35  and  C_36
REMARK                            x       y       z     vdW  Elec       q    Type
REMARK                         _______ _______ _______ _____ _____    ______ ____
ROOT
ATOM      1  C   UNL     1      -0.073  -0.130   2.395  0.00  0.00    -0.063 C 
ENDROOT
BRANCH   1   2
ATOM      2  C   UNL     1       0.716  -0.520   3.646  0.00  0.00    +0.088 C 
ATOM      3  C   UNL     1      -0.100  -0.221   4.919  0.00  0.00    +0.042 C 
ATOM      4  C   UNL     1      -0.807  -1.440   5.458  0.00  0.00    +0.016 C 
ATOM      5  C   UNL     1       0.188  -2.511   5.901  0.00  0.00    +0.021 C 
ATOM      6  C   UNL     1      -0.554  -3.698   6.471  0.00  0.00    -0.073 C 
ATOM      7  C   UNL     1      -1.854  -3.803   6.347  0.00  0.00    +0.008 C 
ATOM      8  C   UNL     1       0.247  -4.761   7.191  0.00  0.00    +0.030 C 
ATOM      9  C   UNL     1       1.130  -4.084   8.243  0.00  0.00    +0.005 C 
ATOM     10  C   UNL     1       1.974  -2.993   7.580  0.00  0.00    +0.007 C 
ATOM     11  C   UNL     1       1.072  -1.902   7.000  0.00  0.00    -0.022 C 
ATOM     12  C   UNL     1       1.898  -0.783   6.373  0.00  0.00    +0.052 C 
ATOM     13  C   UNL     1       0.993   0.324   5.860  0.00  0.00    +0.181 C 
ATOM     14  O   UNL     1       1.807   1.095   4.932  0.00  0.00    -0.461 OA
ATOM     15  C   UNL     1       1.945   0.360   3.803  0.00  0.00    +0.309 C 
ATOM     16  O   UNL     1       2.886   0.398   3.045  0.00  0.00    -0.251 OA
ATOM     17  C   UNL     1       0.190  -1.339   8.116  0.00  0.00    +0.012 C 
ENDBRANCH   1   2
BRANCH   1  28
ATOM     18  C   UNL     1      -0.019   1.526   0.010  0.00  0.00    -0.008 C 
ATOM     19  C   UNL     1       0.002  -0.004   0.002  0.00  0.00    -0.040 C 
ATOM     20  C   UNL     1       0.696  -0.484  -1.245  0.00  0.00    -0.054 A 
ATOM     21  C   UNL     1       0.435   0.170  -2.441  0.00  0.00    +0.051 A 
ATOM     22  C   UNL     1       1.049  -0.239  -3.611  0.00  0.00    +0.161 A 
ATOM     23  C   UNL     1       1.933  -1.315  -3.587  0.00  0.00    +0.159 A 
ATOM     24  C   UNL     1       2.190  -1.964  -2.393  0.00  0.00    +0.053 A 
ATOM     25  C   UNL     1       1.573  -1.548  -1.223  0.00  0.00    -0.044 A 
ATOM     26  C   UNL     1       1.889  -2.279   0.057  0.00  0.00    +0.017 C 
ATOM     27  C   UNL     1       0.838  -1.946   1.117  0.00  0.00    -0.073 C 
ATOM     28  N   UNL     1       0.701  -0.484   1.198  0.00  0.00    +0.385 N 
ATOM     29  H   UNL     1       1.615  -0.061   1.247  0.00  0.00    -0.081 HD
BRANCH  23  30
ATOM     30  O   UNL     1       2.540  -1.725  -4.733  0.00  0.00    -0.503 OA
ATOM     31  H   UNL     1       3.385  -1.290  -4.908  0.00  0.00    +0.292 HD
ENDBRANCH  23  30
BRANCH  22  32
ATOM     32  O   UNL     1       0.790   0.406  -4.780  0.00  0.00    -0.491 OA
ATOM     33  C   UNL     1      -0.127   1.500  -4.727  0.00  0.00    +0.277 C 
ENDBRANCH  22  32
ENDBRANCH   1  28
TORSDOF 4
