REMARK  Name = ZINC40404633
REMARK  15 active torsions:
REMARK  status: ('A' for Active; 'I' for Inactive)
REMARK    1  A    between atoms: C_1  and  C_2
REMARK    2  A    between atoms: C_2  and  C_3
REMARK    3  A    between atoms: C_2  and  N_4
REMARK    4  A    between atoms: N_4  and  C_5
REMARK    5  A    between atoms: N_4  and  C_27
REMARK    6  A    between atoms: C_5  and  C_6
REMARK    7  A    between atoms: C_12  and  C_17
REMARK    8  A    between atoms: C_20  and  O_25
REMARK    9  A    between atoms: C_21  and  O_23
REMARK   10  A    between atoms: O_23  and  C_24
REMARK   11  A    between atoms: O_25  and  C_26
REMARK   12  A    between atoms: C_27  and  C_28
REMARK   13  A    between atoms: C_28  and  C_30
REMARK   14  A    between atoms: C_28  and  O_37
REMARK   15  A    between atoms: C_30  and  C_31
REMARK                            x       y       z     vdW  Elec       q    Type
REMARK                         _______ _______ _______ _____ _____    ______ ____
ROOT
ATOM      1  C   UNL     1      -0.442  -1.965   1.384  0.00  0.00    +0.094 A 
ATOM      2  N   UNL     1      -0.130  -3.218   1.806  0.00  0.00    -0.312 N 
ATOM      3  H   UNL     1      -0.405  -3.981   1.274  0.00  0.00    +0.170 HD
ATOM      4  C   UNL     1       0.554  -3.421   2.947  0.00  0.00    +0.260 A 
ATOM      5  O   UNL     1       0.827  -4.552   3.311  0.00  0.00    -0.267 OA
ATOM      6  C   UNL     1       0.956  -2.290   3.726  0.00  0.00    +0.080 A 
ATOM      7  C   UNL     1       1.696  -2.250   4.981  0.00  0.00    +0.004 A 
ATOM      8  C   UNL     1       1.965  -1.046   5.541  0.00  0.00    +0.056 A 
ATOM      9  S   UNL     1       1.233   0.112   4.401  0.00  0.00    -0.076 S 
ATOM     10  C   UNL     1       0.589  -1.035   3.211  0.00  0.00    +0.116 A 
ATOM     11  N   UNL     1      -0.085  -0.913   2.071  0.00  0.00    -0.229 NA
ENDROOT
BRANCH   7  12
ATOM     12  C   UNL     1       2.144  -3.503   5.634  0.00  0.00    -0.013 A 
ATOM     13  C   UNL     1       1.244  -4.549   5.831  0.00  0.00    +0.012 A 
ATOM     14  C   UNL     1       1.662  -5.715   6.439  0.00  0.00    +0.050 A 
ATOM     15  C   UNL     1       2.978  -5.851   6.854  0.00  0.00    +0.162 A 
ATOM     16  C   UNL     1       3.882  -4.810   6.659  0.00  0.00    +0.162 A 
ATOM     17  C   UNL     1       3.469  -3.641   6.046  0.00  0.00    +0.058 A 
BRANCH  16  18
ATOM     18  O   UNL     1       5.173  -4.945   7.067  0.00  0.00    -0.491 OA
ATOM     19  C   UNL     1       6.045  -3.838   6.835  0.00  0.00    +0.277 C 
ENDBRANCH  16  18
BRANCH  15  20
ATOM     20  O   UNL     1       3.386  -7.002   7.453  0.00  0.00    -0.491 OA
ATOM     21  C   UNL     1       2.406  -8.028   7.622  0.00  0.00    +0.277 C 
ENDBRANCH  15  20
ENDBRANCH   7  12
BRANCH   1  22
ATOM     22  C   UNL     1      -1.209  -1.786   0.100  0.00  0.00    -0.003 C 
BRANCH  22  23
ATOM     23  N   UNL     1      -1.278  -0.357  -0.234  0.00  0.00    +0.388 N 
ATOM     24  H   UNL     1      -1.375   0.182   0.613  0.00  0.00    -0.081 HD
BRANCH  23  26
ATOM     25  C   UNL     1       1.161  -0.252  -0.041  0.00  0.00    -0.014 C 
ATOM     26  C   UNL     1      -0.048   0.043  -0.931  0.00  0.00    -0.074 C 
ATOM     27  C   UNL     1       0.076  -0.743  -2.238  0.00  0.00    -0.014 C 
ENDBRANCH  23  26
BRANCH  23  28
ATOM     28  C   UNL     1      -2.436  -0.113  -1.105  0.00  0.00    -0.046 C 
BRANCH  28  29
ATOM     29  C   UNL     1      -2.628   1.394  -1.288  0.00  0.00    +0.102 C 
BRANCH  29  30
ATOM     30  O   UNL     1      -1.533   1.927  -2.036  0.00  0.00    -0.393 OA
ATOM     31  H   UNL     1      -1.489   1.609  -2.948  0.00  0.00    +0.210 HD
ENDBRANCH  29  30
BRANCH  29  32
ATOM     32  C   UNL     1      -3.935   1.654  -2.040  0.00  0.00    +0.064 C 
BRANCH  32  33
ATOM     33  C   UNL     1      -4.186   3.138  -2.112  0.00  0.00    -0.045 A 
ATOM     34  C   UNL     1      -4.901   3.768  -1.110  0.00  0.00    +0.004 A 
ATOM     35  C   UNL     1      -5.131   5.129  -1.177  0.00  0.00    +0.000 A 
ATOM     36  C   UNL     1      -4.646   5.861  -2.244  0.00  0.00    +0.000 A 
ATOM     37  C   UNL     1      -3.931   5.231  -3.246  0.00  0.00    +0.000 A 
ATOM     38  C   UNL     1      -3.697   3.871  -3.177  0.00  0.00    +0.004 A 
ENDBRANCH  32  33
ENDBRANCH  29  32
ENDBRANCH  28  29
ENDBRANCH  23  28
ENDBRANCH  22  23
ENDBRANCH   1  22
TORSDOF 11
