REMARK  Name = ZINC04168404
REMARK  10 active torsions:
REMARK  status: ('A' for Active; 'I' for Inactive)
REMARK    1  A    between atoms: C_1  and  C_2
REMARK    2  A    between atoms: C_2  and  C_29
REMARK    3  A    between atoms: C_6  and  C_7
REMARK    4  A    between atoms: C_6  and  C_8
REMARK    5  A    between atoms: C_9  and  C_27
REMARK    6  A    between atoms: C_9  and  O_28
REMARK    7  A    between atoms: N_10  and  C_14
REMARK    8  A    between atoms: C_14  and  C_15
REMARK    9  A    between atoms: C_15  and  O_16
REMARK   10  A    between atoms: O_16  and  C_17
REMARK                            x       y       z     vdW  Elec       q    Type
REMARK                         _______ _______ _______ _____ _____    ______ ____
ROOT
ATOM      1  C   UNL     1      -4.168  -0.335   1.726  0.00  0.00    -0.010 C 
ATOM      2  C   UNL     1      -3.854   0.124   0.297  0.00  0.00    -0.070 C 
ATOM      3  C   UNL     1      -2.409   0.605   0.210  0.00  0.00    +0.040 C 
ATOM      4  C   UNL     1      -1.428  -0.558   0.119  0.00  0.00    +0.158 C 
ATOM      5  C   UNL     1      -1.784  -1.452  -1.056  0.00  0.00    +0.040 C 
ATOM      6  C   UNL     1      -3.225  -1.956  -0.960  0.00  0.00    -0.070 C 
ATOM      7  C   UNL     1      -3.316  -3.095   0.062  0.00  0.00    -0.010 C 
ATOM      8  C   UNL     1      -3.590  -2.557  -2.338  0.00  0.00    -0.010 C 
ATOM      9  C   UNL     1       0.002  -0.004   0.002  0.00  0.00    +0.175 C 
ATOM     10  N   UNL     1       0.674  -0.500   1.217  0.00  0.00    -0.233 N 
ATOM     11  C   UNL     1      -0.198  -1.232   1.924  0.00  0.00    +0.406 C 
ATOM     12  O   UNL     1       0.086  -1.771   2.975  0.00  0.00    -0.226 OA
ATOM     13  O   UNL     1      -1.408  -1.311   1.362  0.00  0.00    -0.439 OA
ATOM     14  C   UNL     1       0.730  -0.510  -1.242  0.00  0.00    +0.068 C 
ATOM     15  C   UNL     1      -4.762   1.343   0.008  0.00  0.00    -0.010 C 
ATOM     16  N   UNL     1      -4.243  -0.905  -0.703  0.00  0.00    +0.386 N 
ATOM     17  H   UNL     1      -4.437  -0.427  -1.591  0.00  0.00    -0.084 HD
ATOM     18  H   UNL     1      -5.098  -1.365  -0.369  0.00  0.00    -0.084 HD
ENDROOT
BRANCH   9  19
ATOM     19  O   UNL     1      -0.017   1.429   0.010  0.00  0.00    -0.368 OA
ATOM     20  H   UNL     1       0.861   1.834   0.004  0.00  0.00    +0.212 HD
ENDBRANCH   9  19
BRANCH  10  21
ATOM     21  C   UNL     1       2.066  -0.234   1.587  0.00  0.00    +0.142 C 
BRANCH  21  22
ATOM     22  C   UNL     1       2.135   1.042   2.429  0.00  0.00    +0.179 C 
BRANCH  22  23
ATOM     23  O   UNL     1       1.448   0.836   3.665  0.00  0.00    -0.372 OA
BRANCH  23  24
ATOM     24  C   UNL     1       1.453   1.973   4.529  0.00  0.00    +0.070 C 
ATOM     25  C   UNL     1       0.775   3.151   3.827  0.00  0.00    +0.038 C 
ATOM     26  C   UNL     1       0.780   4.369   4.753  0.00  0.00    -0.008 C 
ATOM     27  C   UNL     1       0.021   4.035   6.039  0.00  0.00    +0.007 C 
ATOM     28  C   UNL     1       0.699   2.858   6.741  0.00  0.00    -0.008 C 
ATOM     29  C   UNL     1       0.694   1.640   5.815  0.00  0.00    +0.038 C 
ATOM     30  C   UNL     1       2.143   3.231   7.084  0.00  0.00    +0.007 C 
ATOM     31  C   UNL     1       2.902   3.565   5.798  0.00  0.00    -0.008 C 
ATOM     32  C   UNL     1       2.224   4.742   5.096  0.00  0.00    +0.007 C 
ATOM     33  C   UNL     1       2.897   2.347   4.872  0.00  0.00    +0.038 C 
ENDBRANCH  23  24
ENDBRANCH  22  23
ENDBRANCH  21  22
ENDBRANCH  10  21
TORSDOF 5
