REMARK  Name = ZINC11502568
REMARK  12 active torsions:
REMARK  status: ('A' for Active; 'I' for Inactive)
REMARK    1  A    between atoms: C_1  and  C_2
REMARK    2  A    between atoms: C_2  and  C_3
REMARK    3  A    between atoms: C_3  and  C_5
REMARK    4  A    between atoms: C_3  and  N_6
REMARK    5  A    between atoms: C_15  and  S_16
REMARK    6  A    between atoms: S_16  and  C_17
REMARK    7  A    between atoms: C_17  and  C_19
REMARK    8  A    between atoms: C_17  and  C_20
REMARK    9  A    between atoms: N_22  and  C_23
REMARK   10  A    between atoms: C_24  and  C_30
REMARK   11  A    between atoms: N_26  and  C_29
REMARK   12  A    between atoms: C_27  and  C_28
REMARK                            x       y       z     vdW  Elec       q    Type
REMARK                         _______ _______ _______ _____ _____    ______ ____
ROOT
ATOM      1  N   UNL     1      -4.720   1.612   0.112  0.00  0.00    -0.284 N 
ATOM      2  C   UNL     1      -4.472   2.935   0.109  0.00  0.00    +0.263 A 
ATOM      3  O   UNL     1      -4.712   3.611   1.095  0.00  0.00    -0.267 OA
ATOM      4  C   UNL     1      -3.918   3.535  -1.065  0.00  0.00    +0.076 A 
ATOM      5  C   UNL     1      -3.566   4.944  -1.280  0.00  0.00    -0.023 A 
ATOM      6  C   UNL     1      -3.067   5.266  -2.491  0.00  0.00    -0.004 A 
ATOM      7  S   UNL     1      -3.028   3.741  -3.397  0.00  0.00    -0.073 S 
ATOM      8  C   UNL     1      -3.688   2.670  -2.146  0.00  0.00    +0.117 A 
ATOM      9  N   UNL     1      -3.958   1.371  -2.081  0.00  0.00    -0.216 NA
ATOM     10  C   UNL     1      -4.463   0.841  -0.985  0.00  0.00    +0.174 A 
ATOM     11  C   UNL     1      -2.649   6.617  -2.980  0.00  0.00    +0.043 C 
ATOM     12  C   UNL     1      -1.735   7.275  -1.938  0.00  0.00    +0.005 C 
ATOM     13  C   UNL     1      -2.606   8.062  -0.965  0.00  0.00    +0.001 C 
ATOM     14  C   UNL     1      -3.951   7.363  -0.784  0.00  0.00    +0.005 C 
ATOM     15  C   UNL     1      -3.755   5.980  -0.176  0.00  0.00    +0.037 C 
ENDROOT
BRANCH   1  16
ATOM     16  C   UNL     1      -5.282   0.988   1.312  0.00  0.00    +0.089 C 
ATOM     17  C   UNL     1      -6.631   1.631   1.637  0.00  0.00    +0.031 C 
BRANCH  16  19
ATOM     18  C   UNL     1      -3.018   0.442   2.217  0.00  0.00    +0.006 C 
ATOM     19  C   UNL     1      -4.324   1.190   2.488  0.00  0.00    +0.021 C 
ENDBRANCH  16  19
ENDBRANCH   1  16
BRANCH  10  20
ATOM     20  S   UNL     1      -4.810  -0.885  -0.934  0.00  0.00    -0.075 S 
BRANCH  20  21
ATOM     21  C   UNL     1      -4.286  -1.360  -2.601  0.00  0.00    +0.137 C 
ATOM     22  C   UNL     1      -5.194  -0.685  -3.632  0.00  0.00    +0.029 C 
BRANCH  21  23
ATOM     23  C   UNL     1      -4.382  -2.857  -2.750  0.00  0.00    +0.230 C 
ATOM     24  O   UNL     1      -5.152  -3.487  -2.057  0.00  0.00    -0.274 OA
ATOM     25  N   UNL     1      -3.612  -3.494  -3.654  0.00  0.00    -0.282 N 
ATOM     26  H   UNL     1      -3.049  -2.984  -4.257  0.00  0.00    +0.155 HD
BRANCH  25  27
ATOM     27  C   UNL     1      -3.625  -4.900  -3.723  0.00  0.00    +0.077 A 
ATOM     28  C   UNL     1      -3.288  -5.781  -2.686  0.00  0.00    +0.081 A 
ATOM     29  N   UNL     1      -3.422  -7.006  -3.126  0.00  0.00    -0.175 NA
ATOM     30  N   UNL     1      -3.849  -6.952  -4.459  0.00  0.00    -0.270 N 
ATOM     31  C   UNL     1      -3.972  -5.644  -4.804  0.00  0.00    +0.057 A 
ATOM     32  C   UNL     1      -4.412  -5.115  -6.145  0.00  0.00    +0.067 C 
ATOM     33  C   UNL     1      -4.119  -8.102  -5.325  0.00  0.00    +0.172 C 
ATOM     34  C   UNL     1      -2.847  -5.385  -1.300  0.00  0.00    +0.069 C 
ENDBRANCH  25  27
ENDBRANCH  21  23
ENDBRANCH  20  21
ENDBRANCH  10  20
TORSDOF 6
