REMARK  Name = ZINC13500503
REMARK  12 active torsions:
REMARK  status: ('A' for Active; 'I' for Inactive)
REMARK    1  A    between atoms: C_1  and  C_2
REMARK    2  A    between atoms: C_12  and  C_14
REMARK    3  A    between atoms: C_14  and  N_15
REMARK    4  A    between atoms: N_15  and  C_16
REMARK    5  A    between atoms: N_15  and  C_24
REMARK    6  A    between atoms: C_16  and  C_17
REMARK    7  A    between atoms: C_17  and  C_18
REMARK    8  A    between atoms: C_24  and  C_26
REMARK    9  A    between atoms: C_24  and  C_37
REMARK   10  A    between atoms: N_30  and  C_31
REMARK   11  A    between atoms: C_37  and  C_38
REMARK   12  A    between atoms: C_37  and  C_39
REMARK                            x       y       z     vdW  Elec       q    Type
REMARK                         _______ _______ _______ _____ _____    ______ ____
ROOT
ATOM      1  N   UNL     1       1.616  -3.038   5.249  0.00  0.00    -0.288 NA
ENDROOT
BRANCH   1   2
ATOM      2  C   UNL     1       0.307  -2.955   4.587  0.00  0.00    +0.125 C 
BRANCH   2  14
ATOM      3  C   UNL     1       1.019   0.684  -0.840  0.00  0.00    +0.046 C 
ATOM      4  C   UNL     1       0.971  -0.810  -0.642  0.00  0.00    -0.026 A 
ATOM      5  C   UNL     1       1.082  -1.655  -1.725  0.00  0.00    +0.005 A 
ATOM      6  C   UNL     1       1.046  -3.032  -1.556  0.00  0.00    +0.001 A 
ATOM      7  C   UNL     1       0.887  -3.575  -0.312  0.00  0.00    +0.010 A 
ATOM      8  C   UNL     1       0.766  -2.737   0.801  0.00  0.00    -0.001 A 
ATOM      9  C   UNL     1       0.809  -1.340   0.633  0.00  0.00    +0.052 A 
ATOM     10  N   UNL     1       0.691  -0.518   1.734  0.00  0.00    -0.322 N 
ATOM     11  H   UNL     1       0.724   0.575   1.610  0.00  0.00    +0.169 HD
ATOM     12  C   UNL     1       0.533  -1.031   2.967  0.00  0.00    +0.254 A 
ATOM     13  O   UNL     1       0.432  -0.274   3.917  0.00  0.00    -0.268 OA
ATOM     14  C   UNL     1       0.484  -2.424   3.188  0.00  0.00    +0.031 A 
ATOM     15  C   UNL     1       0.595  -3.285   2.147  0.00  0.00    +0.020 A 
ENDBRANCH   2  14
ENDBRANCH   1   2
BRANCH   1  16
ATOM     16  C   UNL     1       2.206  -1.703   5.417  0.00  0.00    +0.090 C 
BRANCH  16  17
ATOM     17  C   UNL     1       3.697  -1.840   5.729  0.00  0.00    +0.050 C 
BRANCH  17  18
ATOM     18  C   UNL     1       4.332  -0.474   5.758  0.00  0.00    -0.046 A 
ATOM     19  C   UNL     1       4.866   0.065   4.602  0.00  0.00    +0.003 A 
ATOM     20  C   UNL     1       5.444   1.320   4.627  0.00  0.00    +0.000 A 
ATOM     21  C   UNL     1       5.498   2.033   5.811  0.00  0.00    +0.000 A 
ATOM     22  C   UNL     1       4.970   1.491   6.968  0.00  0.00    +0.000 A 
ATOM     23  C   UNL     1       4.387   0.238   6.941  0.00  0.00    +0.003 A 
ENDBRANCH  17  18
ENDBRANCH  16  17
ENDBRANCH   1  16
BRANCH   1  24
ATOM     24  C   UNL     1       1.510  -3.732   6.539  0.00  0.00    +0.129 C 
BRANCH  24  25
ATOM     25  C   UNL     1       2.886  -4.125   7.013  0.00  0.00    +0.169 A 
ATOM     26  N   UNL     1       3.848  -4.636   6.284  0.00  0.00    -0.112 NA
ATOM     27  N   UNL     1       4.866  -4.831   7.049  0.00  0.00    -0.023 NA
ATOM     28  N   UNL     1       4.576  -4.465   8.248  0.00  0.00    -0.044 NA
ATOM     29  N   UNL     1       3.364  -4.023   8.267  0.00  0.00    -0.225 N 
BRANCH  29  30
ATOM     30  C   UNL     1       2.643  -3.508   9.434  0.00  0.00    +0.111 C 
ATOM     31  C   UNL     1       3.388  -2.297   9.999  0.00  0.00    +0.027 C 
ATOM     32  C   UNL     1       2.635  -1.759  11.218  0.00  0.00    +0.002 C 
ATOM     33  C   UNL     1       2.549  -2.850  12.287  0.00  0.00    +0.000 C 
ATOM     34  C   UNL     1       1.804  -4.061  11.721  0.00  0.00    +0.002 C 
ATOM     35  C   UNL     1       2.557  -4.599  10.503  0.00  0.00    +0.027 C 
ENDBRANCH  29  30
ENDBRANCH  24  25
BRANCH  24  36
ATOM     36  C   UNL     1       0.651  -4.987   6.374  0.00  0.00    +0.008 C 
ATOM     37  C   UNL     1       1.268  -5.892   5.306  0.00  0.00    +0.009 C 
ATOM     38  C   UNL     1       0.586  -5.740   7.705  0.00  0.00    +0.009 C 
ENDBRANCH  24  36
ENDBRANCH   1  24
TORSDOF 9
