REMARK  Name = ZINC02758680
REMARK  15 active torsions:
REMARK  status: ('A' for Active; 'I' for Inactive)
REMARK    1  A    between atoms: C_1  and  C_2
REMARK    2  A    between atoms: C_2  and  O_3
REMARK    3  A    between atoms: O_3  and  C_4
REMARK    4  A    between atoms: C_4  and  C_6
REMARK    5  A    between atoms: C_7  and  C_36
REMARK    6  A    between atoms: C_8  and  C_35
REMARK    7  A    between atoms: C_10  and  N_11
REMARK    8  A    between atoms: C_12  and  C_14
REMARK    9  A    between atoms: C_14  and  S_15
REMARK   10  A    between atoms: S_15  and  C_16
REMARK   11  A    between atoms: C_19  and  C_28
REMARK   12  A    between atoms: N_20  and  C_21
REMARK   13  A    between atoms: C_24  and  C_27
REMARK   14  A    between atoms: N_30  and  C_34
REMARK   15  A    between atoms: C_32  and  C_33
REMARK                            x       y       z     vdW  Elec       q    Type
REMARK                         _______ _______ _______ _____ _____    ______ ____
ROOT
ATOM      1  C   UNL     1       3.255   1.721   3.844  0.00  0.00    +0.197 A 
ATOM      2  N   UNL     1       3.408   1.323   2.602  0.00  0.00    -0.122 NA
ATOM      3  N   UNL     1       2.275   1.321   1.995  0.00  0.00    -0.128 NA
ATOM      4  C   UNL     1       1.327   1.717   2.811  0.00  0.00    +0.173 A 
ATOM      5  N   UNL     1       1.924   1.992   4.021  0.00  0.00    -0.270 N 
ENDROOT
BRANCH   5   6
ATOM      6  C   UNL     1       1.301   2.449   5.190  0.00  0.00    +0.051 A 
ATOM      7  C   UNL     1       0.713   3.707   5.218  0.00  0.00    +0.026 A 
ATOM      8  C   UNL     1       0.094   4.153   6.370  0.00  0.00    +0.005 A 
ATOM      9  C   UNL     1       0.070   3.353   7.498  0.00  0.00    -0.050 A 
ATOM     10  C   UNL     1       0.660   2.102   7.475  0.00  0.00    +0.005 A 
ATOM     11  C   UNL     1       1.275   1.649   6.324  0.00  0.00    +0.026 A 
ATOM     12  C   UNL     1      -0.601   3.845   8.754  0.00  0.00    +0.044 C 
ENDBRANCH   5   6
BRANCH   4  13
ATOM     13  C   UNL     1      -0.112   1.849   2.491  0.00  0.00    +0.060 A 
ATOM     14  C   UNL     1      -1.095   2.263   3.344  0.00  0.00    +0.119 A 
ATOM     15  N   UNL     1      -2.259   2.244   2.664  0.00  0.00    -0.274 N 
ATOM     16  N   UNL     1      -1.997   1.815   1.357  0.00  0.00    -0.176 NA
ATOM     17  C   UNL     1      -0.718   1.572   1.248  0.00  0.00    +0.071 A 
ATOM     18  C   UNL     1      -0.013   1.086   0.008  0.00  0.00    +0.068 C 
ATOM     19  C   UNL     1      -3.572   2.615   3.198  0.00  0.00    +0.172 C 
ENDBRANCH   4  13
BRANCH   1  20
ATOM     20  S   UNL     1       4.526   1.882   5.053  0.00  0.00    -0.076 S 
BRANCH  20  21
ATOM     21  C   UNL     1       5.958   1.361   4.077  0.00  0.00    +0.173 C 
BRANCH  21  23
ATOM     22  N   UNL     1       8.392   1.075   4.412  0.00  0.00    -0.279 N 
ATOM     23  C   UNL     1       7.197   1.421   4.931  0.00  0.00    +0.228 C 
ATOM     24  O   UNL     1       7.120   1.780   6.087  0.00  0.00    -0.275 OA
ATOM     25  H   UNL     1       8.453   0.787   3.487  0.00  0.00    +0.155 HD
BRANCH  22  30
ATOM     26  C   UNL     1      10.841   0.816   4.846  0.00  0.00    +0.091 A 
ATOM     27  C   UNL     1      11.843   0.966   5.874  0.00  0.00    -0.025 A 
ATOM     28  C   UNL     1      11.427   1.394   7.079  0.00  0.00    -0.008 A 
ATOM     29  S   UNL     1       9.674   1.613   6.854  0.00  0.00    -0.078 S 
ATOM     30  C   UNL     1       9.532   1.130   5.198  0.00  0.00    +0.086 A 
ATOM     31  C   UNL     1      12.248   1.636   8.319  0.00  0.00    +0.052 C 
ATOM     32  C   UNL     1      13.293   0.655   5.609  0.00  0.00    +0.045 C 
BRANCH  26  33
ATOM     33  C   UNL     1      11.184   0.356   3.498  0.00  0.00    +0.342 C 
ATOM     34  O   UNL     1      11.486   1.162   2.639  0.00  0.00    -0.245 OA
BRANCH  33  35
ATOM     35  O   UNL     1      11.167  -0.962   3.211  0.00  0.00    -0.461 OA
BRANCH  35  37
ATOM     36  C   UNL     1      11.443  -2.867   1.720  0.00  0.00    +0.048 C 
ATOM     37  C   UNL     1      11.519  -1.345   1.855  0.00  0.00    +0.229 C 
ENDBRANCH  35  37
ENDBRANCH  33  35
ENDBRANCH  26  33
ENDBRANCH  22  30
ENDBRANCH  21  23
ENDBRANCH  20  21
ENDBRANCH   1  20
TORSDOF 9
