REMARK  Name = ZINC39922724
REMARK  5 active torsions:
REMARK  status: ('A' for Active; 'I' for Inactive)
REMARK    1  A    between atoms: C_4  and  O_30
REMARK    2  A    between atoms: C_5  and  C_7
REMARK    3  A    between atoms: N_8  and  N_9
REMARK    4  A    between atoms: C_10  and  C_12
REMARK    5  A    between atoms: C_15  and  C_18
REMARK                            x       y       z     vdW  Elec       q    Type
REMARK                         _______ _______ _______ _____ _____    ______ ____
ROOT
ATOM      1  C   UNL     1       3.624  -6.336  -0.076  0.00  0.00    +0.240 C 
ATOM      2  C   UNL     1       3.434  -6.858  -1.489  0.00  0.00    +0.041 C 
ATOM      3  C   UNL     1       4.566  -7.550  -1.732  0.00  0.00    +0.092 C 
ATOM      4  N   UNL     1       5.391  -7.502  -0.653  0.00  0.00    -0.153 NA
ATOM      5  N   UNL     1       4.948  -6.856   0.303  0.00  0.00    -0.170 NA
ENDROOT
BRANCH   3   6
ATOM      6  C   UNL     1       4.867  -8.261  -2.996  0.00  0.00    +0.010 A 
ATOM      7  C   UNL     1       3.913  -8.362  -3.998  0.00  0.00    +0.011 A 
ATOM      8  C   UNL     1       4.168  -9.025  -5.197  0.00  0.00    +0.005 A 
ATOM      9  C   UNL     1       5.382  -9.603  -5.424  0.00  0.00    -0.039 A 
ATOM     10  C   UNL     1       6.352  -9.513  -4.431  0.00  0.00    -0.011 A 
ATOM     11  C   UNL     1       6.136  -8.849  -3.211  0.00  0.00    -0.008 A 
ATOM     12  C   UNL     1       7.187  -8.815  -2.285  0.00  0.00    +0.009 A 
ATOM     13  C   UNL     1       8.369  -9.419  -2.608  0.00  0.00    +0.001 A 
ATOM     14  C   UNL     1       8.565 -10.069  -3.828  0.00  0.00    +0.004 A 
ATOM     15  C   UNL     1       7.560 -10.129  -4.744  0.00  0.00    -0.039 A 
ATOM     16  C   UNL     1       7.419 -10.723  -6.124  0.00  0.00    +0.040 C 
ATOM     17  C   UNL     1       5.983 -10.377  -6.573  0.00  0.00    +0.040 C 
ENDBRANCH   3   6
BRANCH   1  19
ATOM     18  N   UNL     1       2.451  -4.158  -0.053  0.00  0.00    -0.205 N 
ATOM     19  C   UNL     1       3.620  -4.829  -0.061  0.00  0.00    +0.263 C 
ATOM     20  O   UNL     1       4.669  -4.219  -0.056  0.00  0.00    -0.271 OA
ATOM     21  H   UNL     1       1.612  -4.645  -0.057  0.00  0.00    +0.177 HD
BRANCH  18  23
ATOM     22  C   UNL     1       1.321  -2.111  -0.032  0.00  0.00    +0.142 C 
ATOM     23  N   UNL     1       2.447  -2.757  -0.039  0.00  0.00    -0.188 NA
BRANCH  22  28
ATOM     24  C   UNL     1       0.111   1.440   0.003  0.00  0.00    +0.001 A 
ATOM     25  C   UNL     1       1.308   2.136   0.009  0.00  0.00    +0.004 A 
ATOM     26  C   UNL     1       2.512   1.456   0.002  0.00  0.00    +0.046 A 
ATOM     27  C   UNL     1       2.527   0.070  -0.011  0.00  0.00    +0.125 A 
ATOM     28  C   UNL     1       1.317  -0.637  -0.017  0.00  0.00    +0.036 A 
ATOM     29  C   UNL     1       0.108   0.062  -0.010  0.00  0.00    +0.013 A 
BRANCH  27  30
ATOM     30  O   UNL     1       3.708  -0.599  -0.019  0.00  0.00    -0.506 OA
ATOM     31  H   UNL     1       4.052  -0.801   0.862  0.00  0.00    +0.292 HD
ENDBRANCH  27  30
ENDBRANCH  22  28
ENDBRANCH  18  23
ENDBRANCH   1  19
TORSDOF 5
