REMARK  Name = ZINC39826486
REMARK  6 active torsions:
REMARK  status: ('A' for Active; 'I' for Inactive)
REMARK    1  A    between atoms: C_1  and  C_2
REMARK    2  A    between atoms: C_7  and  N_8
REMARK    3  A    between atoms: C_9  and  C_11
REMARK    4  A    between atoms: C_12  and  C_35
REMARK    5  A    between atoms: C_19  and  C_20
REMARK    6  A    between atoms: C_28  and  C_30
REMARK                            x       y       z     vdW  Elec       q    Type
REMARK                         _______ _______ _______ _____ _____    ______ ____
ROOT
ATOM      1  C   UNL     1       1.211   0.324   4.665  0.00  0.00    +0.063 C 
ATOM      2  C   UNL     1       1.191  -0.281   5.889  0.00  0.00    +0.052 C 
ATOM      3  N   UNL     1       0.973   0.429   6.989  0.00  0.00    -0.228 NA
ATOM      4  C   UNL     1       0.763   1.720   7.016  0.00  0.00    +0.178 A 
ATOM      5  N   UNL     1       0.742   2.520   5.896  0.00  0.00    -0.274 N 
ATOM      6  C   UNL     1       0.518   3.832   6.048  0.00  0.00    +0.268 A 
ATOM      7  O   UNL     1       0.490   4.578   5.087  0.00  0.00    -0.266 OA
ATOM      8  C   UNL     1       0.306   4.343   7.410  0.00  0.00    +0.081 A 
ATOM      9  C   UNL     1       0.063   5.611   7.828  0.00  0.00    +0.031 C 
ATOM     10  S   UNL     1       0.455   2.841   8.367  0.00  0.00    -0.046 S 
ATOM     11  C   UNL     1       0.984   1.817   4.605  0.00  0.00    +0.166 C 
ATOM     12  C   UNL     1       1.419  -1.767   5.991  0.00  0.00    +0.066 C 
ENDROOT
BRANCH   9  13
ATOM     13  C   UNL     1      -0.155   6.679   6.844  0.00  0.00    +0.011 A 
ATOM     14  C   UNL     1      -1.004   6.468   5.751  0.00  0.00    +0.011 A 
ATOM     15  C   UNL     1      -1.202   7.475   4.832  0.00  0.00    +0.001 A 
ATOM     16  C   UNL     1      -0.566   8.695   4.986  0.00  0.00    +0.003 A 
ATOM     17  C   UNL     1       0.274   8.916   6.062  0.00  0.00    +0.039 A 
ATOM     18  C   UNL     1       0.481   7.919   6.997  0.00  0.00    +0.131 A 
ATOM     19  F   UNL     1       1.298   8.137   8.051  0.00  0.00    -0.205 F 
ENDBRANCH   9  13
BRANCH  11  20
ATOM     20  C   UNL     1       2.188   2.443   3.949  0.00  0.00    +0.017 A 
ATOM     21  C   UNL     1       2.311   2.950   2.698  0.00  0.00    +0.013 A 
ATOM     22  C   UNL     1       3.526   3.481   2.307  0.00  0.00    +0.008 A 
ATOM     23  C   UNL     1       4.558   3.479   3.186  0.00  0.00    +0.045 A 
ATOM     24  S   UNL     1       3.819   2.716   4.621  0.00  0.00    -0.099 S 
ENDBRANCH  11  20
BRANCH   1  26
ATOM     25  N   UNL     1       2.692  -0.809   3.177  0.00  0.00    -0.281 N 
ATOM     26  C   UNL     1       1.441  -0.420   3.493  0.00  0.00    +0.248 C 
ATOM     27  O   UNL     1       0.509  -0.713   2.764  0.00  0.00    -0.270 OA
ATOM     28  H   UNL     1       3.424  -0.634   3.789  0.00  0.00    +0.155 HD
BRANCH  25  35
ATOM     29  C   UNL     1       5.226  -0.444   1.936  0.00  0.00    +0.045 C 
ATOM     30  C   UNL     1       4.158  -1.315   1.327  0.00  0.00    -0.029 A 
ATOM     31  C   UNL     1       4.397  -1.970   0.134  0.00  0.00    +0.005 A 
ATOM     32  C   UNL     1       3.418  -2.770  -0.425  0.00  0.00    +0.000 A 
ATOM     33  C   UNL     1       2.197  -2.918   0.207  0.00  0.00    +0.002 A 
ATOM     34  C   UNL     1       1.952  -2.266   1.399  0.00  0.00    +0.023 A 
ATOM     35  C   UNL     1       2.935  -1.466   1.967  0.00  0.00    +0.037 A 
ENDBRANCH  25  35
ENDBRANCH   1  26
TORSDOF 4
