REMARK  Name = ZINC35938655
REMARK  9 active torsions:
REMARK  status: ('A' for Active; 'I' for Inactive)
REMARK    1  A    between atoms: C_1  and  C_2
REMARK    2  A    between atoms: C_2  and  C_3
REMARK    3  A    between atoms: C_3  and  C_4
REMARK    4  A    between atoms: C_4  and  C_5
REMARK    5  A    between atoms: C_8  and  C_11
REMARK    6  A    between atoms: C_19  and  C_21
REMARK    7  A    between atoms: C_21  and  C_23
REMARK    8  A    between atoms: C_21  and  N_24
REMARK    9  A    between atoms: C_32  and  C_34
REMARK                            x       y       z     vdW  Elec       q    Type
REMARK                         _______ _______ _______ _____ _____    ______ ____
ROOT
ATOM      1  C   UNL     1       3.575  -4.162   5.835  0.00  0.00    +0.247 C 
ATOM      2  O   UNL     1       4.750  -4.463   5.770  0.00  0.00    -0.270 OA
ATOM      3  N   UNL     1       2.917  -4.264   7.007  0.00  0.00    -0.295 N 
ATOM      4  C   UNL     1       1.469  -4.022   7.075  0.00  0.00    +0.127 C 
ATOM      5  C   UNL     1       0.795  -5.252   7.697  0.00  0.00    +0.126 C 
ATOM      6  N   UNL     1       1.513  -5.608   8.929  0.00  0.00    -0.300 N 
ATOM      7  C   UNL     1       2.961  -5.850   8.861  0.00  0.00    +0.126 C 
ATOM      8  C   UNL     1       3.633  -4.626   8.238  0.00  0.00    +0.127 C 
ATOM      9  C   UNL     1       0.855  -5.710  10.101  0.00  0.00    +0.202 C 
ATOM     10  O   UNL     1      -0.353  -5.598  10.130  0.00  0.00    -0.277 OA
ENDROOT
BRANCH   1  14
ATOM     11  C   UNL     1       1.539  -2.788   2.370  0.00  0.00    -0.047 A 
ATOM     12  C   UNL     1       2.543  -3.732   2.250  0.00  0.00    +0.004 A 
ATOM     13  C   UNL     1       3.208  -4.183   3.371  0.00  0.00    +0.013 A 
ATOM     14  C   UNL     1       2.866  -3.683   4.629  0.00  0.00    +0.037 A 
ATOM     15  C   UNL     1       1.853  -2.731   4.743  0.00  0.00    +0.013 A 
ATOM     16  C   UNL     1       1.199  -2.285   3.613  0.00  0.00    +0.004 A 
BRANCH  11  17
ATOM     17  C   UNL     1       0.817  -2.300   1.140  0.00  0.00    +0.035 C 
BRANCH  17  18
ATOM     18  C   UNL     1       1.549  -1.086   0.566  0.00  0.00    +0.004 C 
BRANCH  18  20
ATOM     19  C   UNL     1       1.548   0.624  -1.256  0.00  0.00    +0.004 C 
ATOM     20  C   UNL     1       0.816  -0.591  -0.682  0.00  0.00    -0.003 C 
ENDBRANCH  18  20
ENDBRANCH  17  18
ENDBRANCH  11  17
ENDBRANCH   1  14
BRANCH   9  21
ATOM     21  C   UNL     1       1.619  -5.963  11.375  0.00  0.00    +0.018 C 
ATOM     22  C   UNL     1       1.894  -7.462  11.515  0.00  0.00    -0.004 C 
BRANCH  21  23
ATOM     23  N   UNL     1       0.826  -5.501  12.522  0.00  0.00    +0.395 N 
ATOM     24  C   UNL     1      -0.355  -6.362  12.671  0.00  0.00    -0.071 C 
ATOM     25  C   UNL     1      -1.341  -5.690  13.643  0.00  0.00    +0.024 C 
ATOM     26  C   UNL     1      -0.561  -5.240  14.835  0.00  0.00    -0.010 A 
ATOM     27  C   UNL     1       0.796  -5.157  14.930  0.00  0.00    -0.047 A 
ATOM     28  C   UNL     1       1.308  -4.714  16.147  0.00  0.00    +0.010 A 
ATOM     29  C   UNL     1       0.467  -4.390  17.157  0.00  0.00    +0.045 A 
ATOM     30  S   UNL     1      -1.132  -4.701  16.421  0.00  0.00    -0.101 S 
ATOM     31  C   UNL     1       1.657  -5.541  13.731  0.00  0.00    -0.005 C 
ATOM     32  H   UNL     1       0.525  -4.552  12.357  0.00  0.00    -0.079 HD
BRANCH  31  33
ATOM     33  C   UNL     1       2.796  -4.564  13.594  0.00  0.00    -0.057 A 
ATOM     34  C   UNL     1       2.557  -3.285  13.126  0.00  0.00    +0.002 A 
ATOM     35  C   UNL     1       3.602  -2.388  13.000  0.00  0.00    +0.000 A 
ATOM     36  C   UNL     1       4.886  -2.771  13.342  0.00  0.00    +0.000 A 
ATOM     37  C   UNL     1       5.125  -4.049  13.810  0.00  0.00    +0.000 A 
ATOM     38  C   UNL     1       4.079  -4.944  13.940  0.00  0.00    +0.002 A 
ENDBRANCH  31  33
ENDBRANCH  21  23
ENDBRANCH   9  21
TORSDOF 7
