REMARK  Name = ZINC40014230
REMARK  16 active torsions:
REMARK  status: ('A' for Active; 'I' for Inactive)
REMARK    1  A    between atoms: C_1  and  C_2
REMARK    2  A    between atoms: C_2  and  C_3
REMARK    3  A    between atoms: C_3  and  C_4
REMARK    4  A    between atoms: C_4  and  O_5
REMARK    5  A    between atoms: O_5  and  C_6
REMARK    6  A    between atoms: C_9  and  C_14
REMARK    7  A    between atoms: C_11  and  O_12
REMARK    8  A    between atoms: O_12  and  C_13
REMARK    9  A    between atoms: N_29  and  C_30
REMARK   10  A    between atoms: C_30  and  C_31
REMARK   11  A    between atoms: C_31  and  C_32
REMARK   12  A    between atoms: C_32  and  N_33
REMARK   13  A    between atoms: N_33  and  C_34
REMARK   14  A    between atoms: N_33  and  C_36
REMARK   15  A    between atoms: C_34  and  C_35
REMARK   16  A    between atoms: C_36  and  C_37
REMARK                            x       y       z     vdW  Elec       q    Type
REMARK                         _______ _______ _______ _____ _____    ______ ____
ROOT
ATOM      1  C   UNL     1      -3.109  -8.049   0.226  0.00  0.00    +0.145 C 
ATOM      2  C   UNL     1      -2.650  -8.709   1.485  0.00  0.00    +0.072 A 
ATOM      3  C   UNL     1      -3.031  -8.490   2.884  0.00  0.00    +0.199 A 
ATOM      4  O   UNL     1      -3.971  -7.791   3.218  0.00  0.00    -0.287 OA
ATOM      5  C   UNL     1      -2.163  -9.203   3.855  0.00  0.00    +0.067 A 
ATOM      6  C   UNL     1      -2.269  -8.941   5.221  0.00  0.00    +0.053 A 
ATOM      7  C   UNL     1      -1.451  -9.608   6.108  0.00  0.00    +0.124 A 
ATOM      8  C   UNL     1      -0.527 -10.535   5.640  0.00  0.00    +0.042 A 
ATOM      9  C   UNL     1      -0.416 -10.802   4.294  0.00  0.00    +0.050 A 
ATOM     10  C   UNL     1      -1.234 -10.142   3.377  0.00  0.00    +0.140 A 
ATOM     11  O   UNL     1      -1.111 -10.431   2.062  0.00  0.00    -0.450 OA
ATOM     12  C   UNL     1      -1.719  -9.650   1.148  0.00  0.00    +0.199 A 
ATOM     13  C   UNL     1      -1.545  -9.623  -0.315  0.00  0.00    +0.283 C 
ATOM     14  O   UNL     1      -0.784 -10.337  -0.938  0.00  0.00    -0.267 OA
ATOM     15  N   UNL     1      -2.355  -8.692  -0.863  0.00  0.00    -0.284 N 
ATOM     16  F   UNL     1      -1.547  -9.360   7.433  0.00  0.00    -0.205 F 
ENDROOT
BRANCH   1  20
ATOM     17  C   UNL     1      -2.233  -3.865   0.351  0.00  0.00    +0.162 A 
ATOM     18  C   UNL     1      -1.204  -4.790   0.280  0.00  0.00    +0.050 A 
ATOM     19  C   UNL     1      -1.490  -6.141   0.240  0.00  0.00    +0.009 A 
ATOM     20  C   UNL     1      -2.802  -6.574   0.270  0.00  0.00    -0.019 A 
ATOM     21  C   UNL     1      -3.834  -5.657   0.341  0.00  0.00    +0.055 A 
ATOM     22  C   UNL     1      -3.554  -4.301   0.388  0.00  0.00    +0.162 A 
BRANCH  22  23
ATOM     23  O   UNL     1      -4.568  -3.398   0.463  0.00  0.00    -0.491 OA
ATOM     24  C   UNL     1      -5.899  -3.918   0.497  0.00  0.00    +0.277 C 
ENDBRANCH  22  23
BRANCH  17  25
ATOM     25  O   UNL     1      -1.954  -2.535   0.391  0.00  0.00    -0.488 OA
BRANCH  25  26
ATOM     26  C   UNL     1      -0.575  -2.160   0.349  0.00  0.00    +0.229 C 
BRANCH  26  27
ATOM     27  C   UNL     1      -0.459  -0.636   0.404  0.00  0.00    +0.041 C 
BRANCH  27  29
ATOM     28  C   UNL     1       1.133   1.290   0.413  0.00  0.00    +0.004 C 
ATOM     29  C   UNL     1       1.017  -0.235   0.359  0.00  0.00    -0.000 C 
ENDBRANCH  27  29
ENDBRANCH  26  27
ENDBRANCH  25  26
ENDBRANCH  17  25
ENDBRANCH   1  20
BRANCH  15  30
ATOM     30  C   UNL     1      -2.465  -8.376  -2.289  0.00  0.00    +0.107 C 
BRANCH  30  31
ATOM     31  C   UNL     1      -1.369  -7.381  -2.677  0.00  0.00    +0.000 C 
BRANCH  31  32
ATOM     32  C   UNL     1      -1.532  -6.991  -4.148  0.00  0.00    -0.077 C 
BRANCH  32  33
ATOM     33  N   UNL     1      -0.563  -5.940  -4.486  0.00  0.00    +0.379 N 
ATOM     34  H   UNL     1      -0.667  -5.168  -3.845  0.00  0.00    -0.082 HD
BRANCH  33  35
ATOM     35  C   UNL     1       0.800  -6.479  -4.385  0.00  0.00    -0.082 C 
ATOM     36  C   UNL     1       1.812  -5.355  -4.614  0.00  0.00    -0.017 C 
ENDBRANCH  33  35
BRANCH  33  37
ATOM     37  C   UNL     1      -0.804  -5.474  -5.858  0.00  0.00    -0.082 C 
ATOM     38  C   UNL     1      -2.165  -4.779  -5.928  0.00  0.00    -0.017 C 
ENDBRANCH  33  37
ENDBRANCH  32  33
ENDBRANCH  31  32
ENDBRANCH  30  31
ENDBRANCH  15  30
TORSDOF 12
