REMARK  Name = ZINC14549369
REMARK  6 active torsions:
REMARK  status: ('A' for Active; 'I' for Inactive)
REMARK    1  A    between atoms: C_1  and  C_2
REMARK    2  A    between atoms: C_2  and  C_3
REMARK    3  A    between atoms: C_2  and  C_4
REMARK    4  A    between atoms: C_4  and  O_5
REMARK    5  A    between atoms: O_5  and  C_6
REMARK    6  A    between atoms: C_13  and  C_22
REMARK                            x       y       z     vdW  Elec       q    Type
REMARK                         _______ _______ _______ _____ _____    ______ ____
ROOT
ATOM      1  C   UNL     1      -0.496   1.850   0.135  0.00  0.00    +0.142 A 
ATOM      2  C   UNL     1      -0.727   0.490   0.204  0.00  0.00    +0.047 A 
ATOM      3  C   UNL     1       0.335  -0.394   0.244  0.00  0.00    +0.004 A 
ATOM      4  C   UNL     1       1.629   0.090   0.223  0.00  0.00    +0.006 A 
ATOM      5  C   UNL     1       1.870   1.447   0.162  0.00  0.00    -0.016 A 
ATOM      6  C   UNL     1       0.810   2.353   0.104  0.00  0.00    +0.074 A 
ATOM      7  N   UNL     1       0.967   3.736  -0.005  0.00  0.00    -0.334 N 
ATOM      8  C   UNL     1       2.344   4.253   0.063  0.00  0.00    +0.106 C 
ATOM      9  C   UNL     1       3.222   3.285  -0.702  0.00  0.00    +0.029 C 
ATOM     10  C   UNL     1       3.244   1.995   0.176  0.00  0.00    +0.049 C 
ATOM     11  C   UNL     1       4.409   1.246  -0.358  0.00  0.00    -0.023 C 
ATOM     12  C   UNL     1       5.282   2.118  -0.851  0.00  0.00    -0.030 C 
ATOM     13  C   UNL     1       4.730   3.556  -0.736  0.00  0.00    +0.033 C 
ATOM     14  H   UNL     1       0.366   4.221   0.644  0.00  0.00    +0.147 HD
ENDROOT
BRANCH   8  15
ATOM     15  C   UNL     1       2.793   4.329   1.500  0.00  0.00    -0.012 A 
ATOM     16  C   UNL     1       1.981   3.828   2.516  0.00  0.00    -0.012 A 
ATOM     17  C   UNL     1       0.729   3.243   2.226  0.00  0.00    +0.009 A 
ATOM     18  C   UNL     1      -0.037   2.765   3.240  0.00  0.00    +0.001 A 
ATOM     19  C   UNL     1       0.379   2.835   4.570  0.00  0.00    +0.001 A 
ATOM     20  C   UNL     1       1.576   3.374   4.916  0.00  0.00    +0.008 A 
ATOM     21  C   UNL     1       2.421   3.897   3.913  0.00  0.00    -0.017 A 
ATOM     22  C   UNL     1       3.648   4.473   4.234  0.00  0.00    +0.017 A 
ATOM     23  C   UNL     1       4.457   4.979   3.219  0.00  0.00    -0.017 A 
ATOM     24  C   UNL     1       4.020   4.905   1.821  0.00  0.00    -0.012 A 
ATOM     25  C   UNL     1       4.864   5.428   0.817  0.00  0.00    +0.009 A 
ATOM     26  C   UNL     1       6.053   5.983   1.165  0.00  0.00    +0.001 A 
ATOM     27  C   UNL     1       6.470   6.053   2.495  0.00  0.00    +0.001 A 
ATOM     28  C   UNL     1       5.707   5.569   3.508  0.00  0.00    +0.008 A 
ENDBRANCH   8  15
BRANCH   1  29
ATOM     29  O   UNL     1      -1.550   2.709   0.090  0.00  0.00    -0.490 OA
BRANCH  29  30
ATOM     30  C   UNL     1      -2.858   2.135   0.118  0.00  0.00    +0.232 C 
BRANCH  30  32
ATOM     31  C   UNL     1      -3.809   3.970  -1.285  0.00  0.00    +0.010 C 
ATOM     32  C   UNL     1      -3.905   3.248   0.061  0.00  0.00    +0.020 C 
ATOM     33  C   UNL     1      -5.302   2.643   0.216  0.00  0.00    +0.010 C 
ENDBRANCH  30  32
ENDBRANCH  29  30
ENDBRANCH   1  29
TORSDOF 4
