REMARK  Name = ZINC39775176
REMARK  5 active torsions:
REMARK  status: ('A' for Active; 'I' for Inactive)
REMARK    1  A    between atoms: C_1  and  N_2
REMARK    2  A    between atoms: N_2  and  C_3
REMARK    3  A    between atoms: N_2  and  N_20
REMARK    4  A    between atoms: N_6  and  C_12
REMARK    5  A    between atoms: C_21  and  C_22
REMARK                            x       y       z     vdW  Elec       q    Type
REMARK                         _______ _______ _______ _____ _____    ______ ____
ROOT
ATOM      1  C   UNL     1      -0.159  -0.714   1.229  0.00  0.00    +0.070 C 
ATOM      2  C   UNL     1      -0.638  -0.327   2.404  0.00  0.00    +0.110 C 
ATOM      3  N   UNL     1      -0.469  -1.114   3.535  0.00  0.00    -0.263 N 
ATOM      4  N   UNL     1       0.501  -2.125   3.538  0.00  0.00    -0.189 N 
ATOM      5  C   UNL     1       1.027  -2.560   2.380  0.00  0.00    +0.260 C 
ATOM      6  O   UNL     1       1.885  -3.417   2.405  0.00  0.00    -0.272 OA
ATOM      7  C   UNL     1       0.573  -2.013   1.056  0.00  0.00    +0.215 C 
ATOM      8 CL   UNL     1      -0.521  -3.206   0.262  0.00  0.00    -0.105 Cl
ATOM      9  H   UNL     1      -1.020  -0.965   4.320  0.00  0.00    +0.170 HD
ENDROOT
BRANCH   4  10
ATOM     10  C   UNL     1       0.923  -2.683   4.750  0.00  0.00    +0.058 A 
ATOM     11  C   UNL     1       1.265  -1.858   5.814  0.00  0.00    +0.028 A 
ATOM     12  C   UNL     1       1.681  -2.411   7.010  0.00  0.00    +0.042 A 
ATOM     13  C   UNL     1       1.759  -3.786   7.148  0.00  0.00    +0.142 A 
ATOM     14  C   UNL     1       1.419  -4.611   6.088  0.00  0.00    +0.078 A 
ATOM     15  C   UNL     1       0.996  -4.062   4.892  0.00  0.00    +0.048 A 
ATOM     16 CL   UNL     1       1.518  -6.335   6.265  0.00  0.00    -0.081 Cl
ATOM     17  F   UNL     1       2.167  -4.324   8.319  0.00  0.00    -0.204 F 
ENDBRANCH   4  10
BRANCH   1  19
ATOM     18  C   UNL     1      -1.056   1.377   0.269  0.00  0.00    +0.158 C 
ATOM     19  N   UNL     1      -0.345   0.104   0.125  0.00  0.00    -0.228 N 
BRANCH  19  20
ATOM     20  N   UNL     1       0.108  -0.256  -1.028  0.00  0.00    -0.188 NA
ATOM     21  C   UNL     1       0.011   0.560  -2.057  0.00  0.00    +0.136 C 
BRANCH  21  22
ATOM     22  C   UNL     1       0.390   0.129  -3.324  0.00  0.00    +0.000 C 
ATOM     23  C   UNL     1       0.356   0.866  -4.515  0.00  0.00    +0.004 A 
ATOM     24  C   UNL     1      -0.042   2.185  -4.806  0.00  0.00    +0.010 A 
ATOM     25  C   UNL     1       0.035   2.647  -6.083  0.00  0.00    +0.001 A 
ATOM     26  C   UNL     1       0.500   1.842  -7.123  0.00  0.00    +0.002 A 
ATOM     27  C   UNL     1       0.899   0.562  -6.913  0.00  0.00    +0.026 A 
ATOM     28  C   UNL     1       0.848   0.013  -5.607  0.00  0.00    +0.043 A 
ATOM     29  N   UNL     1       1.173  -1.182  -5.150  0.00  0.00    -0.380 N 
ATOM     30  C   UNL     1       0.932  -1.232  -3.704  0.00  0.00    +0.150 C 
ATOM     31  H   UNL     1       1.521  -1.913  -5.685  0.00  0.00    +0.160 HD
ENDBRANCH  21  22
ENDBRANCH  19  20
ENDBRANCH   1  19
TORSDOF 4
