REMARK  Name = ZINC08783199
REMARK  8 active torsions:
REMARK  status: ('A' for Active; 'I' for Inactive)
REMARK    1  A    between atoms: C_1  and  O_2
REMARK    2  A    between atoms: O_2  and  C_3
REMARK    3  A    between atoms: C_4  and  N_30
REMARK    4  A    between atoms: C_6  and  C_10
REMARK    5  A    between atoms: C_8  and  O_9
REMARK    6  A    between atoms: C_13  and  C_24
REMARK    7  A    between atoms: C_19  and  N_23
REMARK    8  A    between atoms: C_20  and  C_21
REMARK                            x       y       z     vdW  Elec       q    Type
REMARK                         _______ _______ _______ _____ _____    ______ ____
ROOT
ATOM      1  C   UNL     1       2.593  -2.552   4.311  0.00  0.00    +0.102 C 
ATOM      2  C   UNL     1       2.468  -1.708   5.553  0.00  0.00    +0.054 A 
ATOM      3  C   UNL     1       3.076  -0.539   5.867  0.00  0.00    +0.074 A 
ATOM      4  N   UNL     1       2.632  -0.172   7.106  0.00  0.00    -0.273 N 
ATOM      5  H   UNL     1       2.894   0.625   7.594  0.00  0.00    +0.189 HD
ATOM      6  N   UNL     1       1.728  -1.151   7.548  0.00  0.00    -0.135 NA
ATOM      7  C   UNL     1       1.629  -2.066   6.627  0.00  0.00    +0.245 A 
ATOM      8  O   UNL     1       0.881  -3.203   6.608  0.00  0.00    -0.421 OA
ATOM      9  C   UNL     1       1.163  -4.117   5.658  0.00  0.00    +0.201 C 
ATOM     10  C   UNL     1       1.943  -3.885   4.580  0.00  0.00    +0.098 C 
ENDROOT
BRANCH   1  14
ATOM     11  C   UNL     1       0.626  -0.619   1.042  0.00  0.00    +0.192 A 
ATOM     12  C   UNL     1       1.979  -0.910   0.966  0.00  0.00    +0.171 A 
ATOM     13  C   UNL     1       2.612  -1.535   2.025  0.00  0.00    +0.041 A 
ATOM     14  C   UNL     1       1.898  -1.870   3.160  0.00  0.00    -0.029 A 
ATOM     15  C   UNL     1       0.549  -1.582   3.243  0.00  0.00    +0.054 A 
ATOM     16  C   UNL     1      -0.091  -0.951   2.188  0.00  0.00    +0.161 A 
BRANCH  12  17
ATOM     17  N   UNL     1       2.746  -0.553  -0.248  0.00  0.00    +0.060 N 
ATOM     18  O   UNL     1       3.926  -0.807  -0.315  0.00  0.00    -0.126 OA
ATOM     19  O   UNL     1       2.192  -0.007  -1.174  0.00  0.00    -0.126 OA
ENDBRANCH  12  17
BRANCH  11  21
ATOM     20  C   UNL     1      -0.017   1.425   0.010  0.00  0.00    +0.277 C 
ATOM     21  O   UNL     1       0.002  -0.004   0.002  0.00  0.00    -0.489 OA
ENDBRANCH  11  21
BRANCH  16  22
ATOM     22  O   UNL     1      -1.417  -0.662   2.269  0.00  0.00    -0.503 OA
ATOM     23  H   UNL     1      -1.994  -1.367   1.943  0.00  0.00    +0.292 HD
ENDBRANCH  16  22
ENDBRANCH   1  14
BRANCH   3  24
ATOM     24  C   UNL     1       4.043   0.201   5.027  0.00  0.00    +0.000 A 
ATOM     25  C   UNL     1       5.074  -0.480   4.380  0.00  0.00    +0.010 A 
ATOM     26  C   UNL     1       5.972   0.216   3.597  0.00  0.00    +0.001 A 
ATOM     27  C   UNL     1       5.852   1.586   3.453  0.00  0.00    +0.000 A 
ATOM     28  C   UNL     1       4.832   2.268   4.092  0.00  0.00    +0.001 A 
ATOM     29  C   UNL     1       3.924   1.583   4.873  0.00  0.00    +0.010 A 
ENDBRANCH   3  24
BRANCH   9  30
ATOM     30  N   UNL     1       0.620  -5.370   5.796  0.00  0.00    -0.328 N 
ATOM     31  H   UNL     1       0.055  -5.572   6.558  0.00  0.00    +0.145 HD
ATOM     32  H   UNL     1       0.801  -6.053   5.131  0.00  0.00    +0.145 HD
ENDBRANCH   9  30
BRANCH  10  33
ATOM     33  C   UNL     1       2.162  -4.953   3.652  0.00  0.00    +0.101 C 
ATOM     34  N   UNL     1       2.336  -5.800   2.915  0.00  0.00    -0.191 NA
ENDBRANCH  10  33
TORSDOF 7
