REMARK  Name = ZINC10249294
REMARK  7 active torsions:
REMARK  status: ('A' for Active; 'I' for Inactive)
REMARK    1  A    between atoms: C_1  and  C_2
REMARK    2  A    between atoms: C_2  and  C_4
REMARK    3  A    between atoms: C_2  and  C_28
REMARK    4  A    between atoms: C_4  and  N_5
REMARK    5  A    between atoms: N_13  and  C_27
REMARK    6  A    between atoms: C_28  and  S_29
REMARK    7  A    between atoms: S_29  and  C_30
REMARK                            x       y       z     vdW  Elec       q    Type
REMARK                         _______ _______ _______ _____ _____    ______ ____
ROOT
ATOM      1  N   UNL     1      -7.360  10.195   0.902  0.00  0.00    -0.306 N 
ATOM      2  C   UNL     1      -7.428  11.026  -0.207  0.00  0.00    +0.153 A 
ATOM      3  C   UNL     1      -8.230  11.065  -1.361  0.00  0.00    +0.280 A 
ATOM      4  O   UNL     1      -9.099  10.228  -1.536  0.00  0.00    -0.265 OA
ATOM      5  N   UNL     1      -8.029  12.038  -2.274  0.00  0.00    -0.273 N 
ATOM      6  H   UNL     1      -8.598  12.068  -3.095  0.00  0.00    +0.173 HD
ATOM      7  C   UNL     1      -7.075  12.968  -2.095  0.00  0.00    +0.331 A 
ATOM      8  O   UNL     1      -6.923  13.831  -2.938  0.00  0.00    -0.246 OA
ATOM      9  N   UNL     1      -6.285  12.968  -1.004  0.00  0.00    -0.280 N 
ATOM     10  C   UNL     1      -6.444  11.993  -0.032  0.00  0.00    +0.170 A 
ATOM     11  N   UNL     1      -5.831  11.739   1.125  0.00  0.00    -0.196 NA
ATOM     12  C   UNL     1      -6.366  10.678   1.694  0.00  0.00    +0.201 A 
ATOM     13  N   UNL     1      -5.978  10.141   2.899  0.00  0.00    -0.296 N 
ATOM     14  C   UNL     1      -6.329  11.036   4.013  0.00  0.00    +0.113 C 
ATOM     15  C   UNL     1      -6.218  10.251   5.320  0.00  0.00    +0.054 C 
ATOM     16  C   UNL     1      -4.885   9.551   5.388  0.00  0.00    -0.041 A 
ATOM     17  C   UNL     1      -4.444   9.085   6.618  0.00  0.00    +0.004 A 
ATOM     18  C   UNL     1      -3.233   8.431   6.723  0.00  0.00    +0.000 A 
ATOM     19  C   UNL     1      -2.455   8.241   5.596  0.00  0.00    +0.000 A 
ATOM     20  C   UNL     1      -2.891   8.706   4.372  0.00  0.00    +0.005 A 
ATOM     21  C   UNL     1      -4.108   9.364   4.265  0.00  0.00    -0.027 A 
ATOM     22  C   UNL     1      -4.539   9.858   2.909  0.00  0.00    +0.143 C 
ATOM     23  C   UNL     1      -5.257  14.000  -0.846  0.00  0.00    +0.155 C 
ENDROOT
BRANCH   1  24
ATOM     24  C   UNL     1      -8.202   9.026   1.171  0.00  0.00    +0.129 C 
BRANCH  24  26
ATOM     25  C   UNL     1      -7.389   7.824  -0.863  0.00  0.00    +0.010 C 
ATOM     26  C   UNL     1      -7.501   7.765   0.662  0.00  0.00    +0.016 C 
BRANCH  26  27
ATOM     27  C   UNL     1      -8.312   6.532   1.067  0.00  0.00    +0.081 C 
BRANCH  27  28
ATOM     28  S   UNL     1      -7.411   5.035   0.594  0.00  0.00    -0.098 S 
BRANCH  28  29
ATOM     29  C   UNL     1      -8.540   3.807   1.161  0.00  0.00    +0.136 A 
ATOM     30  N   UNL     1      -8.434   2.498   1.097  0.00  0.00    -0.233 NA
ATOM     31  C   UNL     1      -9.387   1.670   1.577  0.00  0.00    +0.079 A 
ATOM     32  C   UNL     1      -9.398   0.256   1.572  0.00  0.00    +0.029 A 
ATOM     33  C   UNL     1     -10.453  -0.438   2.106  0.00  0.00    +0.002 A 
ATOM     34  C   UNL     1     -11.541   0.214   2.666  0.00  0.00    +0.001 A 
ATOM     35  C   UNL     1     -11.566   1.597   2.683  0.00  0.00    +0.017 A 
ATOM     36  C   UNL     1     -10.512   2.300   2.156  0.00  0.00    +0.040 A 
ATOM     37  S   UNL     1     -10.119   4.023   1.969  0.00  0.00    -0.061 S 
ENDBRANCH  28  29
ENDBRANCH  27  28
ENDBRANCH  26  27
ENDBRANCH  24  26
ENDBRANCH   1  24
TORSDOF 5
