REMARK  Name = ZINC00807759
REMARK  8 active torsions:
REMARK  status: ('A' for Active; 'I' for Inactive)
REMARK    1  A    between atoms: C_1  and  C_2
REMARK    2  A    between atoms: C_2  and  O_3
REMARK    3  A    between atoms: O_3  and  C_4
REMARK    4  A    between atoms: C_6  and  C_19
REMARK    5  A    between atoms: C_9  and  O_10
REMARK    6  A    between atoms: O_10  and  C_11
REMARK    7  A    between atoms: C_11  and  C_12
REMARK    8  A    between atoms: C_21  and  C_25
REMARK                            x       y       z     vdW  Elec       q    Type
REMARK                         _______ _______ _______ _____ _____    ______ ____
ROOT
ATOM      1  C   UNK     1      -4.853   3.078   3.143  0.00  0.00    +0.162 A 
ATOM      2  C   UNK     1      -4.149   2.090   2.474  0.00  0.00    +0.052 A 
ATOM      3  C   UNK     1      -2.939   2.388   1.875  0.00  0.00    -0.048 A 
ATOM      4  C   UNK     1      -2.425   3.670   1.948  0.00  0.00    +0.006 A 
ATOM      5  C   UNK     1      -3.125   4.662   2.609  0.00  0.00    +0.049 A 
ATOM      6  C   UNK     1      -4.338   4.370   3.211  0.00  0.00    +0.162 A 
ENDROOT
BRANCH   3   7
ATOM      7  C   UNK     1      -2.175   1.312   1.147  0.00  0.00    +0.020 C 
ATOM      8  C   UNK     1      -0.013   1.086   0.008  0.00  0.00    +0.055 C 
ATOM      9  C   UNK     1      -0.776   1.607  -1.247  0.00  0.00    +0.063 C 
ATOM     10  S   UNK     1      -2.508   1.377  -0.662  0.00  0.00    -0.173 S 
ATOM     11  N   UNK     1      -0.704   1.574   1.228  0.00  0.00    +0.399 N 
ATOM     12  H   UNK     1      -0.321   1.090   2.048  0.00  0.00    -0.083 HD
ATOM     13  H   UNK     1      -0.547   2.584   1.322  0.00  0.00    -0.083 HD
BRANCH   8  14
ATOM     14  C   UNK     1       1.399   1.612  -0.003  0.00  0.00    +0.343 C 
ATOM     15  O   UNK     1       1.695   2.563   0.682  0.00  0.00    -0.248 OA
ATOM     16  O   UNK     1       2.329   1.025  -0.773  0.00  0.00    -0.248 OA
ENDBRANCH   8  14
ENDBRANCH   3   7
BRANCH   1  17
ATOM     17  O   UNK     1      -6.043   2.787   3.733  0.00  0.00    -0.489 OA
BRANCH  17  19
ATOM     18  C   UNK     1      -7.852   1.306   4.342  0.00  0.00    +0.048 C 
ATOM     19  C   UNK     1      -6.509   1.440   3.623  0.00  0.00    +0.226 C 
ENDBRANCH  17  19
ENDBRANCH   1  17
BRANCH   6  20
ATOM     20  O   UNK     1      -5.025   5.343   3.868  0.00  0.00    -0.484 OA
BRANCH  20  21
ATOM     21  C   UNK     1      -4.437   6.645   3.897  0.00  0.00    +0.266 C 
BRANCH  21  22
ATOM     22  C   UNK     1      -5.333   7.584   4.662  0.00  0.00    +0.008 A 
ATOM     23  C   UNK     1      -6.521   7.123   5.197  0.00  0.00    +0.008 A 
ATOM     24  C   UNK     1      -7.341   7.984   5.902  0.00  0.00    +0.000 A 
ATOM     25  C   UNK     1      -6.978   9.308   6.065  0.00  0.00    +0.001 A 
ATOM     26  C   UNK     1      -5.793   9.771   5.527  0.00  0.00    +0.020 A 
ATOM     27  C   UNK     1      -4.969   8.909   4.824  0.00  0.00    +0.047 A 
ATOM     28 CL   UNK     1      -3.480   9.490   4.146  0.00  0.00    -0.083 Cl
ENDBRANCH  21  22
ENDBRANCH  20  21
ENDBRANCH   6  20
TORSDOF 7
