REMARK  Name = ZINC38762645
REMARK  8 active torsions:
REMARK  status: ('A' for Active; 'I' for Inactive)
REMARK    1  A    between atoms: C_1  and  C_2
REMARK    2  A    between atoms: C_2  and  C_3
REMARK    3  A    between atoms: C_3  and  C_4
REMARK    4  A    between atoms: C_4  and  C_5
REMARK    5  A    between atoms: C_12  and  C_14
REMARK    6  A    between atoms: C_15  and  C_32
REMARK    7  A    between atoms: C_21  and  C_25
REMARK    8  A    between atoms: C_25  and  C_26
REMARK                            x       y       z     vdW  Elec       q    Type
REMARK                         _______ _______ _______ _____ _____    ______ ____
ROOT
ATOM      1  C   UNL     1      -1.386  -5.854  -7.237  0.00  0.00    +0.080 A 
ATOM      2  C   UNL     1      -1.647  -7.117  -7.683  0.00  0.00    -0.017 A 
ATOM      3  C   UNL     1      -2.368  -7.302  -8.865  0.00  0.00    +0.076 A 
ATOM      4  C   UNL     1      -2.764  -8.563  -9.531  0.00  0.00    +0.260 A 
ATOM      5  O   UNL     1      -2.465  -9.643  -9.054  0.00  0.00    -0.267 OA
ATOM      6  N   UNL     1      -3.466  -8.485 -10.679  0.00  0.00    -0.310 N 
ATOM      7  H   UNL     1      -3.733  -9.302 -11.128  0.00  0.00    +0.170 HD
ATOM      8  C   UNL     1      -3.805  -7.289 -11.219  0.00  0.00    +0.115 A 
ATOM      9  N   UNL     1      -3.471  -6.159 -10.657  0.00  0.00    -0.226 NA
ATOM     10  C   UNL     1      -2.781  -6.122  -9.525  0.00  0.00    +0.116 A 
ATOM     11  S   UNL     1      -2.159  -4.830  -8.478  0.00  0.00    -0.064 S 
ATOM     12  C   UNL     1      -1.160  -8.309  -6.901  0.00  0.00    +0.046 C 
ENDROOT
BRANCH   1  19
ATOM     13  C   UNL     1       1.455  -2.521  -2.524  0.00  0.00    +0.154 C 
ATOM     14  N   UNL     1       1.414  -3.997  -2.623  0.00  0.00    -0.253 N 
ATOM     15  N   UNL     1       0.748  -4.493  -3.722  0.00  0.00    -0.163 NA
ATOM     16  C   UNL     1       0.190  -3.739  -4.617  0.00  0.00    +0.179 C 
ATOM     17  S   UNL     1       0.518  -2.078  -4.045  0.00  0.00    -0.065 S 
ATOM     18  N   UNL     1      -0.503  -4.131  -5.757  0.00  0.00    -0.259 N 
ATOM     19  C   UNL     1      -0.656  -5.441  -6.035  0.00  0.00    +0.257 C 
ATOM     20  O   UNL     1      -0.187  -6.280  -5.289  0.00  0.00    -0.269 OA
ATOM     21  H   UNL     1       1.827  -4.574  -1.962  0.00  0.00    +0.169 HD
ATOM     22  H   UNL     1      -0.876  -3.462  -6.352  0.00  0.00    +0.157 HD
BRANCH  13  23
ATOM     23  C   UNL     1       0.739  -2.027  -1.265  0.00  0.00    +0.035 C 
BRANCH  23  24
ATOM     24  C   UNL     1       0.718  -0.497  -1.257  0.00  0.00    +0.002 C 
BRANCH  24  26
ATOM     25  C   UNL     1      -0.019   1.526   0.010  0.00  0.00    +0.004 C 
ATOM     26  C   UNL     1       0.002  -0.004   0.002  0.00  0.00    -0.003 C 
ENDBRANCH  24  26
ENDBRANCH  23  24
ENDBRANCH  13  23
ENDBRANCH   1  19
BRANCH   8  27
ATOM     27  C   UNL     1      -4.590  -7.263 -12.505  0.00  0.00    +0.109 C 
BRANCH  27  28
ATOM     28  C   UNL     1      -4.847  -5.833 -12.908  0.00  0.00    -0.040 A 
ATOM     29  C   UNL     1      -5.984  -5.185 -12.465  0.00  0.00    +0.004 A 
ATOM     30  C   UNL     1      -6.221  -3.874 -12.834  0.00  0.00    +0.000 A 
ATOM     31  C   UNL     1      -5.319  -3.211 -13.646  0.00  0.00    +0.000 A 
ATOM     32  C   UNL     1      -4.181  -3.860 -14.089  0.00  0.00    +0.000 A 
ATOM     33  C   UNL     1      -3.943  -5.169 -13.716  0.00  0.00    +0.004 A 
ENDBRANCH  27  28
ENDBRANCH   8  27
TORSDOF 6
