REMARK  Name = ZINC38546382
REMARK  11 active torsions:
REMARK  status: ('A' for Active; 'I' for Inactive)
REMARK    1  A    between atoms: C_1  and  C_2
REMARK    2  A    between atoms: C_2  and  C_3
REMARK    3  A    between atoms: C_5  and  C_16
REMARK    4  A    between atoms: C_6  and  N_8
REMARK    5  A    between atoms: C_9  and  C_11
REMARK    6  A    between atoms: C_16  and  C_18
REMARK    7  A    between atoms: C_16  and  N_25
REMARK    8  A    between atoms: C_28  and  C_31
REMARK    9  A    between atoms: C_31  and  O_33
REMARK   10  A    between atoms: O_33  and  C_34
REMARK   11  A    between atoms: C_34  and  C_35
REMARK                            x       y       z     vdW  Elec       q    Type
REMARK                         _______ _______ _______ _____ _____    ______ ____
ROOT
ATOM      1  C   UNL     1      -4.422  -1.629  -1.927  0.00  0.00    -0.004 C 
ENDROOT
BRANCH   1   2
ATOM      2  C   UNL     1      -4.422  -3.120  -2.149  0.00  0.00    -0.056 A 
ATOM      3  C   UNL     1      -3.390  -3.713  -2.852  0.00  0.00    +0.005 A 
ATOM      4  C   UNL     1      -3.389  -5.080  -3.056  0.00  0.00    +0.038 A 
ATOM      5  C   UNL     1      -4.422  -5.855  -2.557  0.00  0.00    +0.123 A 
ATOM      6  C   UNL     1      -5.455  -5.260  -1.854  0.00  0.00    +0.038 A 
ATOM      7  C   UNL     1      -5.452  -3.893  -1.646  0.00  0.00    +0.005 A 
ATOM      8  F   UNL     1      -4.422  -7.191  -2.757  0.00  0.00    -0.205 F 
ENDBRANCH   1   2
BRANCH   1   9
ATOM      9  N   UNL     1      -3.965  -0.952  -3.147  0.00  0.00    +0.387 N 
ATOM     10  C   UNL     1      -3.957   0.499  -2.926  0.00  0.00    -0.077 C 
ATOM     11  C   UNL     1      -3.405   1.205  -4.166  0.00  0.00    -0.004 C 
ATOM     12  C   UNL     1      -4.291   0.876  -5.371  0.00  0.00    +0.094 C 
ATOM     13  C   UNL     1      -4.352  -0.644  -5.547  0.00  0.00    -0.004 C 
ATOM     14  C   UNL     1      -4.869  -1.282  -4.256  0.00  0.00    -0.077 C 
ATOM     15  H   UNL     1      -3.031  -1.261  -3.373  0.00  0.00    -0.080 HD
BRANCH  12  16
ATOM     16  C   UNL     1      -3.709   1.504  -6.611  0.00  0.00    +0.310 C 
ATOM     17  O   UNL     1      -2.690   2.149  -6.540  0.00  0.00    -0.251 OA
BRANCH  16  18
ATOM     18  O   UNL     1      -4.322   1.346  -7.795  0.00  0.00    -0.465 OA
BRANCH  18  19
ATOM     19  C   UNL     1      -3.715   1.969  -8.928  0.00  0.00    +0.229 C 
ATOM     20  C   UNL     1      -4.551   1.681 -10.177  0.00  0.00    +0.048 C 
ENDBRANCH  18  19
ENDBRANCH  16  18
ENDBRANCH  12  16
ENDBRANCH   1   9
BRANCH   1  23
ATOM     21  C   UNL     1      -1.412  -0.526   0.013  0.00  0.00    -0.008 A 
ATOM     22  C   UNL     1      -2.219  -0.820  -1.034  0.00  0.00    +0.015 A 
ATOM     23  C   UNL     1      -3.495  -1.292  -0.787  0.00  0.00    -0.028 A 
ATOM     24  C   UNL     1      -3.900  -1.445   0.505  0.00  0.00    +0.074 A 
ATOM     25  S   UNL     1      -2.451  -0.922   1.409  0.00  0.00    -0.078 S 
BRANCH  24  26
ATOM     26  N   UNL     1      -5.126  -1.899   0.995  0.00  0.00    -0.273 N 
ATOM     27  C   UNL     1      -5.332  -1.980   2.324  0.00  0.00    +0.284 C 
ATOM     28  O   UNL     1      -4.450  -1.657   3.098  0.00  0.00    -0.266 OA
ATOM     29  H   UNL     1      -5.829  -2.156   0.378  0.00  0.00    +0.156 HD
BRANCH  27  30
ATOM     30  C   UNL     1      -6.620  -2.456   2.839  0.00  0.00    +0.189 A 
ATOM     31  C   UNL     1      -6.962  -2.581   4.155  0.00  0.00    +0.054 A 
ATOM     32  C   UNL     1      -8.278  -3.068   4.186  0.00  0.00    +0.042 A 
ATOM     33  C   UNL     1      -8.677  -3.218   2.903  0.00  0.00    +0.196 A 
ATOM     34  O   UNL     1      -7.677  -2.843   2.095  0.00  0.00    -0.458 OA
ENDBRANCH  27  30
ENDBRANCH  24  26
BRANCH  21  36
ATOM     35  C   UNL     1      -0.019   1.526   0.010  0.00  0.00    +0.009 C 
ATOM     36  C   UNL     1       0.002  -0.004   0.002  0.00  0.00    +0.039 C 
ENDBRANCH  21  36
ENDBRANCH   1  23
TORSDOF 9
