REMARK  Name = ZINC48290162
REMARK  10 active torsions:
REMARK  status: ('A' for Active; 'I' for Inactive)
REMARK    1  A    between atoms: C_1  and  N_2
REMARK    2  A    between atoms: N_2  and  C_3
REMARK    3  A    between atoms: C_6  and  C_10
REMARK    4  A    between atoms: C_10  and  N_11
REMARK    5  A    between atoms: N_14  and  C_15
REMARK    6  A    between atoms: C_15  and  C_16
REMARK    7  A    between atoms: C_16  and  C_18
REMARK    8  A    between atoms: C_16  and  N_23
REMARK    9  A    between atoms: N_23  and  C_24
REMARK   10  A    between atoms: N_23  and  C_25
REMARK                            x       y       z     vdW  Elec       q    Type
REMARK                         _______ _______ _______ _____ _____    ______ ____
ROOT
ATOM      1  N   UNL     1      -1.541  -4.623  -2.487  0.00  0.00    -0.295 N 
ATOM      2  C   UNL     1      -1.718  -5.957  -2.422  0.00  0.00    +0.300 C 
ATOM      3  O   UNL     1      -0.757  -6.693  -2.306  0.00  0.00    -0.253 OA
ATOM      4  N   UNL     1      -2.960  -6.476  -2.484  0.00  0.00    -0.301 N 
ATOM      5  H   UNL     1      -2.308  -4.036  -2.580  0.00  0.00    +0.151 HD
ATOM      6  H   UNL     1      -3.727  -5.890  -2.577  0.00  0.00    +0.150 HD
ENDROOT
BRANCH   1   7
ATOM      7  C   UNL     1      -0.191  -4.059  -2.420  0.00  0.00    +0.141 C 
BRANCH   7  13
ATOM      8  C   UNL     1      -0.667   1.850  -0.494  0.00  0.00    +0.130 C 
ATOM      9  N   UNL     1      -0.588   0.393  -0.367  0.00  0.00    -0.323 N 
ATOM     10  C   UNL     1      -0.643  -0.231   0.958  0.00  0.00    +0.130 C 
ATOM     11  C   UNL     1      -0.462  -0.398  -1.503  0.00  0.00    +0.098 A 
ATOM     12  C   UNL     1      -0.394  -1.782  -1.376  0.00  0.00    +0.047 A 
ATOM     13  C   UNL     1      -0.269  -2.557  -2.514  0.00  0.00    -0.026 A 
ATOM     14  C   UNL     1      -0.215  -1.920  -3.747  0.00  0.00    +0.023 A 
ATOM     15  C   UNL     1      -0.289  -0.542  -3.800  0.00  0.00    +0.084 A 
ATOM     16  N   UNL     1      -0.414   0.172  -2.697  0.00  0.00    -0.350 N 
ATOM     17  H   UNL     1      -0.467   1.138  -2.763  0.00  0.00    +0.166 HD
ENDBRANCH   7  13
ENDBRANCH   1   7
BRANCH   4  18
ATOM     18  C   UNL     1      -3.152  -7.927  -2.413  0.00  0.00    +0.095 C 
BRANCH  18  19
ATOM     19  C   UNL     1      -4.649  -8.243  -2.392  0.00  0.00    -0.014 C 
BRANCH  19  20
ATOM     20  C   UNL     1      -5.273  -7.809  -3.693  0.00  0.00    -0.022 A 
ATOM     21  C   UNL     1      -5.976  -6.684  -3.970  0.00  0.00    +0.009 A 
ATOM     22  C   UNL     1      -6.458  -6.493  -5.252  0.00  0.00    +0.008 A 
ATOM     23  C   UNL     1      -6.214  -7.438  -6.193  0.00  0.00    +0.045 A 
ATOM     24  S   UNL     1      -5.270  -8.642  -5.273  0.00  0.00    -0.103 S 
ENDBRANCH  19  20
BRANCH  19  25
ATOM     25  N   UNL     1      -4.843  -9.688  -2.213  0.00  0.00    +0.382 N 
ATOM     26  C   UNL     1      -4.265 -10.104  -0.928  0.00  0.00    -0.096 C 
ATOM     27  C   UNL     1      -6.279  -9.995  -2.227  0.00  0.00    -0.096 C 
ATOM     28  H   UNL     1      -4.386 -10.184  -2.964  0.00  0.00    -0.082 HD
ENDBRANCH  19  25
ENDBRANCH  18  19
ENDBRANCH   4  18
TORSDOF 6
