REMARK  Name = ZINC11996481
REMARK  11 active torsions:
REMARK  status: ('A' for Active; 'I' for Inactive)
REMARK    1  A    between atoms: C_1  and  C_2
REMARK    2  A    between atoms: C_2  and  C_3
REMARK    3  A    between atoms: C_2  and  C_4
REMARK    4  A    between atoms: C_4  and  C_5
REMARK    5  A    between atoms: C_5  and  C_7
REMARK    6  A    between atoms: C_5  and  O_30
REMARK    7  A    between atoms: C_17  and  C_18
REMARK    8  A    between atoms: C_17  and  N_58
REMARK    9  A    between atoms: C_21  and  S_23
REMARK   10  A    between atoms: S_23  and  C_24
REMARK   11  A    between atoms: N_28  and  C_29
REMARK                            x       y       z     vdW  Elec       q    Type
REMARK                         _______ _______ _______ _____ _____    ______ ____
ROOT
ATOM      1  C   UNL     1      -0.789   2.923   3.224  0.00  0.00    -0.019 A 
ATOM      2  C   UNL     1      -2.039   2.417   3.530  0.00  0.00    +0.010 A 
ATOM      3  C   UNL     1      -2.643   1.499   2.692  0.00  0.00    +0.046 A 
ATOM      4  C   UNL     1      -1.990   1.085   1.540  0.00  0.00    +0.122 A 
ATOM      5  C   UNL     1      -0.729   1.578   1.252  0.00  0.00    -0.022 A 
ATOM      6  C   UNL     1      -0.132   2.501   2.081  0.00  0.00    +0.011 A 
ATOM      7  C   UNL     1      -0.013   1.086   0.008  0.00  0.00    -0.039 C 
ATOM      8  C   UNL     1      -1.844   0.713  -1.554  0.00  0.00    -0.036 C 
ATOM      9  C   UNL     1      -2.993   0.742  -0.569  0.00  0.00    +0.210 C 
ATOM     10  O   UNL     1      -2.589   0.203   0.696  0.00  0.00    -0.494 OA
ATOM     11  N   UNL     1      -0.736   1.614  -1.174  0.00  0.00    +0.389 N 
ATOM     12  H   UNL     1      -1.126   2.534  -0.937  0.00  0.00    -0.081 HD
ENDROOT
BRANCH   1  13
ATOM     13  C   UNL     1      -0.142   3.933   4.135  0.00  0.00    +0.145 C 
BRANCH  13  14
ATOM     14  O   UNL     1      -1.145   4.786   4.689  0.00  0.00    -0.387 OA
ATOM     15  H   UNL     1      -1.814   4.320   5.210  0.00  0.00    +0.210 HD
ENDBRANCH  13  14
BRANCH  13  16
ATOM     16  C   UNL     1       0.591   3.207   5.264  0.00  0.00    +0.039 C 
BRANCH  16  18
ATOM     17  C   UNL     1       1.980   3.515   7.318  0.00  0.00    +0.007 C 
ATOM     18  C   UNL     1       1.351   4.224   6.117  0.00  0.00    -0.014 C 
ATOM     19  C   UNL     1       2.450   4.876   5.276  0.00  0.00    +0.007 C 
ENDBRANCH  16  18
ENDBRANCH  13  16
ENDBRANCH   1  13
BRANCH  11  20
ATOM     20  C   UNL     1       0.193   1.768  -2.304  0.00  0.00    -0.003 C 
BRANCH  20  21
ATOM     21  C   UNL     1      -0.519   2.495  -3.415  0.00  0.00    +0.090 A 
ATOM     22  C   UNL     1      -0.578   3.830  -3.569  0.00  0.00    +0.044 A 
ATOM     23  C   UNL     1      -1.339   4.077  -4.734  0.00  0.00    +0.057 A 
ATOM     24  C   UNL     1      -1.710   2.870  -5.223  0.00  0.00    +0.169 A 
ATOM     25  O   UNL     1      -1.208   1.918  -4.417  0.00  0.00    -0.455 OA
BRANCH  24  26
ATOM     26  S   UNL     1      -2.682   2.595  -6.666  0.00  0.00    -0.012 S 
BRANCH  26  27
ATOM     27  C   UNL     1      -2.744   0.834  -6.662  0.00  0.00    +0.199 A 
ATOM     28  N   UNL     1      -2.186   0.035  -5.782  0.00  0.00    -0.122 NA
ATOM     29  N   UNL     1      -2.433  -1.189  -6.085  0.00  0.00    -0.137 NA
ATOM     30  C   UNL     1      -3.157  -1.244  -7.168  0.00  0.00    +0.225 A 
ATOM     31  N   UNL     1      -3.385   0.042  -7.571  0.00  0.00    -0.311 N 
ATOM     32  C   UNL     1      -4.155   0.479  -8.738  0.00  0.00    +0.152 C 
ENDBRANCH  26  27
ENDBRANCH  24  26
ENDBRANCH  20  21
ENDBRANCH  11  20
TORSDOF 8
