REMARK  Name = ZINC39657796
REMARK  10 active torsions:
REMARK  status: ('A' for Active; 'I' for Inactive)
REMARK    1  A    between atoms: C_1  and  C_2
REMARK    2  A    between atoms: C_4  and  C_8
REMARK    3  A    between atoms: N_6  and  C_7
REMARK    4  A    between atoms: C_12  and  C_21
REMARK    5  A    between atoms: N_23  and  C_24
REMARK    6  A    between atoms: C_24  and  C_25
REMARK    7  A    between atoms: C_30  and  S_31
REMARK    8  A    between atoms: S_31  and  C_32
REMARK    9  A    between atoms: C_37  and  C_38
REMARK   10  A    between atoms: C_38  and  O_39
REMARK                            x       y       z     vdW  Elec       q    Type
REMARK                         _______ _______ _______ _____ _____    ______ ____
ROOT
ATOM      1  C   UNL     1      -0.345  -2.865  -1.325  0.00  0.00    +0.267 C 
ATOM      2  O   UNL     1      -0.339  -2.811  -2.539  0.00  0.00    -0.268 OA
ATOM      3  N   UNL     1      -0.258  -4.057  -0.702  0.00  0.00    -0.295 N 
ATOM      4  C   UNL     1      -0.156  -4.316   0.753  0.00  0.00    +0.121 C 
ATOM      5  C   UNL     1      -1.040  -5.561   0.991  0.00  0.00    +0.100 C 
ATOM      6  C   UNL     1      -1.091  -6.272  -0.372  0.00  0.00    -0.004 C 
ATOM      7  C   UNL     1      -0.248  -5.405  -1.318  0.00  0.00    +0.115 C 
ATOM      8  C   UNL     1      -2.529  -6.347  -0.875  0.00  0.00    -0.010 C 
ATOM      9  C   UNL     1      -2.561  -7.108  -2.204  0.00  0.00    -0.082 C 
ATOM     10  N   UNL     1      -2.018  -8.458  -2.009  0.00  0.00    +0.379 N 
ATOM     11  C   UNL     1      -0.607  -8.379  -1.614  0.00  0.00    -0.082 C 
ATOM     12  C   UNL     1      -0.493  -7.671  -0.261  0.00  0.00    -0.010 C 
ATOM     13  H   UNL     1      -2.542  -8.929  -1.286  0.00  0.00    -0.086 HD
ATOM     14  H   UNL     1      -2.096  -8.978  -2.870  0.00  0.00    -0.086 HD
ENDROOT
BRANCH   1  18
ATOM     15  C   UNL     1      -0.875   1.984   0.051  0.00  0.00    +0.065 C 
ATOM     16  C   UNL     1      -0.681   0.490   0.052  0.00  0.00    +0.037 A 
ATOM     17  C   UNL     1      -0.655  -0.317  -1.035  0.00  0.00    +0.057 A 
ATOM     18  C   UNL     1      -0.448  -1.623  -0.531  0.00  0.00    +0.147 A 
ATOM     19  N   UNL     1      -0.365  -1.521   0.780  0.00  0.00    -0.167 NA
ATOM     20  N   UNL     1      -0.494  -0.293   1.136  0.00  0.00    -0.271 N 
ATOM     21  C   UNL     1      -0.449   0.188   2.519  0.00  0.00    +0.172 C 
ENDBRANCH   1  18
BRANCH   5  22
ATOM     22  C   UNL     1      -2.424  -5.147   1.421  0.00  0.00    +0.218 C 
ATOM     23  O   UNL     1      -2.917  -4.130   0.981  0.00  0.00    -0.275 OA
ATOM     24  N   UNL     1      -3.114  -5.907   2.295  0.00  0.00    -0.311 N 
ATOM     25  H   UNL     1      -2.693  -6.680   2.702  0.00  0.00    +0.149 HD
BRANCH  24  26
ATOM     26  C   UNL     1      -4.499  -5.565   2.629  0.00  0.00    +0.140 C 
BRANCH  26  27
ATOM     27  C   UNL     1      -4.998  -6.490   3.709  0.00  0.00    -0.017 A 
ATOM     28  C   UNL     1      -5.825  -7.548   3.385  0.00  0.00    +0.006 A 
ATOM     29  C   UNL     1      -6.284  -8.397   4.375  0.00  0.00    +0.000 A 
ATOM     30  C   UNL     1      -5.916  -8.191   5.693  0.00  0.00    +0.001 A 
ATOM     31  C   UNL     1      -5.090  -7.136   6.024  0.00  0.00    +0.015 A 
ATOM     32  C   UNL     1      -4.622  -6.284   5.030  0.00  0.00    +0.017 A 
BRANCH  32  33
ATOM     33  S   UNL     1      -3.561  -4.940   5.447  0.00  0.00    -0.089 S 
BRANCH  33  34
ATOM     34  C   UNL     1      -4.614  -3.529   5.381  0.00  0.00    +0.018 A 
ATOM     35  C   UNL     1      -5.978  -3.687   5.165  0.00  0.00    +0.015 A 
ATOM     36  C   UNL     1      -6.800  -2.579   5.114  0.00  0.00    +0.001 A 
ATOM     37  C   UNL     1      -6.268  -1.313   5.276  0.00  0.00    +0.000 A 
ATOM     38  C   UNL     1      -4.911  -1.151   5.490  0.00  0.00    +0.007 A 
ATOM     39  C   UNL     1      -4.084  -2.256   5.549  0.00  0.00    -0.008 A 
BRANCH  39  40
ATOM     40  C   UNL     1      -2.607  -2.079   5.789  0.00  0.00    +0.192 C 
BRANCH  40  41
ATOM     41  O   UNL     1      -2.326  -0.701   6.041  0.00  0.00    -0.390 OA
ATOM     42  H   UNL     1      -1.406  -0.524   6.280  0.00  0.00    +0.210 HD
ENDBRANCH  40  41
ENDBRANCH  39  40
ENDBRANCH  33  34
ENDBRANCH  32  33
ENDBRANCH  26  27
ENDBRANCH  24  26
ENDBRANCH   5  22
TORSDOF 8
