REMARK  Name = ZINC08749756
REMARK  5 active torsions:
REMARK  status: ('A' for Active; 'I' for Inactive)
REMARK    1  A    between atoms: C_3  and  C_6
REMARK    2  A    between atoms: C_11  and  C_14
REMARK    3  A    between atoms: N_16  and  C_17
REMARK    4  A    between atoms: C_17  and  C_18
REMARK    5  A    between atoms: C_18  and  N_62
REMARK                            x       y       z     vdW  Elec       q    Type
REMARK                         _______ _______ _______ _____ _____    ______ ____
ROOT
ATOM      1  C   UNL     1      -0.082   3.766   0.029  0.00  0.00    +0.216 C 
ATOM      2  O   UNL     1      -1.185   4.088  -0.358  0.00  0.00    -0.276 OA
ATOM      3  N   UNL     1       0.822   4.712   0.351  0.00  0.00    -0.316 N 
ATOM      4  H   UNL     1       1.704   4.454   0.661  0.00  0.00    +0.149 HD
ENDROOT
BRANCH   1  10
ATOM      5  C   UNL     1      -0.582  -1.304   1.907  0.00  0.00    +0.282 C 
ATOM      6  O   UNL     1      -1.559  -1.904   1.497  0.00  0.00    -0.267 OA
ATOM      7  N   UNL     1      -0.045  -0.309   1.173  0.00  0.00    -0.295 N 
ATOM      8  C   UNL     1      -0.537  -0.030  -0.183  0.00  0.00    +0.109 C 
ATOM      9  C   UNL     1      -0.918   1.451  -0.274  0.00  0.00    +0.032 C 
ATOM     10  C   UNL     1       0.278   2.308   0.150  0.00  0.00    +0.078 C 
ATOM     11  C   UNL     1       0.644   1.992   1.602  0.00  0.00    +0.032 C 
ATOM     12  C   UNL     1       1.042   0.517   1.714  0.00  0.00    +0.109 C 
BRANCH   5  15
ATOM     13  C   UNL     1       0.382  -2.588   5.186  0.00  0.00    +0.042 A 
ATOM     14  C   UNL     1      -0.507  -2.551   4.100  0.00  0.00    +0.054 A 
ATOM     15  C   UNL     1       0.011  -1.665   3.199  0.00  0.00    +0.189 A 
ATOM     16  O   UNL     1       1.166  -1.183   3.703  0.00  0.00    -0.458 OA
ATOM     17  C   UNL     1       1.390  -1.733   4.903  0.00  0.00    +0.196 A 
ENDBRANCH   5  15
ENDBRANCH   1  10
BRANCH   3  18
ATOM     18  C   UNL     1       0.472   6.130   0.233  0.00  0.00    +0.092 C 
BRANCH  18  19
ATOM     19  C   UNL     1       1.738   6.980   0.362  0.00  0.00    -0.049 C 
ATOM     20  C   UNL     1       2.479   6.600   1.646  0.00  0.00    -0.010 C 
ATOM     21  C   UNL     1       1.571   6.851   2.852  0.00  0.00    -0.001 C 
ATOM     22  C   UNL     1       1.188   8.332   2.903  0.00  0.00    -0.000 C 
ATOM     23  C   UNL     1       0.448   8.711   1.619  0.00  0.00    -0.001 C 
ATOM     24  C   UNL     1       1.355   8.460   0.413  0.00  0.00    -0.010 C 
BRANCH  19  30
ATOM     25  C   UNL     1       1.908   7.032  -2.053  0.00  0.00    -0.049 C 
ATOM     26  C   UNL     1       2.869   6.826  -3.228  0.00  0.00    +0.141 C 
ATOM     27  O   UNL     1       3.378   5.490  -3.191  0.00  0.00    -0.383 OA
ATOM     28  C   UNL     1       4.068   5.170  -1.980  0.00  0.00    +0.141 C 
ATOM     29  C   UNL     1       3.120   5.360  -0.793  0.00  0.00    -0.049 C 
ATOM     30  N   UNL     1       2.632   6.755  -0.795  0.00  0.00    +0.387 N 
ATOM     31  H   UNL     1       3.435   7.390  -0.724  0.00  0.00    -0.081 HD
ENDBRANCH  19  30
ENDBRANCH  18  19
ENDBRANCH   3  18
TORSDOF 5
