REMARK  Name = ZINC13256021
REMARK  12 active torsions:
REMARK  status: ('A' for Active; 'I' for Inactive)
REMARK    1  A    between atoms: C_1  and  C_2
REMARK    2  A    between atoms: C_2  and  N_3
REMARK    3  A    between atoms: N_3  and  C_4
REMARK    4  A    between atoms: N_3  and  S_6
REMARK    5  A    between atoms: C_4  and  C_5
REMARK    6  A    between atoms: S_6  and  C_9
REMARK    7  A    between atoms: C_12  and  O_18
REMARK    8  A    between atoms: C_13  and  N_15
REMARK    9  A    between atoms: O_18  and  C_19
REMARK   10  A    between atoms: C_19  and  C_20
REMARK   11  A    between atoms: C_28  and  C_34
REMARK   12  A    between atoms: C_29  and  C_31
REMARK                            x       y       z     vdW  Elec       q    Type
REMARK                         _______ _______ _______ _____ _____    ______ ____
ROOT
ATOM      1  C   UNL     1      -2.263   1.361   1.081  0.00  0.00    +0.108 A 
ATOM      2  C   UNL     1      -1.805   1.937   2.252  0.00  0.00    +0.032 A 
ATOM      3  C   UNL     1      -2.485   3.002   2.811  0.00  0.00    +0.050 A 
ATOM      4  C   UNL     1      -3.627   3.494   2.196  0.00  0.00    +0.151 A 
ATOM      5  C   UNL     1      -4.084   2.914   1.021  0.00  0.00    +0.169 A 
ATOM      6  C   UNL     1      -3.398   1.853   0.464  0.00  0.00    +0.065 A 
ENDROOT
BRANCH   1   7
ATOM      7  S   UNL     1      -1.393   0.003   0.370  0.00  0.00    +0.061 S 
ATOM      8  O   UNL     1      -2.329  -0.702  -0.433  0.00  0.00    -0.153 OA
ATOM      9  O   UNL     1      -0.676  -0.618   1.428  0.00  0.00    -0.153 OA
BRANCH   7  10
ATOM     10  N   UNL     1      -0.262   0.632  -0.662  0.00  0.00    -0.177 NA
BRANCH  10  12
ATOM     11  C   UNL     1       1.142   2.433   0.215  0.00  0.00    +0.022 C 
ATOM     12  C   UNL     1       1.080   0.954  -0.171  0.00  0.00    +0.106 C 
ENDBRANCH  10  12
BRANCH  10  13
ATOM     13  C   UNL     1      -0.603   0.868  -2.067  0.00  0.00    +0.106 C 
ATOM     14  C   UNL     1      -0.168  -0.335  -2.906  0.00  0.00    +0.022 C 
ENDBRANCH  10  13
ENDBRANCH   7  10
ENDBRANCH   1   7
BRANCH   5  15
ATOM     15  N   UNL     1      -5.303   3.436   0.363  0.00  0.00    +0.060 N 
ATOM     16  O   UNL     1      -5.701   2.930  -0.661  0.00  0.00    -0.126 OA
ATOM     17  O   UNL     1      -5.901   4.367   0.850  0.00  0.00    -0.126 OA
ENDBRANCH   5  15
BRANCH   4  18
ATOM     18  O   UNL     1      -4.298   4.541   2.744  0.00  0.00    -0.485 OA
BRANCH  18  19
ATOM     19  C   UNL     1      -3.771   5.087   3.954  0.00  0.00    +0.265 C 
BRANCH  19  20
ATOM     20  C   UNL     1      -4.639   6.231   4.410  0.00  0.00    +0.005 A 
ATOM     21  C   UNL     1      -5.790   6.509   3.755  0.00  0.00    +0.077 A 
ATOM     22  C   UNL     1      -6.613   7.573   4.166  0.00  0.00    +0.250 A 
ATOM     23  O   UNL     1      -7.647   7.812   3.565  0.00  0.00    -0.268 OA
ATOM     24  N   UNL     1      -6.258   8.328   5.225  0.00  0.00    -0.317 N 
ATOM     25  H   UNL     1      -6.827   9.060   5.506  0.00  0.00    +0.169 HD
ATOM     26  C   UNL     1      -5.108   8.071   5.901  0.00  0.00    +0.089 A 
ATOM     27  C   UNL     1      -4.250   7.020   5.540  0.00  0.00    +0.016 A 
ATOM     28  C   UNL     1      -3.103   6.872   6.335  0.00  0.00    -0.020 A 
ATOM     29  C   UNL     1      -2.943   7.751   7.368  0.00  0.00    +0.106 A 
ATOM     30  S   UNL     1      -4.383   8.790   7.226  0.00  0.00    -0.064 S 
ATOM     31  C   UNL     1      -2.091   5.790   6.061  0.00  0.00    +0.046 C 
BRANCH  29  32
ATOM     32  C   UNL     1      -1.888   7.824   8.313  0.00  0.00    +0.393 C 
ATOM     33  O   UNL     1      -0.962   7.025   8.259  0.00  0.00    -0.240 OA
ATOM     34  O   UNL     1      -1.904   8.686   9.184  0.00  0.00    -0.240 OA
ENDBRANCH  29  32
ENDBRANCH  19  20
ENDBRANCH  18  19
ENDBRANCH   4  18
TORSDOF 9
