REMARK  Name = ZINC03344393
REMARK  12 active torsions:
REMARK  status: ('A' for Active; 'I' for Inactive)
REMARK    1  A    between atoms: C_1  and  C_2
REMARK    2  A    between atoms: C_5  and  C_8
REMARK    3  A    between atoms: C_8  and  N_9
REMARK    4  A    between atoms: C_10  and  C_12
REMARK    5  A    between atoms: C_12  and  S_13
REMARK    6  A    between atoms: S_13  and  C_14
REMARK    7  A    between atoms: C_17  and  C_20
REMARK    8  A    between atoms: N_18  and  N_19
REMARK    9  A    between atoms: C_23  and  C_26
REMARK   10  A    between atoms: C_26  and  C_27
REMARK   11  A    between atoms: C_26  and  C_28
REMARK   12  A    between atoms: C_26  and  C_29
REMARK                            x       y       z     vdW  Elec       q    Type
REMARK                         _______ _______ _______ _____ _____    ______ ____
ROOT
ATOM      1  C   UNL     1      -1.167   2.073  -6.287  0.00  0.00    +0.209 A 
ATOM      2  N   UNL     1      -2.260   2.801  -6.224  0.00  0.00    -0.121 NA
ATOM      3  N   UNL     1      -2.788   2.907  -7.391  0.00  0.00    -0.127 NA
ATOM      4  C   UNL     1      -2.069   2.246  -8.269  0.00  0.00    +0.182 A 
ATOM      5  N   UNL     1      -1.010   1.692  -7.589  0.00  0.00    -0.224 N 
ENDROOT
BRANCH   4   6
ATOM      6  C   UNL     1      -2.347   2.120  -9.716  0.00  0.00    +0.021 A 
ATOM      7  C   UNL     1      -3.236   2.998 -10.338  0.00  0.00    +0.012 A 
ATOM      8  C   UNL     1      -3.487   2.879 -11.689  0.00  0.00    +0.005 A 
ATOM      9  C   UNL     1      -2.868   1.884 -12.425  0.00  0.00    -0.042 A 
ATOM     10  C   UNL     1      -1.991   1.007 -11.814  0.00  0.00    +0.005 A 
ATOM     11  C   UNL     1      -1.726   1.119 -10.464  0.00  0.00    +0.012 A 
BRANCH   9  12
ATOM     12  C   UNL     1      -3.152   1.755 -13.900  0.00  0.00    -0.013 C 
ATOM     13  C   UNL     1      -3.747   0.375 -14.186  0.00  0.00    +0.015 C 
ATOM     14  C   UNL     1      -4.147   2.837 -14.324  0.00  0.00    +0.015 C 
ATOM     15  C   UNL     1      -1.851   1.923 -14.686  0.00  0.00    +0.015 C 
ENDBRANCH   9  12
ENDBRANCH   4   6
BRANCH   5  16
ATOM     16  N   UNL     1      -0.008   0.921  -8.108  0.00  0.00    -0.295 N 
ATOM     17  H   UNL     1      -0.288  -0.046  -8.165  0.00  0.00    +0.163 HD
ATOM     18  H   UNL     1       0.284   1.267  -9.010  0.00  0.00    +0.163 HD
ENDBRANCH   5  16
BRANCH   1  19
ATOM     19  S   UNL     1      -0.107   1.661  -4.942  0.00  0.00    -0.075 S 
BRANCH  19  20
ATOM     20  C   UNL     1      -0.964   2.514  -3.594  0.00  0.00    +0.173 C 
BRANCH  20  22
ATOM     21  N   UNL     1      -0.671   2.840  -1.160  0.00  0.00    -0.311 N 
ATOM     22  C   UNL     1      -0.215   2.295  -2.305  0.00  0.00    +0.224 C 
ATOM     23  O   UNL     1       0.798   1.628  -2.298  0.00  0.00    -0.275 OA
ATOM     24  H   UNL     1      -1.481   3.373  -1.165  0.00  0.00    +0.149 HD
BRANCH  21  25
ATOM     25  C   UNL     1       0.057   2.627   0.094  0.00  0.00    +0.139 C 
BRANCH  25  30
ATOM     26  C   UNL     1      -2.677   5.348   4.396  0.00  0.00    +0.044 C 
ATOM     27  C   UNL     1      -1.964   4.638   3.274  0.00  0.00    -0.050 A 
ATOM     28  C   UNL     1      -2.286   3.329   2.969  0.00  0.00    +0.003 A 
ATOM     29  C   UNL     1      -1.632   2.678   1.940  0.00  0.00    +0.005 A 
ATOM     30  C   UNL     1      -0.656   3.337   1.216  0.00  0.00    -0.030 A 
ATOM     31  C   UNL     1      -0.330   4.644   1.524  0.00  0.00    +0.005 A 
ATOM     32  C   UNL     1      -0.988   5.297   2.550  0.00  0.00    +0.003 A 
ENDBRANCH  25  30
ENDBRANCH  21  25
ENDBRANCH  20  22
ENDBRANCH  19  20
ENDBRANCH   1  19
TORSDOF 8
