REMARK  Name = ZINC13463550
REMARK  13 active torsions:
REMARK  status: ('A' for Active; 'I' for Inactive)
REMARK    1  A    between atoms: C_1  and  C_2
REMARK    2  A    between atoms: C_2  and  N_3
REMARK    3  A    between atoms: N_3  and  C_4
REMARK    4  A    between atoms: N_3  and  S_6
REMARK    5  A    between atoms: C_4  and  C_5
REMARK    6  A    between atoms: S_6  and  C_9
REMARK    7  A    between atoms: C_12  and  S_15
REMARK    8  A    between atoms: S_15  and  O_18
REMARK    9  A    between atoms: O_18  and  C_19
REMARK   10  A    between atoms: C_24  and  N_25
REMARK   11  A    between atoms: C_26  and  C_28
REMARK   12  A    between atoms: C_28  and  C_29
REMARK   13  A    between atoms: C_29  and  C_30
REMARK                            x       y       z     vdW  Elec       q    Type
REMARK                         _______ _______ _______ _____ _____    ______ ____
ROOT
ATOM      1  S   UNL     1      -3.456   3.904  -1.541  0.00  0.00    +0.151 S 
ATOM      2  O   UNL     1      -3.225   5.293  -1.349  0.00  0.00    -0.131 OA
ATOM      3  O   UNL     1      -2.566   3.080  -2.281  0.00  0.00    -0.131 OA
ENDROOT
BRANCH   1   7
ATOM      4  C   UNL     1      -7.511   3.528  -3.517  0.00  0.00    +0.106 A 
ATOM      5  C   UNL     1      -7.209   4.649  -2.767  0.00  0.00    +0.030 A 
ATOM      6  C   UNL     1      -5.971   4.764  -2.164  0.00  0.00    +0.032 A 
ATOM      7  C   UNL     1      -5.034   3.758  -2.310  0.00  0.00    +0.128 A 
ATOM      8  C   UNL     1      -5.334   2.639  -3.064  0.00  0.00    +0.032 A 
ATOM      9  C   UNL     1      -6.574   2.522  -3.664  0.00  0.00    +0.030 A 
BRANCH   4  10
ATOM     10  S   UNL     1      -9.090   3.381  -4.285  0.00  0.00    +0.061 S 
ATOM     11  O   UNL     1      -9.320   1.992  -4.478  0.00  0.00    -0.153 OA
ATOM     12  O   UNL     1      -9.980   4.204  -3.545  0.00  0.00    -0.153 OA
BRANCH  10  13
ATOM     13  N   UNL     1      -8.966   4.053  -5.793  0.00  0.00    -0.177 NA
BRANCH  13  15
ATOM     14  C   UNL     1      -9.828   2.729  -7.659  0.00  0.00    +0.022 C 
ATOM     15  C   UNL     1      -8.575   3.224  -6.935  0.00  0.00    +0.106 C 
ENDBRANCH  13  15
BRANCH  13  16
ATOM     16  C   UNL     1      -9.247   5.478  -5.984  0.00  0.00    +0.106 C 
ATOM     17  C   UNL     1      -7.939   6.269  -5.923  0.00  0.00    +0.022 C 
ENDBRANCH  13  16
ENDBRANCH  10  13
ENDBRANCH   4  10
ENDBRANCH   1   7
BRANCH   1  18
ATOM     18  O   UNL     1      -3.571   3.287  -0.155  0.00  0.00    -0.340 OA
BRANCH  18  19
ATOM     19  C   UNL     1      -3.604   1.927  -0.156  0.00  0.00    +0.178 A 
ATOM     20  C   UNL     1      -4.817   1.262  -0.243  0.00  0.00    +0.050 A 
ATOM     21  C   UNL     1      -4.849  -0.120  -0.244  0.00  0.00    +0.004 A 
ATOM     22  C   UNL     1      -3.674  -0.843  -0.159  0.00  0.00    +0.002 A 
ATOM     23  C   UNL     1      -2.460  -0.187  -0.077  0.00  0.00    +0.027 A 
ATOM     24  C   UNL     1      -2.420   1.200  -0.070  0.00  0.00    +0.078 A 
BRANCH  24  25
ATOM     25  N   UNL     1      -1.191   1.867   0.018  0.00  0.00    -0.282 N 
ATOM     26  C   UNL     1      -0.097   1.345  -0.572  0.00  0.00    +0.218 C 
ATOM     27  O   UNL     1      -0.158   0.259  -1.110  0.00  0.00    -0.275 OA
ATOM     28  H   UNL     1      -1.127   2.704   0.503  0.00  0.00    +0.155 HD
BRANCH  26  29
ATOM     29  C   UNL     1       1.200   2.112  -0.569  0.00  0.00    +0.107 C 
BRANCH  29  30
ATOM     30  C   UNL     1       2.272   1.306  -1.304  0.00  0.00    +0.134 C 
BRANCH  30  31
ATOM     31  C   UNL     1       3.569   2.074  -1.301  0.00  0.00    +0.356 C 
ATOM     32  O   UNL     1       3.629   3.155  -0.765  0.00  0.00    -0.246 OA
ATOM     33  O   UNL     1       4.657   1.556  -1.893  0.00  0.00    -0.246 OA
ENDBRANCH  30  31
ENDBRANCH  29  30
ENDBRANCH  26  29
ENDBRANCH  24  25
ENDBRANCH  18  19
ENDBRANCH   1  18
TORSDOF 11
