REMARK  Name = ZINC64703802
REMARK  14 active torsions:
REMARK  status: ('A' for Active; 'I' for Inactive)
REMARK    1  A    between atoms: C_1  and  C_2
REMARK    2  A    between atoms: C_2  and  C_3
REMARK    3  A    between atoms: C_6  and  C_9
REMARK    4  A    between atoms: C_10  and  N_30
REMARK    5  A    between atoms: N_17  and  C_18
REMARK    6  A    between atoms: N_17  and  C_19
REMARK    7  A    between atoms: C_19  and  C_20
REMARK    8  A    between atoms: N_22  and  C_23
REMARK    9  A    between atoms: N_22  and  C_24
REMARK   10  A    between atoms: C_24  and  C_25
REMARK   11  A    between atoms: N_30  and  C_31
REMARK   12  A    between atoms: C_31  and  C_32
REMARK   13  A    between atoms: C_31  and  C_33
REMARK   14  A    between atoms: C_31  and  C_34
REMARK                            x       y       z     vdW  Elec       q    Type
REMARK                         _______ _______ _______ _____ _____    ______ ____
ROOT
ATOM      1  C   UNL     1       3.009  -2.190   4.925  0.00  0.00    +0.114 A 
ATOM      2  C   UNL     1       2.658  -1.694   6.145  0.00  0.00    +0.150 A 
ATOM      3  N   UNL     1       3.661  -2.035   7.040  0.00  0.00    -0.190 N 
ATOM      4  C   UNL     1       4.583  -2.733   6.301  0.00  0.00    +0.199 A 
ATOM      5  N   UNL     1       4.200  -2.829   5.063  0.00  0.00    -0.218 NA
ATOM      6  S   UNL     1       5.823  -3.130   7.511  0.00  0.00    -0.013 S 
ATOM      7  C   UNL     1       5.044  -2.348   8.915  0.00  0.00    +0.184 A 
ATOM      8  N   UNL     1       3.951  -1.866   8.390  0.00  0.00    -0.140 NA
ATOM      9  N   UNL     1       5.486  -2.274  10.226  0.00  0.00    -0.302 N 
ATOM     10  C   UNL     1       4.681  -1.577  11.232  0.00  0.00    +0.132 C 
ENDROOT
BRANCH   1  14
ATOM     11  C   UNL     1       0.767  -1.822   1.333  0.00  0.00    -0.048 A 
ATOM     12  C   UNL     1       2.150  -1.806   1.287  0.00  0.00    +0.004 A 
ATOM     13  C   UNL     1       2.883  -1.924   2.449  0.00  0.00    +0.010 A 
ATOM     14  C   UNL     1       2.228  -2.062   3.673  0.00  0.00    +0.004 A 
ATOM     15  C   UNL     1       0.833  -2.078   3.713  0.00  0.00    +0.010 A 
ATOM     16  C   UNL     1       0.111  -1.953   2.544  0.00  0.00    +0.004 A 
BRANCH  11  18
ATOM     17  C   UNL     1      -0.303  -0.213  -0.221  0.00  0.00    +0.009 C 
ATOM     18  C   UNL     1      -0.028  -1.692   0.059  0.00  0.00    +0.032 C 
ENDBRANCH  11  18
ENDBRANCH   1  14
BRANCH   2  19
ATOM     19  N   UNL     1       1.498  -0.972   6.440  0.00  0.00    -0.323 N 
ATOM     20  H   UNL     1       0.896  -0.709   5.727  0.00  0.00    +0.148 HD
BRANCH  19  21
ATOM     21  C   UNL     1       1.193  -0.613   7.827  0.00  0.00    +0.025 C 
ATOM     22  C   UNL     1       2.263   0.346   8.353  0.00  0.00    +0.031 C 
ATOM     23  C   UNL     1      -0.176   0.069   7.887  0.00  0.00    +0.031 C 
ATOM     24  C   UNL     1       1.172  -1.877   8.688  0.00  0.00    +0.031 C 
ENDBRANCH  19  21
ENDBRANCH   2  19
BRANCH   9  25
ATOM     25  C   UNL     1       6.758  -2.893  10.606  0.00  0.00    +0.202 C 
BRANCH  25  26
ATOM     26  C   UNL     1       7.873  -1.894  10.440  0.00  0.00    +0.233 C 
ATOM     27  O   UNL     1       7.629  -0.774  10.042  0.00  0.00    -0.274 OA
ATOM     28  N   UNL     1       9.141  -2.244  10.732  0.00  0.00    -0.296 N 
ATOM     29  C   UNL     1       9.436  -3.596  11.212  0.00  0.00    +0.132 C 
BRANCH  28  30
ATOM     30  C   UNL     1      10.225  -1.272  10.570  0.00  0.00    +0.181 C 
BRANCH  30  31
ATOM     31  C   UNL     1      10.408  -0.504  11.854  0.00  0.00    +0.122 A 
ATOM     32  C   UNL     1      11.227  -0.845  12.865  0.00  0.00    +0.046 A 
ATOM     33  C   UNL     1      11.084   0.148  13.860  0.00  0.00    +0.041 A 
ATOM     34  C   UNL     1      10.187   1.037  13.398  0.00  0.00    +0.195 A 
ATOM     35  O   UNL     1       9.785   0.640  12.180  0.00  0.00    -0.466 OA
ENDBRANCH  30  31
ENDBRANCH  28  30
ENDBRANCH  25  26
ENDBRANCH   9  25
TORSDOF 8
