REMARK  Name = ZINC36346078
REMARK  17 active torsions:
REMARK  status: ('A' for Active; 'I' for Inactive)
REMARK    1  A    between atoms: C_1  and  C_2
REMARK    2  A    between atoms: C_2  and  C_3
REMARK    3  A    between atoms: C_3  and  C_4
REMARK    4  A    between atoms: C_4  and  O_5
REMARK    5  A    between atoms: O_5  and  C_6
REMARK    6  A    between atoms: C_6  and  C_7
REMARK    7  A    between atoms: C_7  and  C_9
REMARK    8  A    between atoms: C_7  and  O_36
REMARK    9  A    between atoms: C_9  and  N_10
REMARK   10  A    between atoms: N_10  and  C_11
REMARK   11  A    between atoms: N_10  and  C_32
REMARK   12  A    between atoms: C_11  and  C_12
REMARK   13  A    between atoms: C_13  and  C_31
REMARK   14  A    between atoms: N_15  and  C_25
REMARK   15  A    between atoms: C_16  and  O_17
REMARK   16  A    between atoms: O_17  and  C_18
REMARK   17  A    between atoms: C_32  and  C_33
REMARK                            x       y       z     vdW  Elec       q    Type
REMARK                         _______ _______ _______ _____ _____    ______ ____
ROOT
ATOM      1  C   UNL     1       4.295  -7.830  -6.901  0.00  0.00    +0.021 A 
ATOM      2  C   UNL     1       4.035  -8.008  -8.263  0.00  0.00    +0.065 A 
ATOM      3  N   UNL     1       5.168  -7.939  -8.914  0.00  0.00    -0.168 NA
ATOM      4  N   UNL     1       6.196  -7.715  -7.989  0.00  0.00    -0.200 N 
ATOM      5  C   UNL     1       5.634  -7.646  -6.752  0.00  0.00    +0.225 A 
ATOM      6  C   UNL     1       2.678  -8.239  -8.878  0.00  0.00    +0.068 C 
ENDROOT
BRANCH   4   7
ATOM      7  C   UNL     1       7.559  -7.581  -8.286  0.00  0.00    +0.069 A 
ATOM      8  C   UNL     1       8.337  -6.668  -7.586  0.00  0.00    +0.028 A 
ATOM      9  C   UNL     1       9.680  -6.539  -7.880  0.00  0.00    +0.002 A 
ATOM     10  C   UNL     1      10.250  -7.316  -8.871  0.00  0.00    +0.000 A 
ATOM     11  C   UNL     1       9.478  -8.226  -9.570  0.00  0.00    +0.002 A 
ATOM     12  C   UNL     1       8.136  -8.365  -9.276  0.00  0.00    +0.028 A 
ENDBRANCH   4   7
BRANCH   1  13
ATOM     13  C   UNL     1       3.272  -7.836  -5.795  0.00  0.00    -0.036 C 
BRANCH  13  14
ATOM     14  N   UNL     1       2.768  -6.472  -5.587  0.00  0.00    +0.384 N 
ATOM     15  H   UNL     1       3.540  -5.856  -5.379  0.00  0.00    -0.081 HD
BRANCH  14  16
ATOM     16  C   UNL     1       1.821  -6.465  -4.464  0.00  0.00    -0.044 C 
BRANCH  16  17
ATOM     17  C   UNL     1       2.570  -6.759  -3.163  0.00  0.00    +0.124 C 
BRANCH  17  18
ATOM     18  O   UNL     1       3.037  -8.110  -3.177  0.00  0.00    -0.391 OA
ATOM     19  H   UNL     1       2.334  -8.768  -3.256  0.00  0.00    +0.210 HD
ENDBRANCH  17  18
BRANCH  17  20
ATOM     20  C   UNL     1       1.627  -6.558  -1.975  0.00  0.00    +0.189 C 
BRANCH  20  21
ATOM     21  O   UNL     1       2.356  -6.718  -0.756  0.00  0.00    -0.377 OA
BRANCH  21  22
ATOM     22  C   UNL     1       1.563  -6.550   0.421  0.00  0.00    +0.160 C 
BRANCH  22  23
ATOM     23  C   UNL     1       2.442  -6.743   1.659  0.00  0.00    +0.028 C 
BRANCH  23  25
ATOM     24  C   UNL     1       2.472  -6.755   4.157  0.00  0.00    +0.004 C 
ATOM     25  C   UNL     1       1.593  -6.562   2.920  0.00  0.00    -0.001 C 
ENDBRANCH  23  25
ENDBRANCH  22  23
ENDBRANCH  21  22
ENDBRANCH  20  21
ENDBRANCH  17  20
ENDBRANCH  16  17
ENDBRANCH  14  16
BRANCH  14  26
ATOM     26  C   UNL     1       2.088  -6.010  -6.804  0.00  0.00    -0.075 C 
BRANCH  26  27
ATOM     27  C   UNL     1       1.664  -4.550  -6.629  0.00  0.00    -0.028 C 
ATOM     28  C   UNL     1       0.165  -4.247  -6.612  0.00  0.00    +0.002 C 
ATOM     29  C   UNL     1       1.011  -3.856  -7.825  0.00  0.00    +0.002 C 
ENDBRANCH  26  27
ENDBRANCH  14  26
ENDBRANCH  13  14
ENDBRANCH   1  13
BRANCH   5  30
ATOM     30  O   UNL     1       6.290  -7.435  -5.583  0.00  0.00    -0.435 OA
BRANCH  30  31
ATOM     31  C   UNL     1       6.831  -8.510  -4.951  0.00  0.00    +0.165 A 
ATOM     32  C   UNL     1       6.797  -9.759  -5.553  0.00  0.00    +0.049 A 
ATOM     33  C   UNL     1       7.348 -10.850  -4.910  0.00  0.00    +0.004 A 
ATOM     34  C   UNL     1       7.933 -10.699  -3.666  0.00  0.00    +0.003 A 
ATOM     35  C   UNL     1       7.969  -9.456  -3.062  0.00  0.00    +0.042 A 
ATOM     36  C   UNL     1       7.424  -8.359  -3.704  0.00  0.00    +0.165 A 
ATOM     37  F   UNL     1       7.463  -7.143  -3.116  0.00  0.00    -0.202 F 
ENDBRANCH  30  31
ENDBRANCH   5  30
TORSDOF 15
