REMARK  Name = ZINC13064958
REMARK  14 active torsions:
REMARK  status: ('A' for Active; 'I' for Inactive)
REMARK    1  A    between atoms: C_1  and  C_2
REMARK    2  A    between atoms: C_2  and  C_3
REMARK    3  A    between atoms: C_3  and  C_5
REMARK    4  A    between atoms: C_3  and  N_70
REMARK    5  A    between atoms: N_9  and  C_10
REMARK    6  A    between atoms: C_10  and  C_11
REMARK    7  A    between atoms: C_16  and  C_17
REMARK    8  A    between atoms: C_16  and  N_70
REMARK    9  A    between atoms: C_20  and  O_23
REMARK   10  A    between atoms: O_23  and  C_24
REMARK   11  A    between atoms: C_25  and  C_26
REMARK   12  A    between atoms: C_25  and  N_70
REMARK   13  A    between atoms: C_29  and  C_39
REMARK   14  A    between atoms: C_31  and  C_38
REMARK                            x       y       z     vdW  Elec       q    Type
REMARK                         _______ _______ _______ _____ _____    ______ ____
ROOT
ATOM      1  N   UNL     1       4.768   4.141  -1.534  0.00  0.00    +0.392 N 
ATOM      2  H   UNL     1       4.215   5.002  -1.614  0.00  0.00    -0.080 HD
ENDROOT
BRANCH   1   3
ATOM      3  C   UNL     1       4.469   3.269  -2.689  0.00  0.00    +0.003 C 
BRANCH   3   4
ATOM      4  C   UNL     1       4.205   4.138  -3.891  0.00  0.00    +0.139 A 
ATOM      5  N   UNL     1       4.713   5.323  -4.128  0.00  0.00    -0.115 NA
ATOM      6  N   UNL     1       4.246   5.739  -5.254  0.00  0.00    -0.023 NA
ATOM      7  N   UNL     1       3.453   4.851  -5.742  0.00  0.00    -0.044 NA
ATOM      8  N   UNL     1       3.405   3.846  -4.934  0.00  0.00    -0.223 N 
BRANCH   8   9
ATOM      9  C   UNL     1       2.623   2.620  -5.114  0.00  0.00    +0.221 C 
BRANCH   9  10
ATOM     10  C   UNL     1       1.163   2.918  -4.893  0.00  0.00    +0.126 A 
ATOM     11  C   UNL     1       0.268   3.220  -5.851  0.00  0.00    +0.046 A 
ATOM     12  C   UNL     1      -0.973   3.420  -5.204  0.00  0.00    +0.041 A 
ATOM     13  C   UNL     1      -0.760   3.236  -3.888  0.00  0.00    +0.195 A 
ATOM     14  O   UNL     1       0.535   2.932  -3.706  0.00  0.00    -0.466 OA
ENDBRANCH   9  10
ENDBRANCH   8   9
ENDBRANCH   3   4
BRANCH   3  16
ATOM     15  C   UNL     1       5.920   1.461  -1.758  0.00  0.00    +0.002 C 
ATOM     16  C   UNL     1       5.651   2.343  -2.979  0.00  0.00    -0.011 C 
ENDBRANCH   3  16
ENDBRANCH   1   3
BRANCH   1  17
ATOM     17  C   UNL     1       6.204   4.492  -1.524  0.00  0.00    -0.042 C 
BRANCH  17  18
ATOM     18  C   UNL     1       6.455   5.530  -2.588  0.00  0.00    -0.064 A 
ATOM     19  C   UNL     1       7.054   5.166  -3.780  0.00  0.00    +0.005 A 
ATOM     20  C   UNL     1       7.279   6.114  -4.759  0.00  0.00    +0.046 A 
ATOM     21  C   UNL     1       6.915   7.435  -4.541  0.00  0.00    +0.120 A 
ATOM     22  C   UNL     1       6.319   7.799  -3.342  0.00  0.00    +0.046 A 
ATOM     23  C   UNL     1       6.090   6.846  -2.369  0.00  0.00    +0.005 A 
BRANCH  21  24
ATOM     24  O   UNL     1       7.141   8.370  -5.500  0.00  0.00    -0.495 OA
ATOM     25  C   UNL     1       7.758   7.924  -6.710  0.00  0.00    +0.277 C 
ENDBRANCH  21  24
ENDBRANCH  17  18
ENDBRANCH   1  17
BRANCH   1  26
ATOM     26  C   UNL     1       4.408   3.454  -0.275  0.00  0.00    -0.036 C 
BRANCH  26  27
ATOM     27  C   UNL     1       2.906   3.375  -0.179  0.00  0.00    +0.001 A 
ATOM     28  C   UNL     1       2.264   2.239  -0.546  0.00  0.00    +0.017 A 
ATOM     29  C   UNL     1       0.805   2.195  -0.441  0.00  0.00    +0.002 A 
ATOM     30  C   UNL     1       0.087   1.050  -0.805  0.00  0.00    -0.041 A 
ATOM     31  C   UNL     1      -1.274   1.041  -0.695  0.00  0.00    +0.007 A 
ATOM     32  C   UNL     1      -1.952   2.158  -0.225  0.00  0.00    -0.048 A 
ATOM     33  C   UNL     1      -1.266   3.296   0.140  0.00  0.00    +0.029 A 
ATOM     34  C   UNL     1       0.121   3.328   0.037  0.00  0.00    +0.050 A 
ATOM     35  N   UNL     1       0.832   4.454   0.394  0.00  0.00    -0.322 N 
ATOM     36  H   UNL     1       0.359   5.234   0.723  0.00  0.00    +0.169 HD
ATOM     37  C   UNL     1       2.173   4.485   0.294  0.00  0.00    +0.251 A 
ATOM     38  O   UNL     1       2.769   5.497   0.618  0.00  0.00    -0.268 OA
ATOM     39  C   UNL     1      -3.455   2.125  -0.113  0.00  0.00    +0.044 C 
ATOM     40  C   UNL     1       0.814  -0.167  -1.316  0.00  0.00    +0.044 C 
ENDBRANCH  26  27
ENDBRANCH   1  26
TORSDOF 10
