REMARK  Name = ZINC45260335
REMARK  11 active torsions:
REMARK  status: ('A' for Active; 'I' for Inactive)
REMARK    1  A    between atoms: C_1  and  C_2
REMARK    2  A    between atoms: C_2  and  C_4
REMARK    3  A    between atoms: C_2  and  N_22
REMARK    4  A    between atoms: C_4  and  C_6
REMARK    5  A    between atoms: C_4  and  C_14
REMARK    6  A    between atoms: C_6  and  C_7
REMARK    7  A    between atoms: C_18  and  C_20
REMARK    8  A    between atoms: C_23  and  C_25
REMARK    9  A    between atoms: C_25  and  C_26
REMARK   10  A    between atoms: C_25  and  C_27
REMARK   11  A    between atoms: C_25  and  N_28
REMARK                            x       y       z     vdW  Elec       q    Type
REMARK                         _______ _______ _______ _____ _____    ______ ____
ROOT
ATOM      1  C   UNL     1       0.482   1.615   0.157  0.00  0.00    +0.028 C 
ATOM      2  C   UNL     1       0.261   0.104   0.053  0.00  0.00    +0.078 C 
ENDROOT
BRANCH   2   3
ATOM      3  N   UNL     1       0.898  -0.562   1.192  0.00  0.00    -0.310 N 
ATOM      4  C   UNL     1       0.237  -0.677   2.361  0.00  0.00    +0.236 C 
ATOM      5  O   UNL     1      -0.884  -0.228   2.470  0.00  0.00    -0.273 OA
ATOM      6  H   UNL     1       1.795  -0.921   1.104  0.00  0.00    +0.149 HD
BRANCH   4   7
ATOM      7  C   UNL     1       0.892  -1.362   3.532  0.00  0.00    +0.104 C 
ATOM      8  C   UNL     1       1.761  -0.357   4.291  0.00  0.00    +0.041 C 
ATOM      9  C   UNL     1      -0.186  -1.913   4.468  0.00  0.00    +0.041 C 
BRANCH   7  10
ATOM     10  N   UNL     1       1.728  -2.464   3.049  0.00  0.00    -0.317 N 
ATOM     11  C   UNL     1       1.158  -3.499   2.317  0.00  0.00    +0.097 A 
ATOM     12  C   UNL     1      -0.177  -3.418   1.932  0.00  0.00    +0.041 A 
ATOM     13  C   UNL     1      -0.731  -4.456   1.204  0.00  0.00    +0.005 A 
ATOM     14  C   UNL     1       0.072  -5.543   0.884  0.00  0.00    +0.018 A 
ATOM     15  C   UNL     1       1.388  -5.557   1.298  0.00  0.00    +0.084 A 
ATOM     16  N   UNL     1       1.892  -4.551   1.987  0.00  0.00    -0.350 N 
ATOM     17  H   UNL     1       2.679  -2.471   3.239  0.00  0.00    +0.148 HD
ATOM     18  H   UNL     1       2.821  -4.584   2.262  0.00  0.00    +0.166 HD
ENDBRANCH   7  10
ENDBRANCH   4   7
ENDBRANCH   2   3
BRANCH   2  19
ATOM     19  C   UNL     1       0.877  -0.412  -1.249  0.00  0.00    +0.043 C 
BRANCH  19  20
ATOM     20  C   UNL     1       0.192   0.241  -2.422  0.00  0.00    -0.041 A 
ATOM     21  C   UNL     1      -1.179   0.128  -2.573  0.00  0.00    +0.004 A 
ATOM     22  C   UNL     1      -1.815   0.724  -3.647  0.00  0.00    +0.002 A 
ATOM     23  C   UNL     1      -1.085   1.438  -4.575  0.00  0.00    +0.019 A 
ATOM     24  C   UNL     1       0.298   1.557  -4.429  0.00  0.00    +0.052 A 
ATOM     25  C   UNL     1       0.933   0.956  -3.340  0.00  0.00    +0.022 A 
BRANCH  24  26
ATOM     26  C   UNL     1       1.062   2.297  -5.389  0.00  0.00    +0.099 C 
ATOM     27  N   UNL     1       1.667   2.883  -6.150  0.00  0.00    -0.191 NA
ENDBRANCH  24  26
ENDBRANCH  19  20
BRANCH  19  28
ATOM     28  C   UNL     1       0.695  -1.929  -1.333  0.00  0.00    +0.045 C 
BRANCH  28  29
ATOM     29  C   UNL     1       1.407  -2.454  -2.553  0.00  0.00    -0.047 A 
ATOM     30  C   UNL     1       0.739  -2.534  -3.761  0.00  0.00    +0.005 A 
ATOM     31  C   UNL     1       1.392  -3.015  -4.881  0.00  0.00    +0.020 A 
ATOM     32  C   UNL     1       2.713  -3.417  -4.792  0.00  0.00    +0.041 A 
ATOM     33  C   UNL     1       3.380  -3.337  -3.583  0.00  0.00    +0.020 A 
ATOM     34  C   UNL     1       2.728  -2.850  -2.465  0.00  0.00    +0.005 A 
ATOM     35 CL   UNL     1       3.533  -4.022  -6.197  0.00  0.00    -0.084 Cl
ENDBRANCH  28  29
ENDBRANCH  19  28
ENDBRANCH   2  19
TORSDOF 8
