REMARK  Name = ZINC36394655
REMARK  9 active torsions:
REMARK  status: ('A' for Active; 'I' for Inactive)
REMARK    1  A    between atoms: C_1  and  C_2
REMARK    2  A    between atoms: C_2  and  O_3
REMARK    3  A    between atoms: O_3  and  C_4
REMARK    4  A    between atoms: C_7  and  C_10
REMARK    5  A    between atoms: N_14  and  C_15
REMARK    6  A    between atoms: C_15  and  N_16
REMARK    7  A    between atoms: C_19  and  C_23
REMARK    8  A    between atoms: C_19  and  C_30
REMARK    9  A    between atoms: C_23  and  C_24
REMARK                            x       y       z     vdW  Elec       q    Type
REMARK                         _______ _______ _______ _____ _____    ______ ____
ROOT
ATOM      1  N   UNL     1      -3.695  -7.670   2.873  0.00  0.00    -0.241 N 
ATOM      2  C   UNL     1      -3.928  -6.942   3.983  0.00  0.00    +0.250 C 
ATOM      3  O   UNL     1      -3.311  -5.971   4.365  0.00  0.00    -0.272 OA
ATOM      4  C   UNL     1      -5.122  -7.591   4.654  0.00  0.00    +0.142 C 
ATOM      5  N   UNL     1      -5.455  -8.713   3.760  0.00  0.00    -0.281 N 
ATOM      6  C   UNL     1      -4.570  -8.674   2.748  0.00  0.00    +0.308 C 
ATOM      7  O   UNL     1      -4.564  -9.464   1.825  0.00  0.00    -0.252 OA
ATOM      8  H   UNL     1      -6.174  -9.354   3.877  0.00  0.00    +0.152 HD
ENDROOT
BRANCH   4   9
ATOM      9  C   UNL     1      -6.274  -6.622   4.739  0.00  0.00    -0.015 A 
ATOM     10  C   UNL     1      -6.411  -5.808   5.848  0.00  0.00    +0.006 A 
ATOM     11  C   UNL     1      -7.467  -4.919   5.926  0.00  0.00    +0.000 A 
ATOM     12  C   UNL     1      -8.385  -4.844   4.895  0.00  0.00    +0.000 A 
ATOM     13  C   UNL     1      -8.246  -5.657   3.786  0.00  0.00    +0.000 A 
ATOM     14  C   UNL     1      -7.188  -6.543   3.706  0.00  0.00    +0.006 A 
ENDBRANCH   4   9
BRANCH   1  15
ATOM     15  C   UNL     1      -2.620  -7.391   1.917  0.00  0.00    +0.043 C 
BRANCH  15  20
ATOM     16  C   UNL     1      -2.001  -6.092  -0.011  0.00  0.00    -0.036 C 
ATOM     17  C   UNL     1      -2.374  -6.570  -1.430  0.00  0.00    -0.012 C 
ATOM     18  C   UNL     1      -3.412  -7.692  -1.159  0.00  0.00    -0.020 C 
ATOM     19  C   UNL     1      -4.157  -7.135   0.080  0.00  0.00    -0.076 C 
ATOM     20  N   UNL     1      -3.110  -6.470   0.884  0.00  0.00    +0.395 N 
ATOM     21  H   UNL     1      -3.491  -5.643   1.320  0.00  0.00    -0.079 HD
BRANCH  16  25
ATOM     22  C   UNL     1      -1.498  -1.848   0.006  0.00  0.00    +0.121 A 
ATOM     23  C   UNL     1      -0.388  -2.679  -0.003  0.00  0.00    +0.046 A 
ATOM     24  C   UNL     1      -0.553  -4.051  -0.008  0.00  0.00    +0.005 A 
ATOM     25  C   UNL     1      -1.823  -4.596  -0.005  0.00  0.00    -0.061 A 
ATOM     26  C   UNL     1      -2.932  -3.769   0.004  0.00  0.00    +0.005 A 
ATOM     27  C   UNL     1      -2.772  -2.397   0.016  0.00  0.00    +0.046 A 
BRANCH  22  28
ATOM     28  O   UNL     1      -1.339  -0.499   0.012  0.00  0.00    -0.492 OA
BRANCH  28  30
ATOM     29  C   UNL     1      -0.019   1.526   0.010  0.00  0.00    +0.048 C 
ATOM     30  C   UNL     1       0.002  -0.004   0.002  0.00  0.00    +0.225 C 
ENDBRANCH  28  30
ENDBRANCH  22  28
ENDBRANCH  16  25
ENDBRANCH  15  20
ENDBRANCH   1  15
BRANCH   4  31
ATOM     31  C   UNL     1      -4.745  -8.104   6.046  0.00  0.00    +0.075 C 
BRANCH  31  32
ATOM     32  C   UNL     1      -3.630  -9.110   5.925  0.00  0.00    -0.045 A 
ATOM     33  C   UNL     1      -3.923 -10.450   5.757  0.00  0.00    +0.004 A 
ATOM     34  C   UNL     1      -2.900 -11.373   5.646  0.00  0.00    +0.000 A 
ATOM     35  C   UNL     1      -1.584 -10.956   5.702  0.00  0.00    +0.000 A 
ATOM     36  C   UNL     1      -1.290  -9.615   5.868  0.00  0.00    +0.000 A 
ATOM     37  C   UNL     1      -2.313  -8.692   5.975  0.00  0.00    +0.004 A 
ENDBRANCH  31  32
ENDBRANCH   4  31
TORSDOF 8
