REMARK  Name = ZINC36054151
REMARK  8 active torsions:
REMARK  status: ('A' for Active; 'I' for Inactive)
REMARK    1  A    between atoms: C_1  and  C_2
REMARK    2  A    between atoms: C_2  and  C_4
REMARK    3  A    between atoms: C_2  and  N_10
REMARK    4  A    between atoms: N_10  and  C_11
REMARK    5  A    between atoms: N_10  and  C_20
REMARK    6  A    between atoms: C_11  and  C_12
REMARK    7  A    between atoms: C_20  and  C_21
REMARK    8  A    between atoms: C_23  and  C_26
REMARK                            x       y       z     vdW  Elec       q    Type
REMARK                         _______ _______ _______ _____ _____    ______ ____
ROOT
ATOM      1  N   UNK     1       0.917  -0.683  -3.288  0.00  0.00    +0.392 N 
ATOM      2  H   UNK     1       1.177  -0.765  -4.260  0.00  0.00    -0.080 HD
ENDROOT
BRANCH   1   4
ATOM      3  C   UNK     1       1.055   1.655  -2.575  0.00  0.00    -0.008 C 
ATOM      4  C   UNK     1       1.779   0.309  -2.632  0.00  0.00    -0.040 C 
BRANCH   4   5
ATOM      5  C   UNK     1       3.058   0.459  -3.414  0.00  0.00    -0.061 A 
ATOM      6  C   UNK     1       3.019   0.533  -4.794  0.00  0.00    +0.002 A 
ATOM      7  C   UNK     1       4.193   0.670  -5.512  0.00  0.00    +0.000 A 
ATOM      8  C   UNK     1       5.405   0.734  -4.850  0.00  0.00    +0.000 A 
ATOM      9  C   UNK     1       5.443   0.660  -3.470  0.00  0.00    +0.000 A 
ATOM     10  C   UNK     1       4.270   0.527  -2.752  0.00  0.00    +0.002 A 
ENDBRANCH   4   5
ENDBRANCH   1   4
BRANCH   1  11
ATOM     11  C   UNK     1      -0.485  -0.255  -3.190  0.00  0.00    -0.041 C 
BRANCH  11  12
ATOM     12  C   UNK     1      -0.726   0.895  -4.134  0.00  0.00    -0.062 A 
ATOM     13  C   UNK     1      -1.401   2.019  -3.695  0.00  0.00    +0.003 A 
ATOM     14  C   UNK     1      -1.623   3.074  -4.560  0.00  0.00    +0.021 A 
ATOM     15  C   UNK     1      -1.169   3.006  -5.865  0.00  0.00    +0.059 A 
ATOM     16  C   UNK     1      -0.492   1.881  -6.304  0.00  0.00    +0.059 A 
ATOM     17  C   UNK     1      -0.266   0.828  -5.436  0.00  0.00    +0.023 A 
ATOM     18 CL   UNK     1       0.078   1.794  -7.941  0.00  0.00    -0.082 Cl
ATOM     19 CL   UNK     1      -1.448   4.331  -6.951  0.00  0.00    -0.082 Cl
ENDBRANCH  11  12
ENDBRANCH   1  11
BRANCH   1  20
ATOM     20  C   UNK     1       1.078  -1.986  -2.627  0.00  0.00    +0.018 C 
BRANCH  20  21
ATOM     21  C   UNK     1       2.477  -2.496  -2.858  0.00  0.00    +0.158 A 
ATOM     22  N   UNK     1       3.163  -3.215  -2.021  0.00  0.00    -0.323 N 
ATOM     23  C   UNK     1       4.377  -3.482  -2.575  0.00  0.00    +0.166 A 
ATOM     24  C   UNK     1       4.397  -2.886  -3.801  0.00  0.00    +0.230 A 
ATOM     25  O   UNK     1       3.208  -2.284  -3.962  0.00  0.00    -0.451 OA
ATOM     26  H   UNK     1       2.860  -3.510  -1.148  0.00  0.00    +0.169 HD
BRANCH  23  27
ATOM     27  C   UNK     1       5.462  -4.266  -1.967  0.00  0.00    +0.406 C 
ATOM     28  O   UNK     1       5.285  -4.826  -0.894  0.00  0.00    -0.239 OA
ATOM     29  O   UNK     1       6.543  -4.357  -2.534  0.00  0.00    -0.239 OA
ENDBRANCH  23  27
ENDBRANCH  20  21
ENDBRANCH   1  20
TORSDOF 7
