REMARK  Name = ZINC20916722
REMARK  10 active torsions:
REMARK  status: ('A' for Active; 'I' for Inactive)
REMARK    1  A    between atoms: C_9  and  O_35
REMARK    2  A    between atoms: C_10  and  C_11
REMARK    3  A    between atoms: N_12  and  N_13
REMARK    4  A    between atoms: C_17  and  S_20
REMARK    5  A    between atoms: N_18  and  N_19
REMARK    6  A    between atoms: S_20  and  C_21
REMARK    7  A    between atoms: C_21  and  C_22
REMARK    8  A    between atoms: C_22  and  C_23
REMARK    9  A    between atoms: N_25  and  C_26
REMARK   10  A    between atoms: C_31  and  N_32
REMARK                            x       y       z     vdW  Elec       q    Type
REMARK                         _______ _______ _______ _____ _____    ______ ____
ROOT
ATOM      1  N   UNL     1      -2.619   8.064  -0.017  0.00  0.00    -0.204 N 
ATOM      2  C   UNL     1      -2.605   9.451   0.001  0.00  0.00    +0.254 A 
ATOM      3  N   UNL     1      -1.536  10.210   0.021  0.00  0.00    -0.109 NA
ATOM      4  N   UNL     1      -1.955  11.547   0.030  0.00  0.00    -0.119 NA
ATOM      5  C   UNL     1      -3.267  11.560   0.025  0.00  0.00    +0.210 A 
ATOM      6  N   UNL     1      -3.703  10.266   0.006  0.00  0.00    -0.211 N 
ATOM      7  H   UNL     1      -3.578   7.524  -0.028  0.00  0.00    +0.177 HD
ENDROOT
BRANCH   6   8
ATOM      8  N   UNL     1      -5.006   9.857  -0.005  0.00  0.00    -0.294 N 
ATOM      9  H   UNL     1      -5.816  10.602   0.000  0.00  0.00    +0.163 HD
ATOM     10  H   UNL     1      -5.246   8.784  -0.020  0.00  0.00    +0.163 HD
ENDBRANCH   6   8
BRANCH   1  12
ATOM     11  C   UNL     1      -1.427   6.051  -0.036  0.00  0.00    +0.142 C 
ATOM     12  N   UNL     1      -1.413   7.351  -0.020  0.00  0.00    -0.187 NA
BRANCH  11  22
ATOM     13  C   UNL     1      -0.086   1.072  -0.093  0.00  0.00    +0.001 A 
ATOM     14  C   UNL     1      -1.305   1.746  -0.095  0.00  0.00    +0.001 A 
ATOM     15  C   UNL     1      -1.351   3.108  -0.073  0.00  0.00    +0.009 A 
ATOM     16  C   UNL     1      -0.159   3.841  -0.058  0.00  0.00    -0.006 A 
ATOM     17  C   UNL     1       1.083   3.159  -0.062  0.00  0.00    -0.017 A 
ATOM     18  C   UNL     1       1.093   1.754  -0.079  0.00  0.00    +0.008 A 
ATOM     19  C   UNL     1       2.279   3.897  -0.048  0.00  0.00    +0.012 A 
ATOM     20  C   UNL     1       2.257   5.256  -0.030  0.00  0.00    +0.046 A 
ATOM     21  C   UNL     1       1.062   5.972  -0.026  0.00  0.00    +0.126 A 
ATOM     22  C   UNL     1      -0.162   5.303  -0.040  0.00  0.00    +0.044 A 
BRANCH  21  23
ATOM     23  O   UNL     1       1.088   7.330  -0.009  0.00  0.00    -0.506 OA
ATOM     24  H   UNL     1       0.146   7.898  -0.006  0.00  0.00    +0.292 HD
ENDBRANCH  21  23
ENDBRANCH  11  22
ENDBRANCH   1  12
BRANCH   5  25
ATOM     25  S   UNL     1      -4.288  12.996   0.038  0.00  0.00    -0.084 S 
BRANCH  25  26
ATOM     26  C   UNL     1      -3.108  14.374   0.061  0.00  0.00    +0.086 C 
BRANCH  26  27
ATOM     27  C   UNL     1      -3.871  15.700   0.074  0.00  0.00    +0.107 C 
BRANCH  27  28
ATOM     28  C   UNL     1      -2.891  16.844   0.093  0.00  0.00    +0.218 C 
ATOM     29  O   UNL     1      -1.698  16.621   0.096  0.00  0.00    -0.275 OA
ATOM     30  N   UNL     1      -3.338  18.115   0.107  0.00  0.00    -0.284 N 
ATOM     31  H   UNL     1      -4.417  18.319   0.031  0.00  0.00    +0.155 HD
BRANCH  30  32
ATOM     32  C   UNL     1      -2.432  19.175   0.218  0.00  0.00    +0.064 A 
ATOM     33  C   UNL     1      -1.184  19.089  -0.385  0.00  0.00    +0.025 A 
ATOM     34  C   UNL     1      -0.293  20.139  -0.279  0.00  0.00    +0.002 A 
ATOM     35  C   UNL     1      -0.639  21.271   0.437  0.00  0.00    +0.002 A 
ATOM     36  C   UNL     1      -1.879  21.357   1.043  0.00  0.00    +0.034 A 
ATOM     37  C   UNL     1      -2.776  20.312   0.936  0.00  0.00    +0.147 A 
BRANCH  37  38
ATOM     38  N   UNL     1      -4.103  20.405   1.585  0.00  0.00    +0.058 N 
ATOM     39  O   UNL     1      -4.443  21.440   2.130  0.00  0.00    -0.126 OA
ATOM     40  O   UNL     1      -4.854  19.447   1.575  0.00  0.00    -0.126 OA
ENDBRANCH  37  38
ENDBRANCH  30  32
ENDBRANCH  27  28
ENDBRANCH  26  27
ENDBRANCH  25  26
ENDBRANCH   5  25
TORSDOF 10
