REMARK  Name = ZINC11791460
REMARK  8 active torsions:
REMARK  status: ('A' for Active; 'I' for Inactive)
REMARK    1  A    between atoms: C_1  and  O_2
REMARK    2  A    between atoms: O_2  and  C_3
REMARK    3  A    between atoms: C_3  and  C_5
REMARK    4  A    between atoms: N_7  and  C_10
REMARK    5  A    between atoms: C_13  and  C_27
REMARK    6  A    between atoms: C_16  and  C_17
REMARK    7  A    between atoms: C_16  and  N_67
REMARK    8  A    between atoms: N_29  and  C_30
REMARK                            x       y       z     vdW  Elec       q    Type
REMARK                         _______ _______ _______ _____ _____    ______ ____
ROOT
ATOM      1  C   UNL     1       5.478  -0.188   3.569  0.00  0.00    +0.091 C 
ATOM      2  C   UNL     1       4.729   1.162   3.494  0.00  0.00    +0.019 C 
ATOM      3  C   UNL     1       4.260   1.216   2.018  0.00  0.00    +0.022 C 
ATOM      4  C   UNL     1       5.871  -0.512   2.116  0.00  0.00    -0.050 C 
ATOM      5  N   UNL     1       5.393   0.614   1.306  0.00  0.00    +0.391 N 
ATOM      6  H   UNL     1       6.142   1.308   1.198  0.00  0.00    -0.080 HD
ENDROOT
BRANCH   1   9
ATOM      7  C   UNL     1       3.090  -2.793   4.296  0.00  0.00    +0.189 A 
ATOM      8  C   UNL     1       3.680  -1.937   3.410  0.00  0.00    +0.145 A 
ATOM      9  N   UNL     1       4.596  -1.230   4.101  0.00  0.00    -0.250 N 
ATOM     10  N   UNL     1       4.546  -1.687   5.426  0.00  0.00    -0.065 NA
ATOM     11  N   UNL     1       3.645  -2.603   5.506  0.00  0.00    -0.123 NA
BRANCH   7  12
ATOM     12  C   UNL     1       2.025  -3.763   3.980  0.00  0.00    +0.361 C 
ATOM     13  O   UNL     1       1.599  -3.848   2.845  0.00  0.00    -0.243 OA
BRANCH  12  15
ATOM     14  C   UNL     1       0.479  -5.485   4.565  0.00  0.00    +0.280 C 
ATOM     15  O   UNL     1       1.525  -4.554   4.949  0.00  0.00    -0.463 OA
ENDBRANCH  12  15
ENDBRANCH   7  12
ENDBRANCH   1   9
BRANCH   3  16
ATOM     16  C   UNL     1       4.040   2.642   1.582  0.00  0.00    +0.200 C 
ATOM     17  O   UNL     1       4.753   3.133   0.732  0.00  0.00    -0.278 OA
ATOM     18  N   UNL     1       3.052   3.372   2.136  0.00  0.00    -0.314 N 
ATOM     19  H   UNL     1       2.482   2.979   2.816  0.00  0.00    +0.149 HD
BRANCH  18  20
ATOM     20  C   UNL     1       2.838   4.758   1.712  0.00  0.00    +0.073 C 
ATOM     21  C   UNL     1       3.804   5.673   2.493  0.00  0.00    +0.022 C 
ATOM     22  C   UNL     1       3.960   6.962   1.731  0.00  0.00    +0.002 C 
ATOM     23  C   UNL     1       2.988   8.054   2.218  0.00  0.00    +0.000 C 
ATOM     24  C   UNL     1       1.573   7.513   2.498  0.00  0.00    +0.000 C 
ATOM     25  C   UNL     1       1.113   6.536   1.451  0.00  0.00    +0.002 C 
ATOM     26  C   UNL     1       1.443   5.109   1.933  0.00  0.00    +0.022 C 
ENDBRANCH  18  20
ENDBRANCH   3  16
BRANCH   5  27
ATOM     27  C   UNL     1       4.969   0.136  -0.045  0.00  0.00    -0.041 C 
BRANCH  27  28
ATOM     28  C   UNL     1       4.432   1.295  -0.845  0.00  0.00    -0.053 A 
ATOM     29  C   UNL     1       3.088   1.524  -0.933  0.00  0.00    +0.022 A 
ATOM     30  C   UNL     1       2.614   2.601  -1.678  0.00  0.00    +0.111 A 
ATOM     31  N   UNL     1       3.426   3.415  -2.308  0.00  0.00    -0.255 NA
ATOM     32  C   UNL     1       4.751   3.247  -2.263  0.00  0.00    +0.071 A 
ATOM     33  C   UNL     1       5.300   2.171  -1.522  0.00  0.00    +0.002 A 
ATOM     34  C   UNL     1       6.693   1.999  -1.478  0.00  0.00    +0.010 A 
ATOM     35  C   UNL     1       7.500   2.867  -2.148  0.00  0.00    +0.001 A 
ATOM     36  C   UNL     1       6.962   3.926  -2.876  0.00  0.00    +0.002 A 
ATOM     37  C   UNL     1       5.617   4.123  -2.940  0.00  0.00    +0.028 A 
ENDBRANCH  27  28
ENDBRANCH   5  27
TORSDOF 7
