REMARK  Name = ZINC36124301
REMARK  12 active torsions:
REMARK  status: ('A' for Active; 'I' for Inactive)
REMARK    1  A    between atoms: C_1  and  C_2
REMARK    2  A    between atoms: C_7  and  C_36
REMARK    3  A    between atoms: C_7  and  C_37
REMARK    4  A    between atoms: C_8  and  C_10
REMARK    5  A    between atoms: C_11  and  C_12
REMARK    6  A    between atoms: C_12  and  C_35
REMARK    7  A    between atoms: N_13  and  N_14
REMARK    8  A    between atoms: N_14  and  C_15
REMARK    9  A    between atoms: C_19  and  C_22
REMARK   10  A    between atoms: C_22  and  C_23
REMARK   11  A    between atoms: N_25  and  C_26
REMARK   12  A    between atoms: C_30  and  N_32
REMARK                            x       y       z     vdW  Elec       q    Type
REMARK                         _______ _______ _______ _____ _____    ______ ____
ROOT
ATOM      1  C   UNL     1       5.400   3.891   2.204  0.00  0.00    +0.191 C 
ATOM      2  N   UNL     1       4.292   4.610   2.326  0.00  0.00    -0.155 NA
ATOM      3  C   UNL     1       4.265   5.888   2.585  0.00  0.00    +0.252 C 
ATOM      4  O   UNL     1       3.225   6.510   2.689  0.00  0.00    -0.272 OA
ATOM      5  C   UNL     1       5.629   6.549   2.748  0.00  0.00    +0.150 C 
ATOM      6  S   UNL     1       6.707   5.079   2.482  0.00  0.00    -0.076 S 
ENDROOT
BRANCH   1   7
ATOM      7  N   UNL     1       5.515   2.558   1.935  0.00  0.00    -0.094 NA
BRANCH   7   9
ATOM      8  C   UNL     1       4.476   0.509   1.490  0.00  0.00    +0.058 C 
ATOM      9  N   UNL     1       4.366   1.779   1.745  0.00  0.00    -0.163 NA
ATOM     10  C   UNL     1       5.839  -0.126   1.398  0.00  0.00    +0.067 C 
BRANCH   8  12
ATOM     11  C   UNL     1       2.068   0.256   1.372  0.00  0.00    -0.021 C 
ATOM     12  C   UNL     1       3.272  -0.305   1.291  0.00  0.00    +0.021 C 
BRANCH  11  19
ATOM     13  C   UNL     1       0.016   1.492  -0.007  0.00  0.00    +0.008 C 
ATOM     14  C   UNL     1       0.043  -0.035  -0.010  0.00  0.00    -0.007 C 
ATOM     15  C   UNL     1      -1.369  -0.597  -0.105  0.00  0.00    +0.004 C 
ATOM     16  C   UNL     1      -2.102  -0.444   1.226  0.00  0.00    +0.001 C 
ATOM     17  C   UNL     1      -1.346  -1.222   2.300  0.00  0.00    +0.007 C 
ATOM     18  C   UNL     1       0.063  -0.667   2.479  0.00  0.00    -0.028 C 
ATOM     19  C   UNL     1       0.825  -0.586   1.167  0.00  0.00    +0.020 C 
ATOM     20  C   UNL     1       0.829  -1.625   3.416  0.00  0.00    +0.011 C 
ATOM     21  C   UNL     1       0.006   0.699   3.167  0.00  0.00    +0.011 C 
ENDBRANCH  11  19
ENDBRANCH   8  12
ENDBRANCH   7   9
ENDBRANCH   1   7
BRANCH   5  22
ATOM     22  C   UNL     1       5.862   7.622   1.683  0.00  0.00    +0.120 C 
BRANCH  22  23
ATOM     23  C   UNL     1       7.164   8.329   1.958  0.00  0.00    +0.219 C 
ATOM     24  O   UNL     1       7.839   8.006   2.913  0.00  0.00    -0.275 OA
ATOM     25  N   UNL     1       7.578   9.319   1.144  0.00  0.00    -0.285 N 
ATOM     26  H   UNL     1       7.073   9.533   0.344  0.00  0.00    +0.155 HD
BRANCH  25  27
ATOM     27  C   UNL     1       8.737  10.040   1.452  0.00  0.00    +0.036 A 
ATOM     28  C   UNL     1       8.812  11.396   1.159  0.00  0.00    +0.023 A 
ATOM     29  C   UNL     1       9.957  12.104   1.465  0.00  0.00    +0.004 A 
ATOM     30  C   UNL     1      11.028  11.466   2.062  0.00  0.00    +0.033 A 
ATOM     31  C   UNL     1      10.957  10.117   2.356  0.00  0.00    +0.128 A 
ATOM     32  C   UNL     1       9.812   9.403   2.058  0.00  0.00    +0.056 A 
BRANCH  31  33
ATOM     33  N   UNL     1      12.106   9.437   2.994  0.00  0.00    +0.056 N 
ATOM     34  O   UNL     1      13.107  10.062   3.260  0.00  0.00    -0.126 OA
ATOM     35  O   UNL     1      12.044   8.257   3.251  0.00  0.00    -0.126 OA
ENDBRANCH  31  33
ENDBRANCH  25  27
ENDBRANCH  22  23
ENDBRANCH   5  22
TORSDOF 8
