REMARK  Name = ZINC15959322
REMARK  3 active torsions:
REMARK  status: ('A' for Active; 'I' for Inactive)
REMARK    1  A    between atoms: C_4  and  N_7
REMARK    2  A    between atoms: C_12  and  C_30
REMARK    3  A    between atoms: C_30  and  C_31
REMARK                            x       y       z     vdW  Elec       q    Type
REMARK                         _______ _______ _______ _____ _____    ______ ____
ROOT
ATOM      1  N   UNL     1       3.624  -0.652  -0.037  0.00  0.00    -0.210 N 
ATOM      2  C   UNL     1       4.801  -0.025  -0.139  0.00  0.00    +0.232 C 
ATOM      3  O   UNL     1       4.950   1.175  -0.228  0.00  0.00    -0.274 OA
ATOM      4  C   UNL     1       5.917  -1.045  -0.124  0.00  0.00    +0.108 C 
ATOM      5  C   UNL     1       6.718  -0.899   1.187  0.00  0.00    +0.072 C 
ATOM      6  N   UNL     1       6.888  -2.289   1.687  0.00  0.00    -0.295 NA
ATOM      7  C   UNL     1       5.601  -2.942   1.382  0.00  0.00    +0.136 C 
ATOM      8  C   UNL     1       5.163  -2.398  -0.000  0.00  0.00    +0.123 C 
ATOM      9  C   UNL     1       3.710  -1.984   0.052  0.00  0.00    +0.233 C 
ATOM     10  O   UNL     1       2.770  -2.742   0.157  0.00  0.00    -0.274 OA
ATOM     11  C   UNL     1       5.735  -4.439   1.362  0.00  0.00    +0.005 A 
ATOM     12  C   UNL     1       6.502  -5.311   0.623  0.00  0.00    +0.027 A 
ATOM     13  C   UNL     1       6.404  -6.675   0.841  0.00  0.00    +0.041 A 
ATOM     14  C   UNL     1       5.532  -7.157   1.802  0.00  0.00    +0.022 A 
ATOM     15  C   UNL     1       4.762  -6.286   2.544  0.00  0.00    +0.025 A 
ATOM     16  C   UNL     1       4.855  -4.912   2.331  0.00  0.00    +0.039 A 
ATOM     17  N   UNL     1       4.192  -3.846   2.943  0.00  0.00    -0.283 N 
ATOM     18  C   UNL     1       4.574  -2.655   2.443  0.00  0.00    +0.243 C 
ATOM     19  O   UNL     1       4.170  -1.564   2.783  0.00  0.00    -0.273 OA
ATOM     20 CL   UNL     1       7.370  -7.777  -0.089  0.00  0.00    -0.084 Cl
ATOM     21  H   UNL     1       7.649  -2.753   1.215  0.00  0.00    +0.124 HD
ATOM     22  H   UNL     1       3.532  -3.952   3.647  0.00  0.00    +0.155 HD
ENDROOT
BRANCH   1  26
ATOM     23  C   UNL     1      -0.016   1.380   0.010  0.00  0.00    +0.000 A 
ATOM     24  C   UNL     1       0.869   1.525   1.063  0.00  0.00    +0.002 A 
ATOM     25  C   UNL     1       2.076   0.853   1.050  0.00  0.00    +0.024 A 
ATOM     26  C   UNL     1       2.399   0.031  -0.021  0.00  0.00    +0.044 A 
ATOM     27  C   UNL     1       1.508  -0.113  -1.076  0.00  0.00    +0.024 A 
ATOM     28  C   UNL     1       0.303   0.561  -1.058  0.00  0.00    +0.002 A 
ENDBRANCH   1  26
BRANCH   5  29
ATOM     29  C   UNL     1       8.081  -0.260   0.911  0.00  0.00    +0.056 C 
BRANCH  29  30
ATOM     30  C   UNL     1       8.795  -0.015   2.215  0.00  0.00    -0.021 A 
ATOM     31  C   UNL     1       8.796   1.126   2.922  0.00  0.00    +0.087 A 
ATOM     32  N   UNL     1       9.553   0.974   4.052  0.00  0.00    -0.360 N 
ATOM     33  H   UNL     1       9.703   1.662   4.719  0.00  0.00    +0.165 HD
ATOM     34  C   UNL     1      10.072  -0.301   4.100  0.00  0.00    +0.047 A 
ATOM     35  C   UNL     1       9.614  -0.978   2.955  0.00  0.00    +0.003 A 
ATOM     36  C   UNL     1       9.981  -2.308   2.739  0.00  0.00    +0.010 A 
ATOM     37  C   UNL     1      10.781  -2.946   3.644  0.00  0.00    +0.001 A 
ATOM     38  C   UNL     1      11.231  -2.284   4.777  0.00  0.00    +0.002 A 
ATOM     39  C   UNL     1      10.889  -0.969   5.005  0.00  0.00    +0.026 A 
ENDBRANCH  29  30
ENDBRANCH   5  29
TORSDOF 3
