REMARK  Name = ZINC16185127
REMARK  9 active torsions:
REMARK  status: ('A' for Active; 'I' for Inactive)
REMARK    1  A    between atoms: C_1  and  C_2
REMARK    2  A    between atoms: C_2  and  O_4
REMARK    3  A    between atoms: O_4  and  C_5
REMARK    4  A    between atoms: C_8  and  C_15
REMARK    5  A    between atoms: C_9  and  O_11
REMARK    6  A    between atoms: O_11  and  C_12
REMARK    7  A    between atoms: C_12  and  C_14
REMARK    8  A    between atoms: C_28  and  C_31
REMARK    9  A    between atoms: C_31  and  C_33
REMARK                            x       y       z     vdW  Elec       q    Type
REMARK                         _______ _______ _______ _____ _____    ______ ____
ROOT
ATOM      1  C   UNL     1       5.195   1.117   0.028  0.00  0.00    +0.108 C 
ATOM      2  C   UNL     1       5.262   2.541  -0.482  0.00  0.00    +0.029 C 
ATOM      3  C   UNL     1       6.581   3.304  -0.316  0.00  0.00    +0.033 C 
ATOM      4  C   UNL     1       6.084   4.748  -0.200  0.00  0.00    -0.030 C 
ATOM      5  C   UNL     1       4.843   4.763   0.273  0.00  0.00    -0.023 C 
ATOM      6  C   UNL     1       4.425   3.366   0.545  0.00  0.00    +0.049 C 
ATOM      7  C   UNL     1       3.024   2.910   0.413  0.00  0.00    -0.017 A 
ATOM      8  C   UNL     1       1.963   3.767   0.608  0.00  0.00    +0.026 A 
ATOM      9  C   UNL     1       0.656   3.318   0.499  0.00  0.00    +0.042 A 
ATOM     10  C   UNL     1       0.408   1.997   0.193  0.00  0.00    +0.033 A 
ATOM     11  C   UNL     1       1.470   1.117  -0.013  0.00  0.00    +0.045 A 
ATOM     12  C   UNL     1       2.804   1.569   0.088  0.00  0.00    +0.042 A 
ATOM     13  N   UNL     1       3.812   0.653  -0.163  0.00  0.00    -0.336 N 
ATOM     14 CL   UNL     1      -0.666   4.417   0.740  0.00  0.00    -0.084 Cl
ATOM     15  H   UNL     1       3.695   0.226  -1.070  0.00  0.00    +0.147 HD
ENDROOT
BRANCH   1  19
ATOM     16  C   UNL     1       6.209   1.007   4.182  0.00  0.00    +0.135 A 
ATOM     17  C   UNL     1       4.878   1.022   3.788  0.00  0.00    +0.047 A 
ATOM     18  C   UNL     1       4.553   1.063   2.446  0.00  0.00    +0.012 A 
ATOM     19  C   UNL     1       5.553   1.078   1.492  0.00  0.00    +0.016 A 
ATOM     20  C   UNL     1       6.885   1.063   1.880  0.00  0.00    +0.140 A 
ATOM     21  C   UNL     1       7.213   1.028   3.226  0.00  0.00    +0.093 A 
BRANCH  16  22
ATOM     22  O   UNL     1       6.527   0.972   5.503  0.00  0.00    -0.426 OA
BRANCH  22  24
ATOM     23  C   UNL     1       7.538   2.087   7.460  0.00  0.00    +0.136 C 
ATOM     24  C   UNL     1       7.054   2.087   6.033  0.00  0.00    +0.309 C 
ATOM     25  O   UNL     1       7.140   3.091   5.365  0.00  0.00    -0.251 OA
ENDBRANCH  22  24
ENDBRANCH  16  22
BRANCH  20  26
ATOM     26  O   UNL     1       7.867   1.083   0.941  0.00  0.00    -0.426 OA
BRANCH  26  27
ATOM     27  C   UNL     1       8.251  -0.100   0.435  0.00  0.00    +0.309 C 
ATOM     28  O   UNL     1       7.683  -1.112   0.769  0.00  0.00    -0.251 OA
ATOM     29  C   UNL     1       9.390  -0.164  -0.550  0.00  0.00    +0.136 C 
ENDBRANCH  26  27
ENDBRANCH  20  26
ENDBRANCH   1  19
BRANCH  11  30
ATOM     30  C   UNL     1       1.199  -0.294  -0.337  0.00  0.00    +0.195 C 
ATOM     31  O   UNL     1       0.860  -1.065   0.540  0.00  0.00    -0.287 OA
BRANCH  30  32
ATOM     32  C   UNL     1       1.339  -0.773  -1.729  0.00  0.00    +0.022 A 
ATOM     33  C   UNL     1       1.775   0.098  -2.729  0.00  0.00    +0.012 A 
ATOM     34  C   UNL     1       1.909  -0.356  -4.025  0.00  0.00    +0.001 A 
ATOM     35  C   UNL     1       1.601  -1.669  -4.336  0.00  0.00    +0.000 A 
ATOM     36  C   UNL     1       1.164  -2.536  -3.350  0.00  0.00    +0.001 A 
ATOM     37  C   UNL     1       1.031  -2.096  -2.050  0.00  0.00    +0.012 A 
ENDBRANCH  30  32
ENDBRANCH  11  30
TORSDOF 7
