REMARK  Name = ZINC41037869
REMARK  4 active torsions:
REMARK  status: ('A' for Active; 'I' for Inactive)
REMARK    1  A    between atoms: C_1  and  C_2
REMARK    2  A    between atoms: C_8  and  C_9
REMARK    3  A    between atoms: C_8  and  N_12
REMARK    4  A    between atoms: C_13  and  C_15
REMARK                            x       y       z     vdW  Elec       q    Type
REMARK                         _______ _______ _______ _____ _____    ______ ____
ROOT
ATOM      1  N   UNL     1       2.116  -0.004   1.231  0.00  0.00    -0.294 N 
ATOM      2  C   UNL     1       2.960  -0.324   2.232  0.00  0.00    +0.265 C 
ATOM      3  O   UNL     1       2.581  -1.032   3.144  0.00  0.00    -0.268 OA
ATOM      4  H   UNL     1       2.419   0.562   0.504  0.00  0.00    +0.150 HD
ENDROOT
BRANCH   1  11
ATOM      5  C   UNL     1      -0.019   1.526   0.010  0.00  0.00    +0.010 C 
ATOM      6  C   UNL     1       0.002  -0.004   0.002  0.00  0.00    +0.020 C 
ATOM      7  C   UNL     1       0.718  -0.497  -1.257  0.00  0.00    +0.006 C 
ATOM      8  C   UNL     1       0.739  -2.027  -1.265  0.00  0.00    +0.000 C 
ATOM      9  C   UNL     1       1.479  -2.534  -0.026  0.00  0.00    +0.003 C 
ATOM     10  C   UNL     1       0.763  -2.041   1.233  0.00  0.00    +0.038 C 
ATOM     11  C   UNL     1       0.742  -0.511   1.242  0.00  0.00    +0.139 C 
BRANCH  11  12
ATOM     12  C   UNL     1       0.037  -0.025   2.481  0.00  0.00    +0.379 C 
ATOM     13  O   UNL     1      -1.125  -0.336   2.684  0.00  0.00    -0.244 OA
ATOM     14  O   UNL     1       0.627   0.680   3.282  0.00  0.00    -0.244 OA
ENDBRANCH  11  12
ENDBRANCH   1  11
BRANCH   2  15
ATOM     15  C   UNL     1       4.348   0.189   2.222  0.00  0.00    +0.148 A 
ATOM     16  C   UNL     1       5.228  -0.147   3.257  0.00  0.00    +0.040 A 
ATOM     17  C   UNL     1       6.516   0.357   3.203  0.00  0.00    +0.076 A 
ATOM     18  C   UNL     1       6.858   1.166   2.121  0.00  0.00    +0.288 A 
ATOM     19  O   UNL     1       8.108   1.681   2.027  0.00  0.00    -0.264 OA
ATOM     20  N   UNL     1       5.959   1.433   1.183  0.00  0.00    -0.106 NA
ATOM     21  N   UNL     1       4.765   0.963   1.227  0.00  0.00    -0.141 NA
ENDBRANCH   2  15
TORSDOF 3
