REMARK  Name = ZINC40982236
REMARK  14 active torsions:
REMARK  status: ('A' for Active; 'I' for Inactive)
REMARK    1  A    between atoms: C_1  and  C_2
REMARK    2  A    between atoms: C_2  and  C_3
REMARK    3  A    between atoms: C_3  and  O_4
REMARK    4  A    between atoms: O_4  and  C_5
REMARK    5  A    between atoms: C_10  and  C_11
REMARK    6  A    between atoms: C_13  and  C_26
REMARK    7  A    between atoms: C_14  and  C_25
REMARK    8  A    between atoms: C_19  and  S_21
REMARK    9  A    between atoms: S_21  and  C_22
REMARK   10  A    between atoms: C_22  and  C_23
REMARK   11  A    between atoms: C_23  and  C_24
REMARK   12  A    between atoms: N_28  and  C_29
REMARK   13  A    between atoms: C_32  and  C_36
REMARK   14  A    between atoms: C_34  and  C_35
REMARK                            x       y       z     vdW  Elec       q    Type
REMARK                         _______ _______ _______ _____ _____    ______ ____
ROOT
ATOM      1  C   UNL     1       0.903  -5.229   0.878  0.00  0.00    +0.181 C 
ATOM      2  C   UNL     1       2.105  -5.987   0.380  0.00  0.00    +0.060 C 
ATOM      3  C   UNL     1       2.247  -7.312   0.527  0.00  0.00    +0.018 C 
ATOM      4  N   UNL     1       1.293  -8.087   1.141  0.00  0.00    -0.287 N 
ATOM      5  C   UNL     1       0.053  -7.508   1.373  0.00  0.00    +0.219 A 
ATOM      6  N   UNL     1      -0.148  -6.173   1.250  0.00  0.00    -0.220 N 
ATOM      7  N   UNL     1      -1.491  -5.942   1.543  0.00  0.00    -0.141 NA
ATOM      8  C   UNL     1      -2.023  -7.111   1.827  0.00  0.00    +0.210 A 
ATOM      9  N   UNL     1      -1.078  -8.058   1.723  0.00  0.00    -0.187 NA
ATOM     10  C   UNL     1       3.496  -7.973   0.003  0.00  0.00    +0.061 C 
ATOM     11  H   UNL     1       1.479  -9.003   1.401  0.00  0.00    +0.155 HD
ENDROOT
BRANCH   1  17
ATOM     12  C   UNL     1       1.257  -3.024   2.017  0.00  0.00    +0.126 A 
ATOM     13  C   UNL     1       1.608  -2.271   3.129  0.00  0.00    +0.046 A 
ATOM     14  C   UNL     1       1.996  -2.903   4.294  0.00  0.00    +0.004 A 
ATOM     15  C   UNL     1       2.034  -4.284   4.354  0.00  0.00    +0.001 A 
ATOM     16  C   UNL     1       1.684  -5.036   3.248  0.00  0.00    +0.009 A 
ATOM     17  C   UNL     1       1.290  -4.409   2.082  0.00  0.00    +0.023 A 
BRANCH  12  18
ATOM     18  O   UNL     1       0.875  -2.405   0.870  0.00  0.00    -0.492 OA
BRANCH  18  19
ATOM     19  C   UNL     1       0.968  -0.979   0.839  0.00  0.00    +0.229 C 
BRANCH  19  21
ATOM     20  C   UNL     1       0.432   1.068  -0.490  0.00  0.00    +0.007 C 
ATOM     21  C   UNL     1       0.445  -0.462  -0.502  0.00  0.00    +0.038 C 
ENDBRANCH  19  21
ENDBRANCH  18  19
ENDBRANCH  12  18
ENDBRANCH   1  17
BRANCH   2  22
ATOM     22  C   UNL     1       3.132  -5.267  -0.275  0.00  0.00    +0.248 C 
ATOM     23  O   UNL     1       3.009  -4.964  -1.448  0.00  0.00    -0.270 OA
ATOM     24  N   UNL     1       4.245  -4.918   0.399  0.00  0.00    -0.281 N 
ATOM     25  H   UNL     1       4.375  -5.220   1.311  0.00  0.00    +0.155 HD
BRANCH  24  26
ATOM     26  C   UNL     1       5.214  -4.120  -0.218  0.00  0.00    +0.037 A 
ATOM     27  C   UNL     1       4.886  -3.369  -1.340  0.00  0.00    +0.024 A 
ATOM     28  C   UNL     1       5.846  -2.582  -1.946  0.00  0.00    +0.005 A 
ATOM     29  C   UNL     1       7.131  -2.541  -1.437  0.00  0.00    -0.050 A 
ATOM     30  C   UNL     1       7.460  -3.287  -0.321  0.00  0.00    +0.008 A 
ATOM     31  C   UNL     1       6.504  -4.071   0.294  0.00  0.00    -0.029 A 
ATOM     32  C   UNL     1       6.862  -4.879   1.515  0.00  0.00    +0.045 C 
ATOM     33  C   UNL     1       8.175  -1.681  -2.102  0.00  0.00    +0.044 C 
ENDBRANCH  24  26
ENDBRANCH   2  22
BRANCH   8  34
ATOM     34  S   UNL     1      -3.705  -7.389   2.272  0.00  0.00    -0.084 S 
BRANCH  34  35
ATOM     35  C   UNL     1      -3.800  -9.181   2.531  0.00  0.00    +0.077 C 
BRANCH  35  36
ATOM     36  C   UNL     1      -5.227  -9.564   2.929  0.00  0.00    +0.008 C 
ATOM     37  C   UNL     1      -5.308 -11.076   3.148  0.00  0.00    +0.004 C 
ENDBRANCH  35  36
ENDBRANCH  34  35
ENDBRANCH   8  34
TORSDOF 9
