REMARK  Name = ZINC09315908
REMARK  4 active torsions:
REMARK  status: ('A' for Active; 'I' for Inactive)
REMARK    1  A    between atoms: C_1  and  C_2
REMARK    2  A    between atoms: C_2  and  C_4
REMARK    3  A    between atoms: C_2  and  N_14
REMARK    4  A    between atoms: N_17  and  C_18
REMARK                            x       y       z     vdW  Elec       q    Type
REMARK                         _______ _______ _______ _____ _____    ______ ____
ROOT
ATOM      1  N   UNL     1      -4.647  -0.140  -0.874  0.00  0.00    -0.293 N 
ATOM      2  C   UNL     1      -5.657  -0.844  -1.423  0.00  0.00    +0.304 C 
ATOM      3  O   UNL     1      -5.764  -2.033  -1.192  0.00  0.00    -0.252 OA
ATOM      4  N   UNL     1      -6.548  -0.231  -2.227  0.00  0.00    -0.267 N 
ATOM      5  H   UNL     1      -4.562   0.809  -1.058  0.00  0.00    +0.151 HD
ATOM      6  H   UNL     1      -6.512   0.731  -2.345  0.00  0.00    +0.156 HD
ENDROOT
BRANCH   4   7
ATOM      7  C   UNL     1      -7.526  -0.982  -2.890  0.00  0.00    +0.070 A 
ATOM      8  C   UNL     1      -7.307  -2.326  -3.158  0.00  0.00    +0.026 A 
ATOM      9  C   UNL     1      -8.276  -3.067  -3.808  0.00  0.00    +0.002 A 
ATOM     10  C   UNL     1      -9.459  -2.468  -4.202  0.00  0.00    +0.003 A 
ATOM     11  C   UNL     1      -9.678  -1.128  -3.943  0.00  0.00    +0.040 A 
ATOM     12  C   UNL     1      -8.715  -0.382  -3.288  0.00  0.00    +0.145 A 
ATOM     13  F   UNL     1      -8.930   0.928  -3.034  0.00  0.00    -0.204 F 
ENDBRANCH   4   7
BRANCH   1  15
ATOM     14  C   UNL     1      -4.227  -0.853   1.427  0.00  0.00    +0.033 C 
ATOM     15  C   UNL     1      -3.679  -0.806  -0.000  0.00  0.00    +0.102 C 
BRANCH  15  16
ATOM     16  C   UNL     1      -2.380  -0.043  -0.015  0.00  0.00    -0.024 A 
ATOM     17  C   UNL     1      -2.392   1.340  -0.012  0.00  0.00    +0.009 A 
ATOM     18  C   UNL     1      -1.203   2.043  -0.030  0.00  0.00    +0.050 A 
ATOM     19  C   UNL     1       0.007   1.364  -0.045  0.00  0.00    +0.162 A 
ATOM     20  C   UNL     1       0.019  -0.025  -0.046  0.00  0.00    +0.162 A 
ATOM     21  C   UNL     1      -1.178  -0.726  -0.032  0.00  0.00    +0.055 A 
ATOM     22  O   UNL     1       1.194  -0.712  -0.060  0.00  0.00    -0.485 OA
ATOM     23  C   UNL     1       2.361   0.019  -0.452  0.00  0.00    +0.270 C 
ATOM     24  C   UNL     1       2.361   1.361   0.293  0.00  0.00    +0.270 C 
ATOM     25  O   UNL     1       1.170   2.071  -0.063  0.00  0.00    -0.485 OA
ENDBRANCH  15  16
ENDBRANCH   1  15
TORSDOF 3
