REMARK  Name = ZINC45630487
REMARK  6 active torsions:
REMARK  status: ('A' for Active; 'I' for Inactive)
REMARK    1  A    between atoms: C_1  and  C_2
REMARK    2  A    between atoms: C_2  and  C_25
REMARK    3  A    between atoms: N_5  and  C_9
REMARK    4  A    between atoms: C_9  and  C_10
REMARK    5  A    between atoms: N_12  and  C_13
REMARK    6  A    between atoms: C_18  and  N_19
REMARK                            x       y       z     vdW  Elec       q    Type
REMARK                         _______ _______ _______ _____ _____    ______ ____
ROOT
ATOM      1  C   UNL     1      -2.579  -1.981   1.793  0.00  0.00    +0.214 C 
ENDROOT
BRANCH   1   6
ATOM      2  C   UNL     1      -0.036   1.529  -0.018  0.00  0.00    +0.047 C 
ATOM      3  C   UNL     1      -0.009  -0.001  -0.016  0.00  0.00    +0.135 C 
ATOM      4  C   UNL     1      -1.412  -0.559   0.121  0.00  0.00    +0.251 C 
ATOM      5  O   UNL     1      -2.341  -0.402  -0.643  0.00  0.00    -0.272 OA
ATOM      6  N   UNL     1      -1.413  -1.266   1.268  0.00  0.00    -0.215 N 
ATOM      7  C   UNL     1      -0.218  -1.233   1.869  0.00  0.00    +0.310 C 
ATOM      8  O   UNL     1       0.027  -1.796   2.917  0.00  0.00    -0.252 OA
ATOM      9  N   UNL     1       0.682  -0.506   1.183  0.00  0.00    -0.281 N 
ATOM     10  H   UNL     1       1.607  -0.346   1.429  0.00  0.00    +0.152 HD
BRANCH   3  11
ATOM     11  C   UNL     1       0.651  -0.520  -1.267  0.00  0.00    -0.014 A 
ATOM     12  C   UNL     1      -0.110  -0.785  -2.391  0.00  0.00    +0.006 A 
ATOM     13  C   UNL     1       0.495  -1.261  -3.539  0.00  0.00    +0.001 A 
ATOM     14  C   UNL     1       1.861  -1.472  -3.564  0.00  0.00    +0.015 A 
ATOM     15  C   UNL     1       2.623  -1.206  -2.441  0.00  0.00    +0.018 A 
ATOM     16  C   UNL     1       2.017  -0.725  -1.293  0.00  0.00    +0.021 A 
ATOM     17 BR   UNL     1       4.491  -1.495  -2.474  0.00  0.00    -0.050 Br
ENDBRANCH   3  11
ENDBRANCH   1   6
BRANCH   1  18
ATOM     18  C   UNL     1      -2.587  -3.390   1.257  0.00  0.00    +0.235 C 
ATOM     19  O   UNL     1      -1.706  -3.759   0.510  0.00  0.00    -0.274 OA
ATOM     20  N   UNL     1      -3.573  -4.239   1.608  0.00  0.00    -0.283 N 
ATOM     21  H   UNL     1      -4.232  -3.970   2.267  0.00  0.00    +0.155 HD
BRANCH  20  22
ATOM     22  C   UNL     1      -3.646  -5.508   1.020  0.00  0.00    +0.055 A 
ATOM     23  C   UNL     1      -3.086  -5.730  -0.229  0.00  0.00    +0.025 A 
ATOM     24  C   UNL     1      -3.159  -6.984  -0.806  0.00  0.00    +0.002 A 
ATOM     25  C   UNL     1      -3.790  -8.020  -0.142  0.00  0.00    +0.002 A 
ATOM     26  C   UNL     1      -4.351  -7.808   1.103  0.00  0.00    +0.025 A 
ATOM     27  C   UNL     1      -4.278  -6.554   1.692  0.00  0.00    +0.057 A 
BRANCH  27  28
ATOM     28  N   UNL     1      -4.842  -6.338   2.956  0.00  0.00    -0.270 N 
ATOM     29  C   UNL     1      -6.229  -5.915   3.183  0.00  0.00    +0.114 C 
ATOM     30  C   UNL     1      -6.517  -6.228   4.668  0.00  0.00    +0.029 C 
ATOM     31  C   UNL     1      -5.098  -6.185   5.281  0.00  0.00    +0.098 C 
ATOM     32  C   UNL     1      -4.183  -6.497   4.117  0.00  0.00    +0.220 C 
ATOM     33  O   UNL     1      -3.024  -6.839   4.218  0.00  0.00    -0.275 OA
ENDBRANCH  27  28
ENDBRANCH  20  22
ENDBRANCH   1  18
TORSDOF 5
