REMARK  Name = ZINC03770437
REMARK  10 active torsions:
REMARK  status: ('A' for Active; 'I' for Inactive)
REMARK    1  A    between atoms: C_1  and  C_2
REMARK    2  A    between atoms: C_5  and  N_8
REMARK    3  A    between atoms: C_9  and  C_11
REMARK    4  A    between atoms: C_16  and  C_19
REMARK    5  A    between atoms: C_19  and  C_20
REMARK    6  A    between atoms: C_20  and  O_22
REMARK    7  A    between atoms: O_22  and  C_23
REMARK    8  A    between atoms: C_24  and  N_37
REMARK    9  A    between atoms: C_25  and  C_35
REMARK   10  A    between atoms: C_26  and  C_28
REMARK                            x       y       z     vdW  Elec       q    Type
REMARK                         _______ _______ _______ _____ _____    ______ ____
ROOT
ATOM      1  C   UNL     1       3.224   3.805   1.222  0.00  0.00    +0.055 C 
ATOM      2  C   UNL     1       4.554   3.581   1.094  0.00  0.00    +0.086 C 
ATOM      3  N   UNL     1       5.184   3.296  -0.104  0.00  0.00    -0.220 N 
ATOM      4  C   UNL     1       6.518   3.089  -0.111  0.00  0.00    +0.239 C 
ATOM      5  O   UNL     1       7.110   2.836  -1.138  0.00  0.00    -0.274 OA
ATOM      6  C   UNL     1       7.244   3.182   1.211  0.00  0.00    +0.150 C 
ATOM      7  S   UNL     1       5.843   3.574   2.327  0.00  0.00    -0.096 S 
ATOM      8  C   UNL     1       4.413   3.232  -1.275  0.00  0.00    +0.110 C 
ATOM      9  C   UNL     1       3.079   3.433  -1.310  0.00  0.00    +0.077 C 
ATOM     10  C   UNL     1       2.354   3.748  -0.017  0.00  0.00    +0.103 C 
ENDROOT
BRANCH  10  11
ATOM     11  C   UNL     1       1.296   2.697   0.198  0.00  0.00    +0.001 A 
ATOM     12  C   UNL     1       1.659   1.375   0.371  0.00  0.00    +0.007 A 
ATOM     13  C   UNL     1       0.688   0.411   0.569  0.00  0.00    +0.000 A 
ATOM     14  C   UNL     1      -0.648   0.768   0.588  0.00  0.00    +0.003 A 
ATOM     15  C   UNL     1      -1.013   2.090   0.420  0.00  0.00    +0.038 A 
ATOM     16  C   UNL     1      -0.041   3.057   0.222  0.00  0.00    +0.127 A 
ATOM     17  F   UNL     1      -0.397   4.349   0.053  0.00  0.00    -0.205 F 
ENDBRANCH  10  11
BRANCH   1  19
ATOM     18  N   UNL     1       1.341   4.309   2.594  0.00  0.00    -0.282 N 
ATOM     19  C   UNL     1       2.666   4.086   2.479  0.00  0.00    +0.248 C 
ATOM     20  O   UNL     1       3.379   4.129   3.467  0.00  0.00    -0.270 OA
ATOM     21  H   UNL     1       0.765   4.214   1.820  0.00  0.00    +0.155 HD
BRANCH  18  26
ATOM     22  C   UNL     1      -0.861   5.801   7.604  0.00  0.00    +0.044 C 
ATOM     23  C   UNL     1      -0.276   5.405   6.273  0.00  0.00    -0.050 A 
ATOM     24  C   UNL     1      -0.795   5.934   5.106  0.00  0.00    +0.005 A 
ATOM     25  C   UNL     1      -0.261   5.573   3.885  0.00  0.00    +0.023 A 
ATOM     26  C   UNL     1       0.799   4.677   3.829  0.00  0.00    +0.034 A 
ATOM     27  C   UNL     1       1.315   4.143   5.003  0.00  0.00    +0.023 A 
ATOM     28  C   UNL     1       0.780   4.513   6.222  0.00  0.00    +0.005 A 
ENDBRANCH  18  26
ENDBRANCH   1  19
BRANCH   8  29
ATOM     29  N   UNL     1       5.055   2.948  -2.455  0.00  0.00    -0.345 N 
ATOM     30  H   UNL     1       4.719   3.311  -3.290  0.00  0.00    +0.144 HD
ATOM     31  H   UNL     1       5.845   2.384  -2.455  0.00  0.00    +0.144 HD
ENDBRANCH   8  29
BRANCH   9  32
ATOM     32  C   UNL     1       2.362   3.350  -2.547  0.00  0.00    +0.099 C 
ATOM     33  N   UNL     1       1.793   3.284  -3.528  0.00  0.00    -0.191 NA
ENDBRANCH   9  32
BRANCH   6  34
ATOM     34  C   UNL     1       7.893   1.848   1.583  0.00  0.00    +0.144 C 
BRANCH  34  35
ATOM     35  C   UNL     1       8.549   1.968   2.935  0.00  0.00    +0.308 C 
ATOM     36  O   UNL     1       8.502   3.014   3.538  0.00  0.00    -0.251 OA
BRANCH  35  37
ATOM     37  O   UNL     1       9.185   0.913   3.468  0.00  0.00    -0.468 OA
ATOM     38  C   UNL     1       9.794   1.101   4.773  0.00  0.00    +0.280 C 
ENDBRANCH  35  37
ENDBRANCH  34  35
ENDBRANCH   6  34
TORSDOF 8
