REMARK  Name = ZINC51987378
REMARK  2 active torsions:
REMARK  status: ('A' for Active; 'I' for Inactive)
REMARK    1  A    between atoms: C_7  and  N_12
REMARK    2  A    between atoms: C_13  and  N_21
REMARK                            x       y       z     vdW  Elec       q    Type
REMARK                         _______ _______ _______ _____ _____    ______ ____
ROOT
ATOM      1  N   UNL     1       0.169  -2.700  -0.936  0.00  0.00    -0.274 N 
ATOM      2  C   UNL     1      -0.827  -3.523  -0.470  0.00  0.00    +0.106 A 
ATOM      3  C   UNL     1      -1.814  -3.932  -1.323  0.00  0.00    +0.111 A 
ATOM      4  C   UNL     1      -1.785  -3.498  -2.658  0.00  0.00    +0.256 A 
ATOM      5  O   UNL     1      -2.655  -3.849  -3.437  0.00  0.00    -0.268 OA
ATOM      6  N   UNL     1      -0.789  -2.690  -3.073  0.00  0.00    -0.275 N 
ATOM      7  H   UNL     1      -0.767  -2.389  -3.995  0.00  0.00    +0.173 HD
ATOM      8  C   UNL     1       0.172  -2.293  -2.219  0.00  0.00    +0.331 A 
ATOM      9  O   UNL     1       1.058  -1.560  -2.612  0.00  0.00    -0.246 OA
ENDROOT
BRANCH   1  16
ATOM     10  C   UNL     1       0.113   1.342   0.034  0.00  0.00    +0.001 A 
ATOM     11  C   UNL     1       1.318   2.021   0.016  0.00  0.00    +0.004 A 
ATOM     12  C   UNL     1       2.504   1.318  -0.022  0.00  0.00    +0.046 A 
ATOM     13  C   UNL     1       2.494  -0.073  -0.042  0.00  0.00    +0.126 A 
ATOM     14  C   UNL     1       1.287  -0.750  -0.020  0.00  0.00    +0.017 A 
ATOM     15  C   UNL     1       0.099  -0.039   0.015  0.00  0.00    +0.009 A 
ATOM     16  C   UNL     1       1.231  -2.257  -0.029  0.00  0.00    +0.130 C 
ATOM     17  C   UNL     1       2.573  -2.820  -0.504  0.00  0.00    +0.071 C 
ATOM     18  C   UNL     1       3.693  -2.114   0.270  0.00  0.00    +0.231 C 
ATOM     19  O   UNL     1       3.682  -0.730  -0.084  0.00  0.00    -0.492 OA
ENDBRANCH   1  16
BRANCH   2  20
ATOM     20  N   UNL     1      -0.831  -3.933   0.839  0.00  0.00    -0.344 N 
ATOM     21  H   UNL     1      -0.188  -3.564   1.464  0.00  0.00    +0.144 HD
ATOM     22  H   UNL     1      -1.477  -4.591   1.139  0.00  0.00    +0.144 HD
ENDBRANCH   2  20
TORSDOF 2
