REMARK  Name = ZINC06077649
REMARK  14 active torsions:
REMARK  status: ('A' for Active; 'I' for Inactive)
REMARK    1  A    between atoms: C_1  and  C_2
REMARK    2  A    between atoms: C_2  and  C_3
REMARK    3  A    between atoms: C_3  and  C_4
REMARK    4  A    between atoms: C_3  and  C_5
REMARK    5  A    between atoms: C_3  and  N_6
REMARK    6  A    between atoms: C_7  and  C_11
REMARK    7  A    between atoms: C_11  and  C_13
REMARK    8  A    between atoms: C_11  and  N_71
REMARK    9  A    between atoms: C_16  and  C_26
REMARK   10  A    between atoms: C_19  and  C_25
REMARK   11  A    between atoms: C_27  and  C_28
REMARK   12  A    between atoms: C_27  and  N_71
REMARK   13  A    between atoms: C_34  and  C_35
REMARK   14  A    between atoms: C_34  and  N_71
REMARK                            x       y       z     vdW  Elec       q    Type
REMARK                         _______ _______ _______ _____ _____    ______ ____
ROOT
ATOM      1  C   UNL     1       4.137  -1.922   0.541  0.00  0.00    +0.040 C 
ENDROOT
BRANCH   1   2
ATOM      2  C   UNL     1       4.943  -3.084   0.021  0.00  0.00    +0.011 A 
ATOM      3  C   UNL     1       5.998  -2.861  -0.800  0.00  0.00    +0.018 A 
ATOM      4  C   UNL     1       6.763  -4.011  -1.285  0.00  0.00    +0.002 A 
ATOM      5  C   UNL     1       7.864  -3.844  -2.132  0.00  0.00    -0.041 A 
ATOM      6  C   UNL     1       8.554  -4.938  -2.570  0.00  0.00    +0.004 A 
ATOM      7  C   UNL     1       8.172  -6.216  -2.183  0.00  0.00    +0.005 A 
ATOM      8  C   UNL     1       7.090  -6.405  -1.350  0.00  0.00    -0.026 A 
ATOM      9  C   UNL     1       6.372  -5.305  -0.891  0.00  0.00    +0.052 A 
ATOM     10  N   UNL     1       5.286  -5.465  -0.057  0.00  0.00    -0.322 N 
ATOM     11  H   UNL     1       5.010  -6.385   0.222  0.00  0.00    +0.169 HD
ATOM     12  C   UNL     1       4.593  -4.402   0.387  0.00  0.00    +0.251 A 
ATOM     13  O   UNL     1       3.638  -4.580   1.123  0.00  0.00    -0.268 OA
ATOM     14  C   UNL     1       6.686  -7.797  -0.939  0.00  0.00    +0.046 C 
ATOM     15  C   UNL     1       8.286  -2.462  -2.559  0.00  0.00    +0.044 C 
ENDBRANCH   1   2
BRANCH   1  17
ATOM     16  N   UNL     1       2.210  -1.206  -0.969  0.00  0.00    -0.225 N 
ATOM     17  C   UNL     1       2.737  -1.993  -0.013  0.00  0.00    +0.143 A 
ATOM     18  N   UNL     1       1.797  -2.834   0.343  0.00  0.00    -0.115 NA
ATOM     19  N   UNL     1       0.747  -2.577  -0.358  0.00  0.00    -0.023 NA
ATOM     20  N   UNL     1       0.993  -1.593  -1.152  0.00  0.00    -0.043 NA
BRANCH  16  21
ATOM     21  C   UNL     1       2.890  -0.114  -1.670  0.00  0.00    +0.061 C 
ATOM     22  C   UNL     1       3.230   0.998  -0.675  0.00  0.00    +0.036 C 
ATOM     23  C   UNL     1       4.178  -0.641  -2.306  0.00  0.00    +0.036 C 
BRANCH  21  25
ATOM     24  C   UNL     1       2.683   1.582  -3.493  0.00  0.00    +0.006 C 
ATOM     25  C   UNL     1       1.973   0.442  -2.761  0.00  0.00    +0.026 C 
ENDBRANCH  21  25
ENDBRANCH  16  21
ENDBRANCH   1  17
BRANCH   1  26
ATOM     26  N   UNL     1       4.069  -2.000   2.016  0.00  0.00    +0.397 N 
ATOM     27  H   UNL     1       3.442  -2.768   2.281  0.00  0.00    -0.079 HD
BRANCH  26  28
ATOM     28  C   UNL     1       3.537  -0.735   2.564  0.00  0.00    -0.039 C 
BRANCH  28  29
ATOM     29  C   UNL     1       2.034  -0.756   2.453  0.00  0.00    -0.046 A 
ATOM     30  C   UNL     1       1.344   0.374   2.042  0.00  0.00    +0.005 A 
ATOM     31  C   UNL     1      -0.038   0.307   1.950  0.00  0.00    +0.020 A 
ATOM     32  C   UNL     1      -0.678  -0.873   2.279  0.00  0.00    +0.111 A 
ATOM     33  N   UNL     1       0.011  -1.927   2.671  0.00  0.00    -0.263 NA
ATOM     34  C   UNL     1       1.326  -1.901   2.765  0.00  0.00    +0.112 A 
ENDBRANCH  28  29
ENDBRANCH  26  28
BRANCH  26  35
ATOM     35  C   UNL     1       5.413  -2.264   2.570  0.00  0.00    -0.001 C 
BRANCH  35  36
ATOM     36  C   UNL     1       5.272  -2.658   4.018  0.00  0.00    +0.089 A 
ATOM     37  C   UNL     1       5.177  -3.915   4.486  0.00  0.00    +0.042 A 
ATOM     38  C   UNL     1       5.060  -3.821   5.892  0.00  0.00    +0.041 A 
ATOM     39  C   UNL     1       5.090  -2.512   6.199  0.00  0.00    +0.195 A 
ATOM     40  O   UNL     1       5.225  -1.812   5.060  0.00  0.00    -0.470 OA
ENDBRANCH  35  36
ENDBRANCH  26  35
ENDBRANCH   1  26
TORSDOF 9
