REMARK  Name = ZINC33569138
REMARK  7 active torsions:
REMARK  status: ('A' for Active; 'I' for Inactive)
REMARK    1  A    between atoms: C_1  and  C_2
REMARK    2  A    between atoms: C_2  and  C_32
REMARK    3  A    between atoms: C_3  and  C_28
REMARK    4  A    between atoms: C_5  and  C_7
REMARK    5  A    between atoms: N_9  and  C_10
REMARK    6  A    between atoms: C_18  and  C_19
REMARK    7  A    between atoms: C_19  and  C_21
REMARK                            x       y       z     vdW  Elec       q    Type
REMARK                         _______ _______ _______ _____ _____    ______ ____
ROOT
ATOM      1  C   UNL     1      -0.391   5.268   0.024  0.00  0.00    +0.091 A 
ATOM      2  C   UNL     1      -0.073   3.874  -0.310  0.00  0.00    +0.042 A 
ATOM      3  C   UNL     1       1.088   3.216  -0.718  0.00  0.00    +0.013 A 
ATOM      4  C   UNL     1       1.057   1.871  -0.956  0.00  0.00    +0.001 A 
ATOM      5  C   UNL     1      -0.122   1.156  -0.793  0.00  0.00    +0.004 A 
ATOM      6  C   UNL     1      -1.280   1.789  -0.395  0.00  0.00    +0.047 A 
ATOM      7  C   UNL     1      -1.270   3.157  -0.143  0.00  0.00    +0.138 A 
ATOM      8  O   UNL     1      -2.225   4.022   0.253  0.00  0.00    -0.450 OA
ATOM      9  C   UNL     1      -1.731   5.276   0.359  0.00  0.00    +0.197 A 
ENDROOT
BRANCH   1  12
ATOM     10  C   UNL     1       1.799   6.160   0.183  0.00  0.00    +0.221 C 
ATOM     11  O   UNL     1       2.224   5.050   0.422  0.00  0.00    -0.275 OA
ATOM     12  N   UNL     1       0.476   6.352   0.007  0.00  0.00    -0.282 N 
ATOM     13  H   UNL     1       0.083   7.367  -0.149  0.00  0.00    +0.155 HD
BRANCH  10  17
ATOM     14  C   UNL     1       4.648   5.600   0.586  0.00  0.00    +0.012 C 
ATOM     15  C   UNL     1       4.238   7.043   0.290  0.00  0.00    -0.016 C 
ATOM     16  C   UNL     1       3.442   7.786   1.365  0.00  0.00    +0.033 C 
ATOM     17  C   UNL     1       2.749   7.326   0.081  0.00  0.00    +0.089 C 
ATOM     18  C   UNL     1       5.234   7.856  -0.539  0.00  0.00    +0.012 C 
BRANCH  16  19
ATOM     19  C   UNL     1       3.699   9.262   1.526  0.00  0.00    +0.010 C 
ATOM     20  C   UNL     1       4.134   9.732   2.673  0.00  0.00    +0.103 C 
ATOM     21 CL   UNL     1       4.412   8.652   4.004  0.00  0.00    -0.071 Cl
ATOM     22 CL   UNL     1       4.430  11.432   2.859  0.00  0.00    -0.071 Cl
ENDBRANCH  16  19
ENDBRANCH  10  17
ENDBRANCH   1  12
BRANCH   9  23
ATOM     23  C   UNL     1      -2.470   6.418   0.753  0.00  0.00    +0.230 C 
ATOM     24  O   UNL     1      -1.904   7.485   0.912  0.00  0.00    -0.283 OA
BRANCH  23  25
ATOM     25  C   UNL     1      -3.929   6.315   0.970  0.00  0.00    +0.026 A 
ATOM     26  C   UNL     1      -4.561   5.072   0.909  0.00  0.00    +0.013 A 
ATOM     27  C   UNL     1      -5.922   4.982   1.117  0.00  0.00    +0.016 A 
ATOM     28  C   UNL     1      -6.662   6.123   1.376  0.00  0.00    +0.018 A 
ATOM     29  C   UNL     1      -6.042   7.360   1.433  0.00  0.00    +0.016 A 
ATOM     30  C   UNL     1      -4.682   7.462   1.231  0.00  0.00    +0.013 A 
ATOM     31 BR   UNL     1      -8.528   5.992   1.653  0.00  0.00    -0.050 Br
ENDBRANCH  23  25
ENDBRANCH   9  23
TORSDOF 5
