REMARK  Name = ZINC05047352
REMARK  12 active torsions:
REMARK  status: ('A' for Active; 'I' for Inactive)
REMARK    1  A    between atoms: C_1  and  C_2
REMARK    2  A    between atoms: C_2  and  C_3
REMARK    3  A    between atoms: C_2  and  C_4
REMARK    4  A    between atoms: C_4  and  C_5
REMARK    5  A    between atoms: C_11  and  N_17
REMARK    6  A    between atoms: C_13  and  S_15
REMARK    7  A    between atoms: S_15  and  C_16
REMARK    8  A    between atoms: N_17  and  C_18
REMARK    9  A    between atoms: C_18  and  C_19
REMARK   10  A    between atoms: C_19  and  N_57
REMARK   11  A    between atoms: C_20  and  N_57
REMARK   12  A    between atoms: C_21  and  N_57
REMARK                            x       y       z     vdW  Elec       q    Type
REMARK                         _______ _______ _______ _____ _____    ______ ____
ROOT
ATOM      1  C   UNL     1       0.002  -0.004   0.002  0.00  0.00    +0.046 A 
ATOM      2  C   UNL     1       1.064  -0.682   0.586  0.00  0.00    -0.022 A 
ATOM      3  C   UNL     1       1.081  -2.058   0.584  0.00  0.00    -0.031 A 
ATOM      4  C   UNL     1       0.021  -2.764  -0.024  0.00  0.00    +0.037 A 
ATOM      5  C   UNL     1      -0.144  -4.225  -0.136  0.00  0.00    +0.094 A 
ATOM      6  C   UNL     1      -1.300  -4.662  -0.792  0.00  0.00    +0.080 A 
ATOM      7  C   UNL     1      -1.562  -6.016  -0.955  0.00  0.00    +0.138 A 
ATOM      8  N   UNL     1      -0.685  -6.895  -0.473  0.00  0.00    -0.206 NA
ATOM      9  C   UNL     1       0.408  -6.468   0.146  0.00  0.00    +0.190 A 
ATOM     10  N   UNL     1       0.686  -5.192   0.318  0.00  0.00    -0.221 NA
ATOM     11  S   UNL     1      -2.146  -3.174  -1.249  0.00  0.00    -0.064 S 
ATOM     12  C   UNL     1      -1.004  -1.984  -0.592  0.00  0.00    +0.111 A 
ATOM     13  N   UNL     1      -0.986  -0.668  -0.565  0.00  0.00    -0.244 NA
ATOM     14  C   UNL     1       2.323  -2.564   1.279  0.00  0.00    +0.036 C 
ATOM     15  C   UNL     1       2.846  -1.360   2.092  0.00  0.00    +0.009 C 
ATOM     16  C   UNL     1       2.295  -0.158   1.295  0.00  0.00    +0.037 C 
ENDROOT
BRANCH   9  17
ATOM     17  S   UNL     1       1.542  -7.665   0.769  0.00  0.00    -0.089 S 
ATOM     18  C   UNL     1       0.696  -9.186   0.275  0.00  0.00    +0.093 C 
ENDBRANCH   9  17
BRANCH   7  19
ATOM     19  N   UNL     1      -2.710  -6.443  -1.605  0.00  0.00    -0.330 N 
ATOM     20  H   UNL     1      -3.341  -5.793  -1.952  0.00  0.00    +0.147 HD
BRANCH  19  21
ATOM     21  C   UNL     1      -2.969  -7.876  -1.768  0.00  0.00    +0.084 C 
BRANCH  21  22
ATOM     22  C   UNL     1      -4.291  -8.073  -2.514  0.00  0.00    -0.061 C 
BRANCH  22  25
ATOM     23  C   UNL     1      -4.783 -10.154  -1.378  0.00  0.00    -0.097 C 
ATOM     24  C   UNL     1      -5.680  -9.740  -3.588  0.00  0.00    -0.097 C 
ATOM     25  N   UNL     1      -4.527  -9.521  -2.689  0.00  0.00    +0.377 N 
ATOM     26  H   UNL     1      -3.692  -9.948  -3.108  0.00  0.00    -0.083 HD
ENDBRANCH  22  25
ENDBRANCH  21  22
ENDBRANCH  19  21
ENDBRANCH   7  19
BRANCH   1  27
ATOM     27  C   UNL     1      -0.018   1.503   0.010  0.00  0.00    +0.058 C 
BRANCH  27  29
ATOM     28  C   UNL     1       0.073   1.595   2.505  0.00  0.00    +0.007 C 
ATOM     29  C   UNL     1      -0.735   1.996   1.269  0.00  0.00    -0.011 C 
ATOM     30  C   UNL     1      -0.866   3.520   1.217  0.00  0.00    +0.007 C 
ENDBRANCH  27  29
ENDBRANCH   1  27
TORSDOF 7
