REMARK  Name = ZINC36032785
REMARK  13 active torsions:
REMARK  status: ('A' for Active; 'I' for Inactive)
REMARK    1  A    between atoms: C_1  and  C_2
REMARK    2  A    between atoms: C_2  and  C_3
REMARK    3  A    between atoms: C_3  and  C_5
REMARK    4  A    between atoms: C_3  and  C_6
REMARK    5  A    between atoms: C_6  and  N_7
REMARK    6  A    between atoms: C_10  and  C_29
REMARK    7  A    between atoms: N_16  and  C_19
REMARK    8  A    between atoms: C_19  and  N_21
REMARK    9  A    between atoms: N_21  and  C_22
REMARK   10  A    between atoms: C_26  and  C_28
REMARK   11  A    between atoms: C_29  and  C_30
REMARK   12  A    between atoms: C_30  and  C_31
REMARK   13  A    between atoms: C_30  and  C_32
REMARK                            x       y       z     vdW  Elec       q    Type
REMARK                         _______ _______ _______ _____ _____    ______ ____
ROOT
ATOM      1  N   UNL     1      -2.662  -2.138  -0.371  0.00  0.00    -0.313 N 
ATOM      2  C   UNL     1      -3.330  -2.424   0.766  0.00  0.00    +0.200 C 
ATOM      3  O   UNL     1      -2.967  -2.150   1.890  0.00  0.00    -0.277 OA
ATOM      4  C   UNL     1      -4.611  -3.144   0.401  0.00  0.00    +0.019 C 
ATOM      5  N   UNL     1      -4.798  -2.874  -1.045  0.00  0.00    +0.401 N 
ATOM      6  C   UNL     1      -3.422  -2.629  -1.523  0.00  0.00    +0.006 C 
ATOM      7  C   UNL     1      -2.819  -3.936  -2.036  0.00  0.00    +0.025 C 
ATOM      8  C   UNL     1      -1.379  -3.684  -2.496  0.00  0.00    +0.107 C 
ATOM      9  N   UNL     1      -1.380  -2.585  -3.471  0.00  0.00    -0.312 N 
ATOM     10  C   UNL     1      -2.005  -1.309  -3.098  0.00  0.00    +0.107 C 
ATOM     11  C   UNL     1      -3.439  -1.580  -2.632  0.00  0.00    +0.025 C 
ATOM     12  H   UNL     1      -5.201  -3.675  -1.508  0.00  0.00    -0.082 HD
ATOM     13  H   UNL     1      -5.370  -2.055  -1.183  0.00  0.00    -0.082 HD
ENDROOT
BRANCH   9  14
ATOM     14  C   UNL     1      -0.818  -2.745  -4.686  0.00  0.00    +0.137 C 
ATOM     15  S   UNL     1       0.016  -4.193  -5.060  0.00  0.00    -0.018 S 
BRANCH  14  16
ATOM     16  N   UNL     1      -0.912  -1.765  -5.606  0.00  0.00    -0.297 N 
ATOM     17  H   UNL     1      -1.566  -1.831  -6.320  0.00  0.00    +0.154 HD
BRANCH  16  18
ATOM     18  C   UNL     1      -0.068  -0.652  -5.532  0.00  0.00    +0.033 A 
ATOM     19  C   UNL     1       0.947  -0.611  -4.585  0.00  0.00    +0.023 A 
ATOM     20  C   UNL     1       1.779   0.489  -4.514  0.00  0.00    +0.002 A 
ATOM     21  C   UNL     1       1.602   1.549  -5.385  0.00  0.00    +0.003 A 
ATOM     22  C   UNL     1       0.593   1.511  -6.329  0.00  0.00    -0.049 A 
ATOM     23  C   UNL     1      -0.240   0.411  -6.408  0.00  0.00    +0.026 A 
ATOM     24  C   UNL     1       0.403   2.668  -7.276  0.00  0.00    +0.044 C 
ENDBRANCH  16  18
ENDBRANCH  14  16
ENDBRANCH   9  14
BRANCH   1  25
ATOM     25  C   UNL     1      -1.377  -1.438  -0.442  0.00  0.00    +0.109 C 
BRANCH  25  26
ATOM     26  C   UNL     1      -1.621   0.071  -0.512  0.00  0.00    +0.003 C 
ATOM     27  C   UNL     1      -2.264   0.544   0.793  0.00  0.00    +0.009 C 
BRANCH  26  29
ATOM     28  C   UNL     1      -0.544   2.290  -0.909  0.00  0.00    +0.004 C 
ATOM     29  C   UNL     1      -0.288   0.794  -0.715  0.00  0.00    +0.001 C 
ENDBRANCH  26  29
ENDBRANCH  25  26
ENDBRANCH   1  25
BRANCH   4  30
ATOM     30  C   UNL     1      -5.785  -2.584   1.207  0.00  0.00    -0.004 C 
BRANCH  30  31
ATOM     31  C   UNL     1      -5.598  -2.926   2.686  0.00  0.00    -0.018 C 
ATOM     32  C   UNL     1      -6.696  -2.250   3.509  0.00  0.00    +0.007 C 
ATOM     33  C   UNL     1      -5.681  -4.443   2.873  0.00  0.00    +0.007 C 
ENDBRANCH  30  31
ENDBRANCH   4  30
TORSDOF 8
