REMARK  Name = ZINC40012448
REMARK  7 active torsions:
REMARK  status: ('A' for Active; 'I' for Inactive)
REMARK    1  A    between atoms: C_4  and  C_7
REMARK    2  A    between atoms: C_7  and  N_8
REMARK    3  A    between atoms: C_17  and  C_19
REMARK    4  A    between atoms: C_22  and  S_25
REMARK    5  A    between atoms: S_25  and  C_26
REMARK    6  A    between atoms: C_26  and  C_27
REMARK    7  A    between atoms: C_27  and  C_29
REMARK                            x       y       z     vdW  Elec       q    Type
REMARK                         _______ _______ _______ _____ _____    ______ ____
ROOT
ATOM      1  C   UNL     1       6.216   0.891   3.827  0.00  0.00    +0.260 C 
ATOM      2  N   UNL     1       6.684   0.815   5.030  0.00  0.00    -0.143 NA
ATOM      3  N   UNL     1       7.440   1.957   5.332  0.00  0.00    -0.219 N 
ATOM      4  C   UNL     1       7.386   2.794   4.121  0.00  0.00    +0.339 C 
ATOM      5  O   UNL     1       6.587   2.035   3.203  0.00  0.00    -0.441 OA
ATOM      6  H   UNL     1       7.901   2.154   6.163  0.00  0.00    +0.173 HD
ENDROOT
BRANCH   1  16
ATOM      7  N   UNL     1       4.152  -0.952   1.338  0.00  0.00    -0.224 N 
ATOM      8  C   UNL     1       3.778  -2.093   1.952  0.00  0.00    +0.275 A 
ATOM      9  O   UNL     1       3.084  -2.909   1.372  0.00  0.00    -0.266 OA
ATOM     10  C   UNL     1       4.221  -2.338   3.331  0.00  0.00    +0.050 A 
ATOM     11  C   UNL     1       3.870  -3.497   4.022  0.00  0.00    +0.014 A 
ATOM     12  C   UNL     1       4.313  -3.678   5.314  0.00  0.00    +0.001 A 
ATOM     13  C   UNL     1       5.103  -2.718   5.933  0.00  0.00    +0.001 A 
ATOM     14  C   UNL     1       5.460  -1.565   5.267  0.00  0.00    +0.011 A 
ATOM     15  C   UNL     1       5.024  -1.363   3.959  0.00  0.00    +0.020 A 
ATOM     16  C   UNL     1       5.378  -0.150   3.204  0.00  0.00    +0.155 A 
ATOM     17  N   UNL     1       4.951  -0.002   1.973  0.00  0.00    -0.162 NA
BRANCH   7  18
ATOM     18  C   UNL     1       3.711  -0.707  -0.038  0.00  0.00    +0.182 C 
BRANCH  18  22
ATOM     19  C   UNL     1      -0.017   1.378   0.010  0.00  0.00    +0.000 A 
ATOM     20  C   UNL     1       1.171   2.086   0.002  0.00  0.00    +0.000 A 
ATOM     21  C   UNL     1       2.377   1.411  -0.013  0.00  0.00    +0.005 A 
ATOM     22  C   UNL     1       2.396   0.029  -0.020  0.00  0.00    -0.026 A 
ATOM     23  C   UNL     1       1.208  -0.679  -0.012  0.00  0.00    +0.005 A 
ATOM     24  C   UNL     1       0.002  -0.004   0.002  0.00  0.00    +0.000 A 
ENDBRANCH  18  22
ENDBRANCH   7  18
ENDBRANCH   1  16
BRANCH   4  25
ATOM     25  S   UNL     1       6.607   4.390   4.487  0.00  0.00    -0.088 S 
BRANCH  25  26
ATOM     26  C   UNL     1       4.947   3.945   5.069  0.00  0.00    +0.153 C 
BRANCH  26  27
ATOM     27  C   UNL     1       4.183   5.198   5.412  0.00  0.00    +0.171 C 
ATOM     28  O   UNL     1       4.706   6.285   5.277  0.00  0.00    -0.291 OA
BRANCH  27  29
ATOM     29  C   UNL     1       2.858   5.107   5.890  0.00  0.00    +0.024 C 
ATOM     30  C   UNL     1       2.022   6.151   6.242  0.00  0.00    +0.006 A 
ATOM     31  C   UNL     1       2.188   7.556   6.247  0.00  0.00    +0.010 A 
ATOM     32  C   UNL     1       1.179   8.360   6.652  0.00  0.00    +0.001 A 
ATOM     33  C   UNL     1      -0.060   7.857   7.079  0.00  0.00    +0.002 A 
ATOM     34  C   UNL     1      -0.320   6.532   7.113  0.00  0.00    +0.026 A 
ATOM     35  C   UNL     1       0.725   5.586   6.688  0.00  0.00    +0.043 A 
ATOM     36  N   UNL     1       0.746   4.286   6.620  0.00  0.00    -0.380 N 
ATOM     37  C   UNL     1       2.052   3.847   6.119  0.00  0.00    +0.152 C 
ATOM     38  H   UNL     1       0.012   3.700   6.861  0.00  0.00    +0.160 HD
ENDBRANCH  27  29
ENDBRANCH  26  27
ENDBRANCH  25  26
ENDBRANCH   4  25
TORSDOF 7
