REMARK  Name = ZINC36202988
REMARK  10 active torsions:
REMARK  status: ('A' for Active; 'I' for Inactive)
REMARK    1  A    between atoms: C_3  and  C_8
REMARK    2  A    between atoms: C_8  and  N_9
REMARK    3  A    between atoms: N_9  and  C_10
REMARK    4  A    between atoms: N_9  and  C_16
REMARK    5  A    between atoms: C_10  and  C_11
REMARK    6  A    between atoms: C_16  and  C_17
REMARK    7  A    between atoms: C_20  and  C_22
REMARK    8  A    between atoms: C_22  and  C_23
REMARK    9  A    between atoms: C_22  and  C_28
REMARK   10  A    between atoms: C_22  and  O_33
REMARK                            x       y       z     vdW  Elec       q    Type
REMARK                         _______ _______ _______ _____ _____    ______ ____
ROOT
ATOM      1  C   UNL     1       5.309   3.655   2.958  0.00  0.00    +0.089 A 
ATOM      2  C   UNL     1       6.136   2.934   3.736  0.00  0.00    +0.043 A 
ATOM      3  C   UNL     1       6.100   3.517   5.023  0.00  0.00    +0.048 A 
ATOM      4  C   UNL     1       5.253   4.560   4.955  0.00  0.00    +0.147 A 
ATOM      5  O   UNL     1       4.781   4.642   3.700  0.00  0.00    -0.463 OA
ENDROOT
BRANCH   1   6
ATOM      6  C   UNL     1       5.027   3.402   1.500  0.00  0.00    -0.002 C 
BRANCH   6   7
ATOM      7  N   UNL     1       3.978   2.382   1.373  0.00  0.00    +0.392 N 
ATOM      8  H   UNL     1       4.250   1.554   1.882  0.00  0.00    -0.080 HD
BRANCH   7   9
ATOM      9  C   UNL     1       2.719   2.902   1.924  0.00  0.00    -0.042 C 
BRANCH   9  12
ATOM     10  C   UNL     1       0.578  -0.022   2.982  0.00  0.00    +0.003 A 
ATOM     11  C   UNL     1       1.536   0.975   2.996  0.00  0.00    +0.002 A 
ATOM     12  C   UNL     1       1.675   1.815   1.907  0.00  0.00    -0.061 A 
ATOM     13  C   UNL     1       0.859   1.659   0.803  0.00  0.00    +0.040 A 
ATOM     14  C   UNL     1      -0.100   0.661   0.788  0.00  0.00    +0.124 A 
ATOM     15  C   UNL     1      -0.239  -0.181   1.879  0.00  0.00    +0.038 A 
ATOM     16  F   UNL     1      -0.900   0.507  -0.290  0.00  0.00    -0.205 F 
ENDBRANCH   9  12
ENDBRANCH   7   9
BRANCH   7  17
ATOM     17  C   UNL     1       3.790   2.046  -0.044  0.00  0.00    -0.002 C 
BRANCH  17  18
ATOM     18  C   UNL     1       5.035   1.382  -0.573  0.00  0.00    +0.089 A 
ATOM     19  C   UNL     1       5.269   0.058  -0.604  0.00  0.00    +0.042 A 
ATOM     20  C   UNL     1       6.550  -0.119  -1.176  0.00  0.00    +0.041 A 
ATOM     21  C   UNL     1       7.022   1.108  -1.460  0.00  0.00    +0.195 A 
ATOM     22  O   UNL     1       6.098   2.013  -1.098  0.00  0.00    -0.470 OA
ENDBRANCH  17  18
ENDBRANCH   7  17
ENDBRANCH   6   7
ENDBRANCH   1   6
BRANCH   4  23
ATOM     23  C   UNL     1       4.898   5.483   6.092  0.00  0.00    +0.186 C 
BRANCH  23  24
ATOM     24  C   UNL     1       4.574   6.850   5.547  0.00  0.00    +0.034 A 
ATOM     25  C   UNL     1       4.743   8.063   6.129  0.00  0.00    +0.015 A 
ATOM     26  C   UNL     1       4.370   9.197   5.433  0.00  0.00    +0.008 A 
ATOM     27  C   UNL     1       3.846   9.063   4.190  0.00  0.00    +0.045 A 
ATOM     28  S   UNL     1       3.874   7.293   3.966  0.00  0.00    -0.098 S 
ENDBRANCH  23  24
BRANCH  23  29
ATOM     29  C   UNL     1       3.701   4.938   6.827  0.00  0.00    +0.034 A 
ATOM     30  C   UNL     1       3.367   5.072   8.134  0.00  0.00    +0.015 A 
ATOM     31  C   UNL     1       2.207   4.479   8.594  0.00  0.00    +0.008 A 
ATOM     32  C   UNL     1       1.436   3.780   7.724  0.00  0.00    +0.045 A 
ATOM     33  S   UNL     1       2.349   3.954   6.200  0.00  0.00    -0.098 S 
ENDBRANCH  23  29
BRANCH  23  34
ATOM     34  O   UNL     1       6.005   5.579   6.991  0.00  0.00    -0.371 OA
ATOM     35  H   UNL     1       6.812   5.923   6.585  0.00  0.00    +0.212 HD
ENDBRANCH  23  34
ENDBRANCH   4  23
TORSDOF 10
